MODEL 1
REMARK VINA RESULT:      -7.7      0.000      0.000
REMARK  Name = NuBBE_163
REMARK  6 active torsions:
REMARK  status: ('A' for Active; 'I' for Inactive)
REMARK    1  A    between atoms: C_1  and  O_2
REMARK    2  A    between atoms: O_2  and  C_3
REMARK    3  A    between atoms: C_9  and  O_11
REMARK    4  A    between atoms: C_19  and  O_21
REMARK    5  A    between atoms: C_23  and  O_24
REMARK    6  A    between atoms: O_24  and  C_25
REMARK                            x       y       z     vdW  Elec       q    Type
REMARK                         _______ _______ _______ _____ _____    ______ ____
ROOT
ATOM      1  C   LIG A   1     -11.985   7.699 129.661  0.00  0.00    +0.162 A 
ATOM      2  C   LIG A   1     -11.702   7.072 130.889  0.00  0.00    +0.056 A 
ATOM      3  C   LIG A   1     -10.561   6.297 130.973  0.00  0.00    -0.009 A 
ATOM      4  C   LIG A   1      -9.732   6.159 129.887  0.00  0.00    -0.013 A 
ATOM      5  C   LIG A   1      -8.790   5.290 130.540  0.00  0.00    +0.076 C 
ATOM      6  C   LIG A   1      -9.858   3.653 130.974  0.00  0.00    +0.067 C 
ATOM      7  C   LIG A   1      -9.606   3.221 132.840  0.00  0.00    +0.140 C 
ATOM      8  C   LIG A   1      -8.638   4.367 133.897  0.00  0.00    +0.004 C 
ATOM      9  C   LIG A   1      -7.983   5.628 133.578  0.00  0.00    +0.004 C 
ATOM     10  C   LIG A   1      -7.962   6.378 131.955  0.00  0.00    -0.026 C 
ATOM     11  C   LIG A   1      -6.757   6.718 131.472  0.00  0.00    -0.006 C 
ATOM     12  C   LIG A   1      -6.542   5.823 130.282  0.00  0.00    +0.113 C 
ATOM     13  N   LIG A   1      -7.572   4.738 130.228  0.00  0.00    -0.282 NA
ATOM     14  C   LIG A   1      -8.114   4.390 131.642  0.00  0.00    +0.122 C 
ATOM     15  C   LIG A   1      -9.914   5.425 132.192  0.00  0.00    +0.159 C 
ATOM     16  C   LIG A   1      -9.979   6.716 128.662  0.00  0.00    +0.055 A 
ATOM     17  C   LIG A   1     -11.144   7.488 128.532  0.00  0.00    +0.162 A 
ENDROOT
BRANCH   1  19
ATOM     18  C   LIG A   1     -13.030   9.815 129.933  0.00  0.00    +0.277 C 
ATOM     19  O   LIG A   1     -13.154   8.419 129.683  0.00  0.00    -0.491 OA
ENDBRANCH   1  19
BRANCH   7  20
ATOM     20  O   LIG A   1      -9.013   1.930 132.972  0.00  0.00    -0.388 OA
ATOM     21  H   LIG A   1      -8.993   1.712 133.920  0.00  0.00    +0.210 HD
ENDBRANCH   7  20
BRANCH  15  22
ATOM     22  O   LIG A   1     -10.130   6.462 133.211  0.00  0.00    -0.386 OA
ATOM     23  H   LIG A   1     -11.071   6.700 133.207  0.00  0.00    +0.210 HD
ENDBRANCH  15  22
BRANCH  17  24
ATOM     24  O   LIG A   1     -11.500   8.059 127.336  0.00  0.00    -0.491 OA
ATOM     25  C   LIG A   1     -12.204   7.213 126.432  0.00  0.00    +0.277 C 
ENDBRANCH  17  24
TORSDOF 4
ENDMDL
MODEL 2
REMARK VINA RESULT:      -7.1      7.886     10.645
REMARK  Name = NuBBE_163
REMARK  6 active torsions:
REMARK  status: ('A' for Active; 'I' for Inactive)
REMARK    1  A    between atoms: C_1  and  O_2
REMARK    2  A    between atoms: O_2  and  C_3
REMARK    3  A    between atoms: C_9  and  O_11
REMARK    4  A    between atoms: C_19  and  O_21
REMARK    5  A    between atoms: C_23  and  O_24
REMARK    6  A    between atoms: O_24  and  C_25
REMARK                            x       y       z     vdW  Elec       q    Type
REMARK                         _______ _______ _______ _____ _____    ______ ____
ROOT
ATOM      1  C   LIG A   1      -5.538  -1.957 128.721  0.00  0.00    +0.162 A 
ATOM      2  C   LIG A   1      -5.678  -2.382 127.387  0.00  0.00    +0.056 A 
ATOM      3  C   LIG A   1      -6.758  -1.908 126.667  0.00  0.00    -0.009 A 
ATOM      4  C   LIG A   1      -7.654  -1.043 127.244  0.00  0.00    -0.013 A 
ATOM      5  C   LIG A   1      -8.500  -0.924 126.087  0.00  0.00    +0.076 C 
ATOM      6  C   LIG A   1      -9.206  -2.776 125.809  0.00  0.00    +0.067 C 
ATOM      7  C   LIG A   1      -8.922  -3.283 123.966  0.00  0.00    +0.140 C 
ATOM      8  C   LIG A   1      -7.978  -2.155 122.868  0.00  0.00    +0.004 C 
ATOM      9  C   LIG A   1      -7.356  -0.866 123.140  0.00  0.00    +0.004 C 
ATOM     10  C   LIG A   1      -7.401  -0.031 124.719  0.00  0.00    -0.026 C 
ATOM     11  C   LIG A   1      -7.827   1.241 124.708  0.00  0.00    -0.006 C 
ATOM     12  C   LIG A   1      -9.119   1.232 125.477  0.00  0.00    +0.113 C 
ATOM     13  N   LIG A   1      -9.588  -0.167 125.730  0.00  0.00    -0.282 NA
ATOM     14  C   LIG A   1      -9.079  -1.149 124.639  0.00  0.00    +0.122 C 
ATOM     15  C   LIG A   1      -7.256  -2.172 125.134  0.00  0.00    +0.159 C 
ATOM     16  C   LIG A   1      -7.584  -0.628 128.546  0.00  0.00    +0.055 A 
ATOM     17  C   LIG A   1      -6.515  -1.110 129.316  0.00  0.00    +0.162 A 
ENDROOT
BRANCH   1  19
ATOM     18  C   LIG A   1      -4.629  -3.809 129.900  0.00  0.00    +0.277 C 
ATOM     19  O   LIG A   1      -4.448  -2.510 129.348  0.00  0.00    -0.491 OA
ENDBRANCH   1  19
BRANCH   7  20
ATOM     20  O   LIG A   1     -10.171  -3.539 123.326  0.00  0.00    -0.388 OA
ATOM     21  H   LIG A   1     -10.355  -4.490 123.413  0.00  0.00    +0.210 HD
ENDBRANCH   7  20
BRANCH  15  22
ATOM     22  O   LIG A   1      -5.915  -2.043 124.547  0.00  0.00    -0.386 OA
ATOM     23  H   LIG A   1      -5.448  -1.330 125.013  0.00  0.00    +0.210 HD
ENDBRANCH  15  22
BRANCH  17  24
ATOM     24  O   LIG A   1      -6.376  -0.783 130.641  0.00  0.00    -0.491 OA
ATOM     25  C   LIG A   1      -7.187  -1.522 131.550  0.00  0.00    +0.277 C 
ENDBRANCH  17  24
TORSDOF 4
ENDMDL
MODEL 3
REMARK VINA RESULT:      -7.0      7.271      9.112
REMARK  Name = NuBBE_163
REMARK  6 active torsions:
REMARK  status: ('A' for Active; 'I' for Inactive)
REMARK    1  A    between atoms: C_1  and  O_2
REMARK    2  A    between atoms: O_2  and  C_3
REMARK    3  A    between atoms: C_9  and  O_11
REMARK    4  A    between atoms: C_19  and  O_21
REMARK    5  A    between atoms: C_23  and  O_24
REMARK    6  A    between atoms: O_24  and  C_25
REMARK                            x       y       z     vdW  Elec       q    Type
REMARK                         _______ _______ _______ _____ _____    ______ ____
ROOT
ATOM      1  C   LIG A   1      -9.187  -2.135 125.614  0.00  0.00    +0.162 A 
ATOM      2  C   LIG A   1      -8.499  -2.942 126.538  0.00  0.00    +0.056 A 
ATOM      3  C   LIG A   1      -7.760  -2.315 127.523  0.00  0.00    -0.009 A 
ATOM      4  C   LIG A   1      -7.715  -0.945 127.593  0.00  0.00    -0.013 A 
ATOM      5  C   LIG A   1      -6.842  -0.891 128.735  0.00  0.00    +0.076 C 
ATOM      6  C   LIG A   1      -5.147  -1.739 128.091  0.00  0.00    +0.067 C 
ATOM      7  C   LIG A   1      -4.614  -3.103 129.351  0.00  0.00    +0.140 C 
ATOM      8  C   LIG A   1      -5.728  -3.505 130.752  0.00  0.00    +0.004 C 
ATOM      9  C   LIG A   1      -7.028  -2.959 131.119  0.00  0.00    +0.004 C 
ATOM     10  C   LIG A   1      -7.873  -1.663 130.224  0.00  0.00    -0.026 C 
ATOM     11  C   LIG A   1      -8.282  -0.610 130.946  0.00  0.00    -0.006 C 
ATOM     12  C   LIG A   1      -7.468   0.552 130.447  0.00  0.00    +0.113 C 
ATOM     13  N   LIG A   1      -6.353   0.090 129.561  0.00  0.00    -0.282 NA
ATOM     14  C   LIG A   1      -5.903  -1.355 129.911  0.00  0.00    +0.122 C 
ATOM     15  C   LIG A   1      -6.840  -2.894 128.741  0.00  0.00    +0.159 C 
ATOM     16  C   LIG A   1      -8.335  -0.114 126.700  0.00  0.00    +0.055 A 
ATOM     17  C   LIG A   1      -9.072  -0.716 125.669  0.00  0.00    +0.162 A 
ENDROOT
BRANCH   1  19
ATOM     18  C   LIG A   1      -9.127  -3.224 123.504  0.00  0.00    +0.277 C 
ATOM     19  O   LIG A   1      -9.864  -2.861 124.666  0.00  0.00    -0.491 OA
ENDBRANCH   1  19
BRANCH   7  20
ATOM     20  O   LIG A   1      -3.339  -2.789 129.909  0.00  0.00    -0.388 OA
ATOM     21  H   LIG A   1      -2.903  -3.627 130.137  0.00  0.00    +0.210 HD
ENDBRANCH   7  20
BRANCH  15  22
ATOM     22  O   LIG A   1      -7.807  -3.925 129.144  0.00  0.00    -0.386 OA
ATOM     23  H   LIG A   1      -8.653  -3.733 128.709  0.00  0.00    +0.210 HD
ENDBRANCH  15  22
BRANCH  17  24
ATOM     24  O   LIG A   1      -9.701   0.027 124.703  0.00  0.00    -0.491 OA
ATOM     25  C   LIG A   1      -8.866   0.511 123.654  0.00  0.00    +0.277 C 
ENDBRANCH  17  24
TORSDOF 4
ENDMDL
MODEL 4
REMARK VINA RESULT:      -7.0      8.502     11.175
REMARK  Name = NuBBE_163
REMARK  6 active torsions:
REMARK  status: ('A' for Active; 'I' for Inactive)
REMARK    1  A    between atoms: C_1  and  O_2
REMARK    2  A    between atoms: O_2  and  C_3
REMARK    3  A    between atoms: C_9  and  O_11
REMARK    4  A    between atoms: C_19  and  O_21
REMARK    5  A    between atoms: C_23  and  O_24
REMARK    6  A    between atoms: O_24  and  C_25
REMARK                            x       y       z     vdW  Elec       q    Type
REMARK                         _______ _______ _______ _____ _____    ______ ____
ROOT
ATOM      1  C   LIG A   1      -6.933  -2.825 129.405  0.00  0.00    +0.162 A 
ATOM      2  C   LIG A   1      -7.921  -2.661 128.417  0.00  0.00    +0.056 A 
ATOM      3  C   LIG A   1      -7.513  -2.310 127.145  0.00  0.00    -0.009 A 
ATOM      4  C   LIG A   1      -6.180  -2.138 126.865  0.00  0.00    -0.013 A 
ATOM      5  C   LIG A   1      -6.372  -1.793 125.481  0.00  0.00    +0.076 C 
ATOM      6  C   LIG A   1      -7.425  -0.092 125.546  0.00  0.00    +0.067 C 
ATOM      7  C   LIG A   1      -8.964  -0.267 124.391  0.00  0.00    +0.140 C 
ATOM      8  C   LIG A   1      -9.301  -1.885 123.596  0.00  0.00    +0.004 C 
ATOM      9  C   LIG A   1      -8.585  -3.151 123.678  0.00  0.00    +0.004 C 
ATOM     10  C   LIG A   1      -7.094  -3.413 124.628  0.00  0.00    -0.026 C 
ATOM     11  C   LIG A   1      -6.056  -3.952 123.971  0.00  0.00    -0.006 C 
ATOM     12  C   LIG A   1      -5.003  -2.878 123.947  0.00  0.00    +0.113 C 
ATOM     13  N   LIG A   1      -5.561  -1.563 124.397  0.00  0.00    -0.282 NA
ATOM     14  C   LIG A   1      -7.085  -1.461 124.117  0.00  0.00    +0.122 C 
ATOM     15  C   LIG A   1      -8.340  -2.025 125.767  0.00  0.00    +0.159 C 
ATOM     16  C   LIG A   1      -5.183  -2.250 127.795  0.00  0.00    +0.055 A 
ATOM     17  C   LIG A   1      -5.563  -2.579 129.104  0.00  0.00    +0.162 A 
ENDROOT
BRANCH   1  19
ATOM     18  C   LIG A   1      -7.649  -2.066 131.539  0.00  0.00    +0.277 C 
ATOM     19  O   LIG A   1      -7.452  -3.147 130.636  0.00  0.00    -0.491 OA
ENDBRANCH   1  19
BRANCH   7  20
ATOM     20  O   LIG A   1      -8.913   0.707 123.350  0.00  0.00    -0.388 OA
ATOM     21  H   LIG A   1      -9.777   0.705 122.904  0.00  0.00    +0.210 HD
ENDBRANCH   7  20
BRANCH  15  22
ATOM     22  O   LIG A   1      -9.231  -3.185 125.918  0.00  0.00    -0.386 OA
ATOM     23  H   LIG A   1      -9.796  -3.033 126.693  0.00  0.00    +0.210 HD
ENDBRANCH  15  22
BRANCH  17  24
ATOM     24  O   LIG A   1      -4.644  -2.680 130.118  0.00  0.00    -0.491 OA
ATOM     25  C   LIG A   1      -3.435  -3.360 129.793  0.00  0.00    +0.277 C 
ENDBRANCH  17  24
TORSDOF 4
ENDMDL
MODEL 5
REMARK VINA RESULT:      -6.6      7.682      9.432
REMARK  Name = NuBBE_163
REMARK  6 active torsions:
REMARK  status: ('A' for Active; 'I' for Inactive)
REMARK    1  A    between atoms: C_1  and  O_2
REMARK    2  A    between atoms: O_2  and  C_3
REMARK    3  A    between atoms: C_9  and  O_11
REMARK    4  A    between atoms: C_19  and  O_21
REMARK    5  A    between atoms: C_23  and  O_24
REMARK    6  A    between atoms: O_24  and  C_25
REMARK                            x       y       z     vdW  Elec       q    Type
REMARK                         _______ _______ _______ _____ _____    ______ ____
ROOT
ATOM      1  C   LIG A   1      -8.364   2.572 126.006  0.00  0.00    +0.162 A 
ATOM      2  C   LIG A   1      -8.114   1.697 124.933  0.00  0.00    +0.056 A 
ATOM      3  C   LIG A   1      -7.797   0.385 125.228  0.00  0.00    -0.009 A 
ATOM      4  C   LIG A   1      -7.741  -0.041 126.532  0.00  0.00    -0.013 A 
ATOM      5  C   LIG A   1      -7.378  -1.398 126.221  0.00  0.00    +0.076 C 
ATOM      6  C   LIG A   1      -5.592  -1.232 125.332  0.00  0.00    +0.067 C 
ATOM      7  C   LIG A   1      -5.631  -2.210 123.666  0.00  0.00    +0.140 C 
ATOM      8  C   LIG A   1      -7.213  -2.951 123.105  0.00  0.00    +0.004 C 
ATOM      9  C   LIG A   1      -8.537  -2.938 123.715  0.00  0.00    +0.004 C 
ATOM     10  C   LIG A   1      -8.928  -2.154 125.273  0.00  0.00    -0.026 C 
ATOM     11  C   LIG A   1      -9.554  -2.916 126.182  0.00  0.00    -0.006 C 
ATOM     12  C   LIG A   1      -8.575  -3.064 127.314  0.00  0.00    +0.113 C 
ATOM     13  N   LIG A   1      -7.218  -2.566 126.925  0.00  0.00    -0.282 NA
ATOM     14  C   LIG A   1      -6.983  -2.679 125.394  0.00  0.00    +0.122 C 
ATOM     15  C   LIG A   1      -7.439  -0.898 124.283  0.00  0.00    +0.159 C 
ATOM     16  C   LIG A   1      -7.940   0.775 127.612  0.00  0.00    +0.055 A 
ATOM     17  C   LIG A   1      -8.237   2.121 127.351  0.00  0.00    +0.162 A 
ENDROOT
BRANCH   1  19
ATOM     18  C   LIG A   1      -7.529   4.732 125.478  0.00  0.00    +0.277 C 
ATOM     19  O   LIG A   1      -8.642   3.854 125.599  0.00  0.00    -0.491 OA
ENDBRANCH   1  19
BRANCH   7  20
ATOM     20  O   LIG A   1      -4.664  -3.259 123.686  0.00  0.00    -0.388 OA
ATOM     21  H   LIG A   1      -4.185  -3.200 124.531  0.00  0.00    +0.210 HD
ENDBRANCH   7  20
BRANCH  15  22
ATOM     22  O   LIG A   1      -8.517  -0.640 123.317  0.00  0.00    -0.386 OA
ATOM     23  H   LIG A   1      -8.470   0.293 123.052  0.00  0.00    +0.210 HD
ENDBRANCH  15  22
BRANCH  17  24
ATOM     24  O   LIG A   1      -8.418   3.029 128.363  0.00  0.00    -0.491 OA
ATOM     25  C   LIG A   1      -9.090   2.540 129.521  0.00  0.00    +0.277 C 
ENDBRANCH  17  24
TORSDOF 4
ENDMDL
MODEL 6
REMARK VINA RESULT:      -6.6      7.679      9.360
REMARK  Name = NuBBE_163
REMARK  6 active torsions:
REMARK  status: ('A' for Active; 'I' for Inactive)
REMARK    1  A    between atoms: C_1  and  O_2
REMARK    2  A    between atoms: O_2  and  C_3
REMARK    3  A    between atoms: C_9  and  O_11
REMARK    4  A    between atoms: C_19  and  O_21
REMARK    5  A    between atoms: C_23  and  O_24
REMARK    6  A    between atoms: O_24  and  C_25
REMARK                            x       y       z     vdW  Elec       q    Type
REMARK                         _______ _______ _______ _____ _____    ______ ____
ROOT
ATOM      1  C   LIG A   1      -6.188   2.916 124.539  0.00  0.00    +0.162 A 
ATOM      2  C   LIG A   1      -6.934   1.770 124.208  0.00  0.00    +0.056 A 
ATOM      3  C   LIG A   1      -6.702   0.615 124.929  0.00  0.00    -0.009 A 
ATOM      4  C   LIG A   1      -5.775   0.602 125.943  0.00  0.00    -0.013 A 
ATOM      5  C   LIG A   1      -5.962  -0.782 126.285  0.00  0.00    +0.076 C 
ATOM      6  C   LIG A   1      -5.396  -1.771 124.640  0.00  0.00    +0.067 C 
ATOM      7  C   LIG A   1      -6.783  -3.026 124.158  0.00  0.00    +0.140 C 
ATOM      8  C   LIG A   1      -8.358  -3.019 125.100  0.00  0.00    +0.004 C 
ATOM      9  C   LIG A   1      -8.793  -2.188 126.214  0.00  0.00    +0.004 C 
ATOM     10  C   LIG A   1      -7.800  -0.912 126.977  0.00  0.00    -0.026 C 
ATOM     11  C   LIG A   1      -7.666  -0.978 128.309  0.00  0.00    -0.006 C 
ATOM     12  C   LIG A   1      -6.209  -1.262 128.546  0.00  0.00    +0.113 C 
ATOM     13  N   LIG A   1      -5.514  -1.626 127.271  0.00  0.00    -0.282 NA
ATOM     14  C   LIG A   1      -6.493  -2.265 126.247  0.00  0.00    +0.122 C 
ATOM     15  C   LIG A   1      -7.344  -0.883 124.839  0.00  0.00    +0.159 C 
ATOM     16  C   LIG A   1      -4.999   1.676 126.281  0.00  0.00    +0.055 A 
ATOM     17  C   LIG A   1      -5.188   2.860 125.551  0.00  0.00    +0.162 A 
ENDROOT
BRANCH   1  19
ATOM     18  C   LIG A   1      -6.101   3.891 122.374  0.00  0.00    +0.277 C 
ATOM     19  O   LIG A   1      -6.481   3.996 123.741  0.00  0.00    -0.491 OA
ENDBRANCH   1  19
BRANCH   7  20
ATOM     20  O   LIG A   1      -6.279  -4.360 124.199  0.00  0.00    -0.388 OA
ATOM     21  H   LIG A   1      -5.897  -4.502 125.082  0.00  0.00    +0.210 HD
ENDBRANCH   7  20
BRANCH  15  22
ATOM     22  O   LIG A   1      -8.730  -0.413 124.702  0.00  0.00    -0.386 OA
ATOM     23  H   LIG A   1      -9.319  -1.182 124.763  0.00  0.00    +0.210 HD
ENDBRANCH  15  22
BRANCH  17  24
ATOM     24  O   LIG A   1      -4.435   3.982 125.788  0.00  0.00    -0.491 OA
ATOM     25  C   LIG A   1      -4.797   4.738 126.940  0.00  0.00    +0.277 C 
ENDBRANCH  17  24
TORSDOF 4
ENDMDL
MODEL 7
REMARK VINA RESULT:      -6.4      2.042      3.215
REMARK  Name = NuBBE_163
REMARK  6 active torsions:
REMARK  status: ('A' for Active; 'I' for Inactive)
REMARK    1  A    between atoms: C_1  and  O_2
REMARK    2  A    between atoms: O_2  and  C_3
REMARK    3  A    between atoms: C_9  and  O_11
REMARK    4  A    between atoms: C_19  and  O_21
REMARK    5  A    between atoms: C_23  and  O_24
REMARK    6  A    between atoms: O_24  and  C_25
REMARK                            x       y       z     vdW  Elec       q    Type
REMARK                         _______ _______ _______ _____ _____    ______ ____
ROOT
ATOM      1  C   LIG A   1     -10.741   7.552 129.671  0.00  0.00    +0.162 A 
ATOM      2  C   LIG A   1      -9.392   7.291 129.975  0.00  0.00    +0.056 A 
ATOM      3  C   LIG A   1      -9.113   6.255 130.846  0.00  0.00    -0.009 A 
ATOM      4  C   LIG A   1     -10.130   5.505 131.384  0.00  0.00    -0.013 A 
ATOM      5  C   LIG A   1      -9.275   4.650 132.163  0.00  0.00    +0.076 C 
ATOM      6  C   LIG A   1      -8.395   5.895 133.461  0.00  0.00    +0.067 C 
ATOM      7  C   LIG A   1      -6.485   5.608 133.404  0.00  0.00    +0.140 C 
ATOM      8  C   LIG A   1      -5.796   4.452 132.157  0.00  0.00    +0.004 C 
ATOM      9  C   LIG A   1      -6.457   3.658 131.130  0.00  0.00    +0.004 C 
ATOM     10  C   LIG A   1      -8.223   3.621 130.856  0.00  0.00    -0.026 C 
ATOM     11  C   LIG A   1      -8.796   2.409 130.826  0.00  0.00    -0.006 C 
ATOM     12  C   LIG A   1      -9.697   2.368 132.029  0.00  0.00    +0.113 C 
ATOM     13  N   LIG A   1      -9.439   3.529 132.939  0.00  0.00    -0.282 NA
ATOM     14  C   LIG A   1      -7.977   4.040 132.815  0.00  0.00    +0.122 C 
ATOM     15  C   LIG A   1      -7.709   5.665 131.436  0.00  0.00    +0.159 C 
ATOM     16  C   LIG A   1     -11.457   5.739 131.150  0.00  0.00    +0.055 A 
ATOM     17  C   LIG A   1     -11.779   6.801 130.292  0.00  0.00    +0.162 A 
ENDROOT
BRANCH   1  19
ATOM     18  C   LIG A   1     -10.783   8.338 127.430  0.00  0.00    +0.277 C 
ATOM     19  O   LIG A   1     -10.902   8.618 128.820  0.00  0.00    -0.491 OA
ENDBRANCH   1  19
BRANCH   7  20
ATOM     20  O   LIG A   1      -6.012   5.178 134.679  0.00  0.00    -0.388 OA
ATOM     21  H   LIG A   1      -6.195   5.889 135.315  0.00  0.00    +0.210 HD
ENDBRANCH   7  20
BRANCH  15  22
ATOM     22  O   LIG A   1      -7.011   5.697 130.143  0.00  0.00    -0.386 OA
ATOM     23  H   LIG A   1      -6.058   5.634 130.312  0.00  0.00    +0.210 HD
ENDBRANCH  15  22
BRANCH  17  24
ATOM     24  O   LIG A   1     -13.081   7.140 130.022  0.00  0.00    -0.491 OA
ATOM     25  C   LIG A   1     -13.585   6.708 128.762  0.00  0.00    +0.277 C 
ENDBRANCH  17  24
TORSDOF 4
ENDMDL
MODEL 8
REMARK VINA RESULT:      -6.3      3.647      6.042
REMARK  Name = NuBBE_163
REMARK  6 active torsions:
REMARK  status: ('A' for Active; 'I' for Inactive)
REMARK    1  A    between atoms: C_1  and  O_2
REMARK    2  A    between atoms: O_2  and  C_3
REMARK    3  A    between atoms: C_9  and  O_11
REMARK    4  A    between atoms: C_19  and  O_21
REMARK    5  A    between atoms: C_23  and  O_24
REMARK    6  A    between atoms: O_24  and  C_25
REMARK                            x       y       z     vdW  Elec       q    Type
REMARK                         _______ _______ _______ _____ _____    ______ ____
ROOT
ATOM      1  C   LIG A   1      -8.253   6.388 131.617  0.00  0.00    +0.162 A 
ATOM      2  C   LIG A   1      -7.081   6.856 130.995  0.00  0.00    +0.056 A 
ATOM      3  C   LIG A   1      -5.892   6.219 131.291  0.00  0.00    -0.009 A 
ATOM      4  C   LIG A   1      -5.869   5.157 132.160  0.00  0.00    -0.013 A 
ATOM      5  C   LIG A   1      -4.449   4.941 132.079  0.00  0.00    +0.076 C 
ATOM      6  C   LIG A   1      -3.658   6.625 132.818  0.00  0.00    +0.067 C 
ATOM      7  C   LIG A   1      -2.337   7.291 131.576  0.00  0.00    +0.140 C 
ATOM      8  C   LIG A   1      -2.130   6.448 129.959  0.00  0.00    +0.004 C 
ATOM      9  C   LIG A   1      -2.821   5.297 129.393  0.00  0.00    +0.004 C 
ATOM     10  C   LIG A   1      -4.105   4.374 130.226  0.00  0.00    -0.026 C 
ATOM     11  C   LIG A   1      -3.935   3.046 130.295  0.00  0.00    -0.006 C 
ATOM     12  C   LIG A   1      -3.755   2.746 131.757  0.00  0.00    +0.113 C 
ATOM     13  N   LIG A   1      -3.563   4.002 132.548  0.00  0.00    -0.282 NA
ATOM     14  C   LIG A   1      -2.936   5.132 131.686  0.00  0.00    +0.122 C 
ATOM     15  C   LIG A   1      -4.358   6.471 130.791  0.00  0.00    +0.159 C 
ATOM     16  C   LIG A   1      -6.971   4.685 132.818  0.00  0.00    +0.055 A 
ATOM     17  C   LIG A   1      -8.193   5.325 132.563  0.00  0.00    +0.162 A 
ENDROOT
BRANCH   1  19
ATOM     18  C   LIG A   1      -9.798   7.000 129.920  0.00  0.00    +0.277 C 
ATOM     19  O   LIG A   1      -9.370   7.110 131.272  0.00  0.00    -0.491 OA
ENDBRANCH   1  19
BRANCH   7  20
ATOM     20  O   LIG A   1      -1.052   7.328 132.194  0.00  0.00    -0.388 OA
ATOM     21  H   LIG A   1      -0.405   7.577 131.512  0.00  0.00    +0.210 HD
ENDBRANCH   7  20
BRANCH  15  22
ATOM     22  O   LIG A   1      -4.720   6.652 129.377  0.00  0.00    -0.386 OA
ATOM     23  H   LIG A   1      -4.269   7.446 129.049  0.00  0.00    +0.210 HD
ENDBRANCH  15  22
BRANCH  17  24
ATOM     24  O   LIG A   1      -9.350   4.952 133.199  0.00  0.00    -0.491 OA
ATOM     25  C   LIG A   1      -9.307   3.700 133.878  0.00  0.00    +0.277 C 
ENDBRANCH  17  24
TORSDOF 4
ENDMDL
MODEL 9
REMARK VINA RESULT:      -6.3      7.278      8.887
REMARK  Name = NuBBE_163
REMARK  6 active torsions:
REMARK  status: ('A' for Active; 'I' for Inactive)
REMARK    1  A    between atoms: C_1  and  O_2
REMARK    2  A    between atoms: O_2  and  C_3
REMARK    3  A    between atoms: C_9  and  O_11
REMARK    4  A    between atoms: C_19  and  O_21
REMARK    5  A    between atoms: C_23  and  O_24
REMARK    6  A    between atoms: O_24  and  C_25
REMARK                            x       y       z     vdW  Elec       q    Type
REMARK                         _______ _______ _______ _____ _____    ______ ____
ROOT
ATOM      1  C   LIG A   1      -8.316  -0.859 126.027  0.00  0.00    +0.162 A 
ATOM      2  C   LIG A   1      -7.584  -0.184 127.021  0.00  0.00    +0.056 A 
ATOM      3  C   LIG A   1      -7.326  -0.853 128.202  0.00  0.00    -0.009 A 
ATOM      4  C   LIG A   1      -7.768  -2.140 128.384  0.00  0.00    -0.013 A 
ATOM      5  C   LIG A   1      -7.241  -2.283 129.715  0.00  0.00    +0.076 C 
ATOM      6  C   LIG A   1      -8.237  -0.912 130.781  0.00  0.00    +0.067 C 
ATOM      7  C   LIG A   1      -6.965   0.155 131.768  0.00  0.00    +0.140 C 
ATOM      8  C   LIG A   1      -5.171  -0.109 131.486  0.00  0.00    +0.004 C 
ATOM      9  C   LIG A   1      -4.476  -1.029 130.595  0.00  0.00    +0.004 C 
ATOM     10  C   LIG A   1      -5.284  -2.205 129.519  0.00  0.00    -0.026 C 
ATOM     11  C   LIG A   1      -4.875  -3.478 129.614  0.00  0.00    -0.006 C 
ATOM     12  C   LIG A   1      -6.057  -4.234 130.153  0.00  0.00    +0.113 C 
ATOM     13  N   LIG A   1      -7.126  -3.300 130.629  0.00  0.00    -0.282 NA
ATOM     14  C   LIG A   1      -6.535  -1.936 131.079  0.00  0.00    +0.122 C 
ATOM     15  C   LIG A   1      -6.537  -0.414 129.563  0.00  0.00    +0.159 C 
ATOM     16  C   LIG A   1      -8.513  -2.828 127.466  0.00  0.00    +0.055 A 
ATOM     17  C   LIG A   1      -8.817  -2.170 126.265  0.00  0.00    +0.162 A 
ENDROOT
BRANCH   1  19
ATOM     18  C   LIG A   1      -7.504  -0.093 123.930  0.00  0.00    +0.277 C 
ATOM     19  O   LIG A   1      -8.536  -0.091 124.909  0.00  0.00    -0.491 OA
ENDBRANCH   1  19
BRANCH   7  20
ATOM     20  O   LIG A   1      -7.190   0.021 133.171  0.00  0.00    -0.388 OA
ATOM     21  H   LIG A   1      -6.598  -0.678 133.497  0.00  0.00    +0.210 HD
ENDBRANCH   7  20
BRANCH  15  22
ATOM     22  O   LIG A   1      -5.410   0.209 128.853  0.00  0.00    -0.386 OA
ATOM     23  H   LIG A   1      -4.611   0.091 129.391  0.00  0.00    +0.210 HD
ENDBRANCH  15  22
BRANCH  17  24
ATOM     24  O   LIG A   1      -9.589  -2.759 125.295  0.00  0.00    -0.491 OA
ATOM     25  C   LIG A   1      -8.890  -3.566 124.352  0.00  0.00    +0.277 C 
ENDBRANCH  17  24
TORSDOF 4
ENDMDL
