MODEL 1
REMARK VINA RESULT:      -6.0      0.000      0.000
REMARK  Name = NuBBE_963
REMARK  20 active torsions:
REMARK  status: ('A' for Active; 'I' for Inactive)
REMARK    1  A    between atoms: C_1  and  C_2
REMARK    2  A    between atoms: C_6  and  C_8
REMARK    3  A    between atoms: C_8  and  C_9
REMARK    4  A    between atoms: C_9  and  C_10
REMARK    5  A    between atoms: C_10  and  C_11
REMARK    6  A    between atoms: C_11  and  C_12
REMARK    7  A    between atoms: C_12  and  C_13
REMARK    8  A    between atoms: C_13  and  C_14
REMARK    9  A    between atoms: C_14  and  C_15
REMARK   10  A    between atoms: C_15  and  C_16
REMARK   11  A    between atoms: C_16  and  C_17
REMARK   12  A    between atoms: C_17  and  C_18
REMARK   13  A    between atoms: C_18  and  C_19
REMARK   14  A    between atoms: C_19  and  C_20
REMARK   15  A    between atoms: C_20  and  C_21
REMARK   16  A    between atoms: C_21  and  C_22
REMARK   17  A    between atoms: C_22  and  C_23
REMARK   18  A    between atoms: C_23  and  C_24
REMARK   19  A    between atoms: C_24  and  C_25
REMARK   20  A    between atoms: C_31  and  O_33
REMARK                            x       y       z     vdW  Elec       q    Type
REMARK                         _______ _______ _______ _____ _____    ______ ____
ROOT
ATOM      1  C   LIG A   1      -6.777  -0.998 122.980  0.00  0.00    -0.000 C 
ENDROOT
BRANCH   1   2
ATOM      2  C   LIG A   1      -8.314  -1.235 123.113  0.00  0.00    -0.000 C 
BRANCH   2   3
ATOM      3  C   LIG A   1      -8.842  -2.669 123.071  0.00  0.00    -0.000 C 
BRANCH   3   4
ATOM      4  C   LIG A   1      -9.187  -3.539 124.262  0.00  0.00    -0.000 C 
BRANCH   4   5
ATOM      5  C   LIG A   1      -9.233  -2.651 125.542  0.00  0.00    -0.000 C 
BRANCH   5   6
ATOM      6  C   LIG A   1      -9.511  -3.348 126.917  0.00  0.00    -0.000 C 
BRANCH   6   7
ATOM      7  C   LIG A   1      -8.475  -4.002 127.950  0.00  0.00    -0.000 C 
BRANCH   7   8
ATOM      8  C   LIG A   1      -7.356  -3.185 128.716  0.00  0.00    +0.000 C 
BRANCH   8   9
ATOM      9  C   LIG A   1      -7.640  -2.618 130.149  0.00  0.00    +0.000 C 
BRANCH   9  10
ATOM     10  C   LIG A   1      -8.115  -1.097 130.295  0.00  0.00    +0.005 C 
BRANCH  10  11
ATOM     11  C   LIG A   1      -7.035  -0.018 130.562  0.00  0.00    +0.035 C 
BRANCH  11  12
ATOM     12  C   LIG A   1      -7.380   1.424 130.142  0.00  0.00    -0.047 A 
ATOM     13  C   LIG A   1      -6.341   2.293 129.761  0.00  0.00    +0.003 A 
ATOM     14  C   LIG A   1      -6.562   3.594 129.283  0.00  0.00    +0.000 A 
ATOM     15  C   LIG A   1      -7.853   4.092 129.217  0.00  0.00    +0.000 A 
ATOM     16  C   LIG A   1      -8.911   3.259 129.590  0.00  0.00    +0.000 A 
ATOM     17  C   LIG A   1      -8.684   1.930 130.029  0.00  0.00    +0.003 A 
ENDBRANCH  11  12
ENDBRANCH  10  11
ENDBRANCH   9  10
ENDBRANCH   8   9
ENDBRANCH   7   8
ENDBRANCH   6   7
ENDBRANCH   5   6
ENDBRANCH   4   5
ENDBRANCH   3   4
ENDBRANCH   2   3
ENDBRANCH   1   2
BRANCH   1  18
ATOM     18  C   LIG A   1      -5.892  -2.012 123.816  0.00  0.00    -0.000 C 
BRANCH  18  19
ATOM     19  C   LIG A   1      -5.705  -1.795 125.341  0.00  0.00    -0.000 C 
BRANCH  19  20
ATOM     20  C   LIG A   1      -5.846  -0.308 125.877  0.00  0.00    -0.000 C 
BRANCH  20  21
ATOM     21  C   LIG A   1      -7.077   0.030 126.752  0.00  0.00    +0.000 C 
BRANCH  21  22
ATOM     22  C   LIG A   1      -7.788   1.413 126.461  0.00  0.00    +0.001 C 
BRANCH  22  23
ATOM     23  C   LIG A   1      -8.802   1.458 125.277  0.00  0.00    +0.017 C 
BRANCH  23  28
ATOM     24  C   LIG A   1      -5.922   3.773 122.252  0.00  0.00    +0.055 C 
ATOM     25  C   LIG A   1      -6.720   3.144 123.425  0.00  0.00    +0.203 C 
ATOM     26  O   LIG A   1      -6.941   4.074 124.465  0.00  0.00    -0.459 OA
ATOM     27  C   LIG A   1      -8.209   3.964 124.990  0.00  0.00    +0.313 C 
ATOM     28  C   LIG A   1      -8.862   2.785 124.416  0.00  0.00    +0.130 C 
ATOM     29  C   LIG A   1      -8.110   2.670 123.076  0.00  0.00    +0.168 C 
ATOM     30  O   LIG A   1      -8.701   4.761 125.844  0.00  0.00    -0.250 OA
BRANCH  29  31
ATOM     31  O   LIG A   1      -8.714   3.547 122.118  0.00  0.00    -0.387 OA
ATOM     32  H   LIG A   1      -9.087   3.022 121.391  0.00  0.00    +0.210 HD
ENDBRANCH  29  31
ENDBRANCH  23  28
ENDBRANCH  22  23
ENDBRANCH  21  22
ENDBRANCH  20  21
ENDBRANCH  19  20
ENDBRANCH  18  19
ENDBRANCH   1  18
TORSDOF 19
ENDMDL
MODEL 2
REMARK VINA RESULT:      -5.9      2.198      4.651
REMARK  Name = NuBBE_963
REMARK  20 active torsions:
REMARK  status: ('A' for Active; 'I' for Inactive)
REMARK    1  A    between atoms: C_1  and  C_2
REMARK    2  A    between atoms: C_6  and  C_8
REMARK    3  A    between atoms: C_8  and  C_9
REMARK    4  A    between atoms: C_9  and  C_10
REMARK    5  A    between atoms: C_10  and  C_11
REMARK    6  A    between atoms: C_11  and  C_12
REMARK    7  A    between atoms: C_12  and  C_13
REMARK    8  A    between atoms: C_13  and  C_14
REMARK    9  A    between atoms: C_14  and  C_15
REMARK   10  A    between atoms: C_15  and  C_16
REMARK   11  A    between atoms: C_16  and  C_17
REMARK   12  A    between atoms: C_17  and  C_18
REMARK   13  A    between atoms: C_18  and  C_19
REMARK   14  A    between atoms: C_19  and  C_20
REMARK   15  A    between atoms: C_20  and  C_21
REMARK   16  A    between atoms: C_21  and  C_22
REMARK   17  A    between atoms: C_22  and  C_23
REMARK   18  A    between atoms: C_23  and  C_24
REMARK   19  A    between atoms: C_24  and  C_25
REMARK   20  A    between atoms: C_31  and  O_33
REMARK                            x       y       z     vdW  Elec       q    Type
REMARK                         _______ _______ _______ _____ _____    ______ ____
ROOT
ATOM      1  C   LIG A   1      -9.343   0.633 123.427  0.00  0.00    -0.000 C 
ENDROOT
BRANCH   1   2
ATOM      2  C   LIG A   1      -9.676  -0.677 122.647  0.00  0.00    -0.000 C 
BRANCH   2   3
ATOM      3  C   LIG A   1      -8.880  -1.943 122.963  0.00  0.00    -0.000 C 
BRANCH   3   4
ATOM      4  C   LIG A   1      -9.428  -3.234 123.536  0.00  0.00    -0.000 C 
BRANCH   4   5
ATOM      5  C   LIG A   1      -8.559  -3.655 124.759  0.00  0.00    -0.000 C 
BRANCH   5   6
ATOM      6  C   LIG A   1      -8.965  -3.121 126.175  0.00  0.00    -0.000 C 
BRANCH   6   7
ATOM      7  C   LIG A   1      -8.973  -3.885 127.583  0.00  0.00    -0.000 C 
BRANCH   7   8
ATOM      8  C   LIG A   1      -8.461  -3.246 128.938  0.00  0.00    +0.000 C 
BRANCH   8   9
ATOM      9  C   LIG A   1      -7.115  -3.734 129.576  0.00  0.00    +0.000 C 
BRANCH   9  10
ATOM     10  C   LIG A   1      -5.938  -2.672 129.796  0.00  0.00    +0.005 C 
BRANCH  10  11
ATOM     11  C   LIG A   1      -4.901  -2.485 128.660  0.00  0.00    +0.035 C 
BRANCH  11  12
ATOM     12  C   LIG A   1      -5.398  -1.790 127.378  0.00  0.00    -0.047 A 
ATOM     13  C   LIG A   1      -5.944  -0.497 127.469  0.00  0.00    +0.003 A 
ATOM     14  C   LIG A   1      -6.344   0.250 126.349  0.00  0.00    +0.000 A 
ATOM     15  C   LIG A   1      -6.254  -0.306 125.084  0.00  0.00    +0.000 A 
ATOM     16  C   LIG A   1      -5.719  -1.590 124.954  0.00  0.00    +0.000 A 
ATOM     17  C   LIG A   1      -5.274  -2.321 126.085  0.00  0.00    +0.003 A 
ENDBRANCH  11  12
ENDBRANCH  10  11
ENDBRANCH   9  10
ENDBRANCH   8   9
ENDBRANCH   7   8
ENDBRANCH   6   7
ENDBRANCH   5   6
ENDBRANCH   4   5
ENDBRANCH   3   4
ENDBRANCH   2   3
ENDBRANCH   1   2
BRANCH   1  18
ATOM     18  C   LIG A   1      -9.488   1.954 122.563  0.00  0.00    -0.000 C 
BRANCH  18  19
ATOM     19  C   LIG A   1      -8.355   3.014 122.580  0.00  0.00    -0.000 C 
BRANCH  19  20
ATOM     20  C   LIG A   1      -7.118   2.726 123.531  0.00  0.00    -0.000 C 
BRANCH  20  21
ATOM     21  C   LIG A   1      -6.928   3.641 124.764  0.00  0.00    +0.000 C 
BRANCH  21  22
ATOM     22  C   LIG A   1      -5.532   4.376 124.886  0.00  0.00    +0.001 C 
BRANCH  22  23
ATOM     23  C   LIG A   1      -4.375   3.596 125.584  0.00  0.00    +0.017 C 
BRANCH  23  28
ATOM     24  C   LIG A   1      -6.433   3.042 129.857  0.00  0.00    +0.055 C 
ATOM     25  C   LIG A   1      -5.922   3.434 128.445  0.00  0.00    +0.203 C 
ATOM     26  O   LIG A   1      -5.809   4.835 128.300  0.00  0.00    -0.459 OA
ATOM     27  C   LIG A   1      -4.672   5.187 127.607  0.00  0.00    +0.313 C 
ATOM     28  C   LIG A   1      -4.038   3.976 127.084  0.00  0.00    +0.130 C 
ATOM     29  C   LIG A   1      -4.541   2.932 128.098  0.00  0.00    +0.168 C 
ATOM     30  O   LIG A   1      -4.272   6.380 127.450  0.00  0.00    -0.250 OA
BRANCH  29  31
ATOM     31  O   LIG A   1      -3.695   2.949 129.254  0.00  0.00    -0.387 OA
ATOM     32  H   LIG A   1      -4.052   2.342 129.922  0.00  0.00    +0.210 HD
ENDBRANCH  29  31
ENDBRANCH  23  28
ENDBRANCH  22  23
ENDBRANCH  21  22
ENDBRANCH  20  21
ENDBRANCH  19  20
ENDBRANCH  18  19
ENDBRANCH   1  18
TORSDOF 19
ENDMDL
MODEL 3
REMARK VINA RESULT:      -5.8      3.245      7.960
REMARK  Name = NuBBE_963
REMARK  20 active torsions:
REMARK  status: ('A' for Active; 'I' for Inactive)
REMARK    1  A    between atoms: C_1  and  C_2
REMARK    2  A    between atoms: C_6  and  C_8
REMARK    3  A    between atoms: C_8  and  C_9
REMARK    4  A    between atoms: C_9  and  C_10
REMARK    5  A    between atoms: C_10  and  C_11
REMARK    6  A    between atoms: C_11  and  C_12
REMARK    7  A    between atoms: C_12  and  C_13
REMARK    8  A    between atoms: C_13  and  C_14
REMARK    9  A    between atoms: C_14  and  C_15
REMARK   10  A    between atoms: C_15  and  C_16
REMARK   11  A    between atoms: C_16  and  C_17
REMARK   12  A    between atoms: C_17  and  C_18
REMARK   13  A    between atoms: C_18  and  C_19
REMARK   14  A    between atoms: C_19  and  C_20
REMARK   15  A    between atoms: C_20  and  C_21
REMARK   16  A    between atoms: C_21  and  C_22
REMARK   17  A    between atoms: C_22  and  C_23
REMARK   18  A    between atoms: C_23  and  C_24
REMARK   19  A    between atoms: C_24  and  C_25
REMARK   20  A    between atoms: C_31  and  O_33
REMARK                            x       y       z     vdW  Elec       q    Type
REMARK                         _______ _______ _______ _____ _____    ______ ____
ROOT
ATOM      1  C   LIG A   1      -6.790   2.342 128.695  0.00  0.00    -0.000 C 
ENDROOT
BRANCH   1   2
ATOM      2  C   LIG A   1      -5.501   3.211 128.549  0.00  0.00    -0.000 C 
BRANCH   2   3
ATOM      3  C   LIG A   1      -4.339   2.666 127.719  0.00  0.00    -0.000 C 
BRANCH   3   4
ATOM      4  C   LIG A   1      -4.248   2.630 126.208  0.00  0.00    -0.000 C 
BRANCH   4   5
ATOM      5  C   LIG A   1      -4.872   3.937 125.632  0.00  0.00    -0.000 C 
BRANCH   5   6
ATOM      6  C   LIG A   1      -5.625   3.855 124.260  0.00  0.00    -0.000 C 
BRANCH   6   7
ATOM      7  C   LIG A   1      -6.642   2.738 123.727  0.00  0.00    -0.000 C 
BRANCH   7   8
ATOM      8  C   LIG A   1      -8.208   2.946 123.623  0.00  0.00    +0.000 C 
BRANCH   8   9
ATOM      9  C   LIG A   1      -9.087   1.913 122.836  0.00  0.00    +0.000 C 
BRANCH   9  10
ATOM     10  C   LIG A   1      -9.503   0.548 123.559  0.00  0.00    +0.005 C 
BRANCH  10  11
ATOM     11  C   LIG A   1      -9.406  -0.768 122.747  0.00  0.00    +0.035 C 
BRANCH  11  12
ATOM     12  C   LIG A   1      -8.309  -1.763 123.172  0.00  0.00    -0.047 A 
ATOM     13  C   LIG A   1      -6.977  -1.517 122.789  0.00  0.00    +0.003 A 
ATOM     14  C   LIG A   1      -5.899  -2.318 123.199  0.00  0.00    +0.000 A 
ATOM     15  C   LIG A   1      -6.132  -3.440 123.977  0.00  0.00    +0.000 A 
ATOM     16  C   LIG A   1      -7.442  -3.718 124.375  0.00  0.00    +0.000 A 
ATOM     17  C   LIG A   1      -8.521  -2.879 123.996  0.00  0.00    +0.003 A 
ENDBRANCH  11  12
ENDBRANCH  10  11
ENDBRANCH   9  10
ENDBRANCH   8   9
ENDBRANCH   7   8
ENDBRANCH   6   7
ENDBRANCH   5   6
ENDBRANCH   4   5
ENDBRANCH   3   4
ENDBRANCH   2   3
ENDBRANCH   1   2
BRANCH   1  18
ATOM     18  C   LIG A   1      -7.773   2.433 127.456  0.00  0.00    -0.000 C 
BRANCH  18  19
ATOM     19  C   LIG A   1      -8.725   1.248 127.140  0.00  0.00    -0.000 C 
BRANCH  19  20
ATOM     20  C   LIG A   1      -8.057  -0.081 126.588  0.00  0.00    -0.000 C 
BRANCH  20  21
ATOM     21  C   LIG A   1      -6.594  -0.001 126.091  0.00  0.00    +0.000 C 
BRANCH  21  22
ATOM     22  C   LIG A   1      -5.598  -1.093 126.657  0.00  0.00    +0.001 C 
BRANCH  22  23
ATOM     23  C   LIG A   1      -6.196  -2.182 127.600  0.00  0.00    +0.017 C 
BRANCH  23  28
ATOM     24  C   LIG A   1      -5.358  -4.919 131.423  0.00  0.00    +0.055 C 
ATOM     25  C   LIG A   1      -5.883  -4.103 130.211  0.00  0.00    +0.203 C 
ATOM     26  O   LIG A   1      -7.138  -3.514 130.482  0.00  0.00    -0.459 OA
ATOM     27  C   LIG A   1      -7.222  -2.235 129.978  0.00  0.00    +0.313 C 
ATOM     28  C   LIG A   1      -6.038  -1.966 129.160  0.00  0.00    +0.130 C 
ATOM     29  C   LIG A   1      -5.024  -2.931 129.804  0.00  0.00    +0.168 C 
ATOM     30  O   LIG A   1      -8.190  -1.444 130.193  0.00  0.00    -0.250 OA
BRANCH  29  31
ATOM     31  O   LIG A   1      -4.445  -2.309 130.957  0.00  0.00    -0.387 OA
ATOM     32  H   LIG A   1      -3.538  -2.029 130.749  0.00  0.00    +0.210 HD
ENDBRANCH  29  31
ENDBRANCH  23  28
ENDBRANCH  22  23
ENDBRANCH  21  22
ENDBRANCH  20  21
ENDBRANCH  19  20
ENDBRANCH  18  19
ENDBRANCH   1  18
TORSDOF 19
ENDMDL
MODEL 4
REMARK VINA RESULT:      -5.8      3.005      6.807
REMARK  Name = NuBBE_963
REMARK  20 active torsions:
REMARK  status: ('A' for Active; 'I' for Inactive)
REMARK    1  A    between atoms: C_1  and  C_2
REMARK    2  A    between atoms: C_6  and  C_8
REMARK    3  A    between atoms: C_8  and  C_9
REMARK    4  A    between atoms: C_9  and  C_10
REMARK    5  A    between atoms: C_10  and  C_11
REMARK    6  A    between atoms: C_11  and  C_12
REMARK    7  A    between atoms: C_12  and  C_13
REMARK    8  A    between atoms: C_13  and  C_14
REMARK    9  A    between atoms: C_14  and  C_15
REMARK   10  A    between atoms: C_15  and  C_16
REMARK   11  A    between atoms: C_16  and  C_17
REMARK   12  A    between atoms: C_17  and  C_18
REMARK   13  A    between atoms: C_18  and  C_19
REMARK   14  A    between atoms: C_19  and  C_20
REMARK   15  A    between atoms: C_20  and  C_21
REMARK   16  A    between atoms: C_21  and  C_22
REMARK   17  A    between atoms: C_22  and  C_23
REMARK   18  A    between atoms: C_23  and  C_24
REMARK   19  A    between atoms: C_24  and  C_25
REMARK   20  A    between atoms: C_31  and  O_33
REMARK                            x       y       z     vdW  Elec       q    Type
REMARK                         _______ _______ _______ _____ _____    ______ ____
ROOT
ATOM      1  C   LIG A   1      -7.872   0.290 131.206  0.00  0.00    -0.000 C 
ENDROOT
BRANCH   1   2
ATOM      2  C   LIG A   1      -7.666   0.910 129.788  0.00  0.00    -0.000 C 
BRANCH   2   3
ATOM      3  C   LIG A   1      -6.662   0.255 128.840  0.00  0.00    -0.000 C 
BRANCH   3   4
ATOM      4  C   LIG A   1      -5.225  -0.105 129.155  0.00  0.00    -0.000 C 
BRANCH   4   5
ATOM      5  C   LIG A   1      -5.005  -1.619 128.859  0.00  0.00    -0.000 C 
BRANCH   5   6
ATOM      6  C   LIG A   1      -5.619  -2.665 129.851  0.00  0.00    -0.000 C 
BRANCH   6   7
ATOM      7  C   LIG A   1      -6.924  -3.577 129.683  0.00  0.00    -0.000 C 
BRANCH   7   8
ATOM      8  C   LIG A   1      -8.285  -3.066 129.055  0.00  0.00    +0.000 C 
BRANCH   8   9
ATOM      9  C   LIG A   1      -9.016  -3.922 127.964  0.00  0.00    +0.000 C 
BRANCH   9  10
ATOM     10  C   LIG A   1      -8.804  -3.549 126.423  0.00  0.00    +0.005 C 
BRANCH  10  11
ATOM     11  C   LIG A   1      -7.504  -2.807 126.023  0.00  0.00    +0.035 C 
BRANCH  11  12
ATOM     12  C   LIG A   1      -7.626  -1.295 125.753  0.00  0.00    -0.047 A 
ATOM     13  C   LIG A   1      -8.844  -0.647 126.030  0.00  0.00    +0.003 A 
ATOM     14  C   LIG A   1      -9.025   0.739 125.898  0.00  0.00    +0.000 A 
ATOM     15  C   LIG A   1      -7.987   1.527 125.427  0.00  0.00    +0.000 A 
ATOM     16  C   LIG A   1      -6.763   0.918 125.139  0.00  0.00    +0.000 A 
ATOM     17  C   LIG A   1      -6.573  -0.476 125.318  0.00  0.00    +0.003 A 
ENDBRANCH  11  12
ENDBRANCH  10  11
ENDBRANCH   9  10
ENDBRANCH   8   9
ENDBRANCH   7   8
ENDBRANCH   6   7
ENDBRANCH   5   6
ENDBRANCH   4   5
ENDBRANCH   3   4
ENDBRANCH   2   3
ENDBRANCH   1   2
BRANCH   1  18
ATOM     18  C   LIG A   1      -9.306   0.557 131.825  0.00  0.00    -0.000 C 
BRANCH  18  19
ATOM     19  C   LIG A   1      -9.641   1.952 132.419  0.00  0.00    -0.000 C 
BRANCH  19  20
ATOM     20  C   LIG A   1      -8.445   2.755 133.083  0.00  0.00    -0.000 C 
BRANCH  20  21
ATOM     21  C   LIG A   1      -8.799   3.932 134.023  0.00  0.00    +0.000 C 
BRANCH  21  22
ATOM     22  C   LIG A   1      -8.845   5.369 133.363  0.00  0.00    +0.001 C 
BRANCH  22  23
ATOM     23  C   LIG A   1     -10.131   5.746 132.563  0.00  0.00    +0.017 C 
BRANCH  23  28
ATOM     24  C   LIG A   1     -11.699   8.336 128.871  0.00  0.00    +0.055 C 
ATOM     25  C   LIG A   1     -11.433   7.388 130.071  0.00  0.00    +0.203 C 
ATOM     26  O   LIG A   1     -12.044   6.128 129.888  0.00  0.00    -0.459 OA
ATOM     27  C   LIG A   1     -11.232   5.099 130.309  0.00  0.00    +0.313 C 
ATOM     28  C   LIG A   1     -10.060   5.662 130.984  0.00  0.00    +0.130 C 
ATOM     29  C   LIG A   1      -9.982   7.045 130.309  0.00  0.00    +0.168 C 
ATOM     30  O   LIG A   1     -11.490   3.869 130.139  0.00  0.00    -0.250 OA
BRANCH  29  31
ATOM     31  O   LIG A   1      -9.283   6.925 129.064  0.00  0.00    -0.387 OA
ATOM     32  H   LIG A   1      -8.346   6.739 129.239  0.00  0.00    +0.210 HD
ENDBRANCH  29  31
ENDBRANCH  23  28
ENDBRANCH  22  23
ENDBRANCH  21  22
ENDBRANCH  20  21
ENDBRANCH  19  20
ENDBRANCH  18  19
ENDBRANCH   1  18
TORSDOF 19
ENDMDL
MODEL 5
REMARK VINA RESULT:      -5.8      1.957      3.295
REMARK  Name = NuBBE_963
REMARK  20 active torsions:
REMARK  status: ('A' for Active; 'I' for Inactive)
REMARK    1  A    between atoms: C_1  and  C_2
REMARK    2  A    between atoms: C_6  and  C_8
REMARK    3  A    between atoms: C_8  and  C_9
REMARK    4  A    between atoms: C_9  and  C_10
REMARK    5  A    between atoms: C_10  and  C_11
REMARK    6  A    between atoms: C_11  and  C_12
REMARK    7  A    between atoms: C_12  and  C_13
REMARK    8  A    between atoms: C_13  and  C_14
REMARK    9  A    between atoms: C_14  and  C_15
REMARK   10  A    between atoms: C_15  and  C_16
REMARK   11  A    between atoms: C_16  and  C_17
REMARK   12  A    between atoms: C_17  and  C_18
REMARK   13  A    between atoms: C_18  and  C_19
REMARK   14  A    between atoms: C_19  and  C_20
REMARK   15  A    between atoms: C_20  and  C_21
REMARK   16  A    between atoms: C_21  and  C_22
REMARK   17  A    between atoms: C_22  and  C_23
REMARK   18  A    between atoms: C_23  and  C_24
REMARK   19  A    between atoms: C_24  and  C_25
REMARK   20  A    between atoms: C_31  and  O_33
REMARK                            x       y       z     vdW  Elec       q    Type
REMARK                         _______ _______ _______ _____ _____    ______ ____
ROOT
ATOM      1  C   LIG A   1      -8.943  -2.241 123.363  0.00  0.00    -0.000 C 
ENDROOT
BRANCH   1   2
ATOM      2  C   LIG A   1      -9.048  -3.633 124.062  0.00  0.00    -0.000 C 
BRANCH   2   3
ATOM      3  C   LIG A   1      -8.494  -3.787 125.478  0.00  0.00    -0.000 C 
BRANCH   3   4
ATOM      4  C   LIG A   1      -8.648  -2.802 126.619  0.00  0.00    -0.000 C 
BRANCH   4   5
ATOM      5  C   LIG A   1      -8.632  -3.582 127.967  0.00  0.00    -0.000 C 
BRANCH   5   6
ATOM      6  C   LIG A   1      -7.577  -3.169 129.050  0.00  0.00    -0.000 C 
BRANCH   6   7
ATOM      7  C   LIG A   1      -6.099  -2.585 128.853  0.00  0.00    -0.000 C 
BRANCH   7   8
ATOM      8  C   LIG A   1      -5.715  -1.062 129.055  0.00  0.00    +0.000 C 
BRANCH   8   9
ATOM      9  C   LIG A   1      -6.818  -0.021 129.452  0.00  0.00    +0.000 C 
BRANCH   9  10
ATOM     10  C   LIG A   1      -6.471   1.538 129.369  0.00  0.00    +0.005 C 
BRANCH  10  11
ATOM     11  C   LIG A   1      -5.215   2.047 130.120  0.00  0.00    +0.035 C 
BRANCH  11  12
ATOM     12  C   LIG A   1      -4.199   2.862 129.296  0.00  0.00    -0.047 A 
ATOM     13  C   LIG A   1      -3.779   2.368 128.047  0.00  0.00    +0.003 A 
ATOM     14  C   LIG A   1      -2.924   3.077 127.187  0.00  0.00    +0.000 A 
ATOM     15  C   LIG A   1      -2.414   4.303 127.582  0.00  0.00    +0.000 A 
ATOM     16  C   LIG A   1      -2.806   4.824 128.818  0.00  0.00    +0.000 A 
ATOM     17  C   LIG A   1      -3.706   4.124 129.661  0.00  0.00    +0.003 A 
ENDBRANCH  11  12
ENDBRANCH  10  11
ENDBRANCH   9  10
ENDBRANCH   8   9
ENDBRANCH   7   8
ENDBRANCH   6   7
ENDBRANCH   5   6
ENDBRANCH   4   5
ENDBRANCH   3   4
ENDBRANCH   2   3
ENDBRANCH   1   2
BRANCH   1  18
ATOM     18  C   LIG A   1      -7.689  -2.092 122.405  0.00  0.00    -0.000 C 
BRANCH  18  19
ATOM     19  C   LIG A   1      -6.425  -1.340 122.902  0.00  0.00    -0.000 C 
BRANCH  19  20
ATOM     20  C   LIG A   1      -5.652  -1.972 124.134  0.00  0.00    -0.000 C 
BRANCH  20  21
ATOM     21  C   LIG A   1      -5.456  -1.092 125.391  0.00  0.00    +0.000 C 
BRANCH  21  22
ATOM     22  C   LIG A   1      -6.527   0.049 125.625  0.00  0.00    +0.001 C 
BRANCH  22  23
ATOM     23  C   LIG A   1      -6.017   1.523 125.599  0.00  0.00    +0.017 C 
BRANCH  23  28
ATOM     24  C   LIG A   1      -9.977   1.528 122.930  0.00  0.00    +0.055 C 
ATOM     25  C   LIG A   1      -8.563   1.487 123.568  0.00  0.00    +0.203 C 
ATOM     26  O   LIG A   1      -7.606   2.140 122.759  0.00  0.00    -0.459 OA
ATOM     27  C   LIG A   1      -6.723   2.883 123.510  0.00  0.00    +0.313 C 
ATOM     28  C   LIG A   1      -6.955   2.609 124.930  0.00  0.00    +0.130 C 
ATOM     29  C   LIG A   1      -8.437   2.190 124.898  0.00  0.00    +0.168 C 
ATOM     30  O   LIG A   1      -5.849   3.662 123.022  0.00  0.00    -0.250 OA
BRANCH  29  31
ATOM     31  O   LIG A   1      -9.260   3.362 124.927  0.00  0.00    -0.387 OA
ATOM     32  H   LIG A   1      -9.351   3.713 124.027  0.00  0.00    +0.210 HD
ENDBRANCH  29  31
ENDBRANCH  23  28
ENDBRANCH  22  23
ENDBRANCH  21  22
ENDBRANCH  20  21
ENDBRANCH  19  20
ENDBRANCH  18  19
ENDBRANCH   1  18
TORSDOF 19
ENDMDL
MODEL 6
REMARK VINA RESULT:      -5.8      1.903      5.107
REMARK  Name = NuBBE_963
REMARK  20 active torsions:
REMARK  status: ('A' for Active; 'I' for Inactive)
REMARK    1  A    between atoms: C_1  and  C_2
REMARK    2  A    between atoms: C_6  and  C_8
REMARK    3  A    between atoms: C_8  and  C_9
REMARK    4  A    between atoms: C_9  and  C_10
REMARK    5  A    between atoms: C_10  and  C_11
REMARK    6  A    between atoms: C_11  and  C_12
REMARK    7  A    between atoms: C_12  and  C_13
REMARK    8  A    between atoms: C_13  and  C_14
REMARK    9  A    between atoms: C_14  and  C_15
REMARK   10  A    between atoms: C_15  and  C_16
REMARK   11  A    between atoms: C_16  and  C_17
REMARK   12  A    between atoms: C_17  and  C_18
REMARK   13  A    between atoms: C_18  and  C_19
REMARK   14  A    between atoms: C_19  and  C_20
REMARK   15  A    between atoms: C_20  and  C_21
REMARK   16  A    between atoms: C_21  and  C_22
REMARK   17  A    between atoms: C_22  and  C_23
REMARK   18  A    between atoms: C_23  and  C_24
REMARK   19  A    between atoms: C_24  and  C_25
REMARK   20  A    between atoms: C_31  and  O_33
REMARK                            x       y       z     vdW  Elec       q    Type
REMARK                         _______ _______ _______ _____ _____    ______ ____
ROOT
ATOM      1  C   LIG A   1      -8.295  -2.487 129.469  0.00  0.00    -0.000 C 
ENDROOT
BRANCH   1   2
ATOM      2  C   LIG A   1      -7.910  -3.538 128.381  0.00  0.00    -0.000 C 
BRANCH   2   3
ATOM      3  C   LIG A   1      -8.914  -3.847 127.271  0.00  0.00    -0.000 C 
BRANCH   3   4
ATOM      4  C   LIG A   1      -9.339  -2.916 126.154  0.00  0.00    -0.000 C 
BRANCH   4   5
ATOM      5  C   LIG A   1      -8.821  -3.483 124.798  0.00  0.00    -0.000 C 
BRANCH   5   6
ATOM      6  C   LIG A   1      -8.597  -2.481 123.614  0.00  0.00    -0.000 C 
BRANCH   6   7
ATOM      7  C   LIG A   1      -7.254  -2.153 122.804  0.00  0.00    -0.000 C 
BRANCH   7   8
ATOM      8  C   LIG A   1      -5.799  -2.307 123.407  0.00  0.00    +0.000 C 
BRANCH   8   9
ATOM      9  C   LIG A   1      -5.609  -2.767 124.894  0.00  0.00    +0.000 C 
BRANCH   9  10
ATOM     10  C   LIG A   1      -5.788  -1.688 126.062  0.00  0.00    +0.005 C 
BRANCH  10  11
ATOM     11  C   LIG A   1      -5.713  -0.186 125.686  0.00  0.00    +0.035 C 
BRANCH  11  12
ATOM     12  C   LIG A   1      -7.025   0.478 125.226  0.00  0.00    -0.047 A 
ATOM     13  C   LIG A   1      -8.194   0.280 125.982  0.00  0.00    +0.003 A 
ATOM     14  C   LIG A   1      -9.415   0.911 125.691  0.00  0.00    +0.000 A 
ATOM     15  C   LIG A   1      -9.515   1.736 124.583  0.00  0.00    +0.000 A 
ATOM     16  C   LIG A   1      -8.375   1.954 123.806  0.00  0.00    +0.000 A 
ATOM     17  C   LIG A   1      -7.134   1.350 124.131  0.00  0.00    +0.003 A 
ENDBRANCH  11  12
ENDBRANCH  10  11
ENDBRANCH   9  10
ENDBRANCH   8   9
ENDBRANCH   7   8
ENDBRANCH   6   7
ENDBRANCH   5   6
ENDBRANCH   4   5
ENDBRANCH   3   4
ENDBRANCH   2   3
ENDBRANCH   1   2
BRANCH   1  18
ATOM     18  C   LIG A   1      -7.632  -1.064 129.255  0.00  0.00    -0.000 C 
BRANCH  18  19
ATOM     19  C   LIG A   1      -7.384  -0.139 130.476  0.00  0.00    -0.000 C 
BRANCH  19  20
ATOM     20  C   LIG A   1      -7.373   1.424 130.202  0.00  0.00    -0.000 C 
BRANCH  20  21
ATOM     21  C   LIG A   1      -8.282   1.965 129.074  0.00  0.00    +0.000 C 
BRANCH  21  22
ATOM     22  C   LIG A   1      -8.026   3.459 128.620  0.00  0.00    +0.001 C 
BRANCH  22  23
ATOM     23  C   LIG A   1      -7.332   3.676 127.240  0.00  0.00    +0.017 C 
BRANCH  23  28
ATOM     24  C   LIG A   1      -3.241   5.329 129.066  0.00  0.00    +0.055 C 
ATOM     25  C   LIG A   1      -4.543   4.986 128.294  0.00  0.00    +0.203 C 
ATOM     26  O   LIG A   1      -4.378   5.133 126.899  0.00  0.00    -0.459 OA
ATOM     27  C   LIG A   1      -5.001   4.124 126.200  0.00  0.00    +0.313 C 
ATOM     28  C   LIG A   1      -5.793   3.318 127.132  0.00  0.00    +0.130 C 
ATOM     29  C   LIG A   1      -5.023   3.563 128.443  0.00  0.00    +0.168 C 
ATOM     30  O   LIG A   1      -4.900   3.953 124.948  0.00  0.00    -0.250 OA
BRANCH  29  31
ATOM     31  O   LIG A   1      -3.911   2.662 128.514  0.00  0.00    -0.387 OA
ATOM     32  H   LIG A   1      -4.239   1.751 128.579  0.00  0.00    +0.210 HD
ENDBRANCH  29  31
ENDBRANCH  23  28
ENDBRANCH  22  23
ENDBRANCH  21  22
ENDBRANCH  20  21
ENDBRANCH  19  20
ENDBRANCH  18  19
ENDBRANCH   1  18
TORSDOF 19
ENDMDL
MODEL 7
REMARK VINA RESULT:      -5.8      1.883      5.668
REMARK  Name = NuBBE_963
REMARK  20 active torsions:
REMARK  status: ('A' for Active; 'I' for Inactive)
REMARK    1  A    between atoms: C_1  and  C_2
REMARK    2  A    between atoms: C_6  and  C_8
REMARK    3  A    between atoms: C_8  and  C_9
REMARK    4  A    between atoms: C_9  and  C_10
REMARK    5  A    between atoms: C_10  and  C_11
REMARK    6  A    between atoms: C_11  and  C_12
REMARK    7  A    between atoms: C_12  and  C_13
REMARK    8  A    between atoms: C_13  and  C_14
REMARK    9  A    between atoms: C_14  and  C_15
REMARK   10  A    between atoms: C_15  and  C_16
REMARK   11  A    between atoms: C_16  and  C_17
REMARK   12  A    between atoms: C_17  and  C_18
REMARK   13  A    between atoms: C_18  and  C_19
REMARK   14  A    between atoms: C_19  and  C_20
REMARK   15  A    between atoms: C_20  and  C_21
REMARK   16  A    between atoms: C_21  and  C_22
REMARK   17  A    between atoms: C_22  and  C_23
REMARK   18  A    between atoms: C_23  and  C_24
REMARK   19  A    between atoms: C_24  and  C_25
REMARK   20  A    between atoms: C_31  and  O_33
REMARK                            x       y       z     vdW  Elec       q    Type
REMARK                         _______ _______ _______ _____ _____    ______ ____
ROOT
ATOM      1  C   LIG A   1      -8.322  -3.863 128.625  0.00  0.00    -0.000 C 
ENDROOT
BRANCH   1   2
ATOM      2  C   LIG A   1      -9.186  -3.697 127.335  0.00  0.00    -0.000 C 
BRANCH   2   3
ATOM      3  C   LIG A   1      -8.504  -3.228 126.050  0.00  0.00    -0.000 C 
BRANCH   3   4
ATOM      4  C   LIG A   1      -8.793  -3.716 124.646  0.00  0.00    -0.000 C 
BRANCH   4   5
ATOM      5  C   LIG A   1      -9.172  -2.497 123.753  0.00  0.00    -0.000 C 
BRANCH   5   6
ATOM      6  C   LIG A   1      -8.246  -2.153 122.536  0.00  0.00    -0.000 C 
BRANCH   6   7
ATOM      7  C   LIG A   1      -6.670  -1.868 122.510  0.00  0.00    -0.000 C 
BRANCH   7   8
ATOM      8  C   LIG A   1      -5.602  -2.736 123.294  0.00  0.00    +0.000 C 
BRANCH   8   9
ATOM      9  C   LIG A   1      -4.823  -2.116 124.504  0.00  0.00    +0.000 C 
BRANCH   9  10
ATOM     10  C   LIG A   1      -5.648  -1.340 125.635  0.00  0.00    +0.005 C 
BRANCH  10  11
ATOM     11  C   LIG A   1      -5.896   0.177 125.446  0.00  0.00    +0.035 C 
BRANCH  11  12
ATOM     12  C   LIG A   1      -7.347   0.610 125.158  0.00  0.00    -0.047 A 
ATOM     13  C   LIG A   1      -7.639   1.264 123.948  0.00  0.00    +0.003 A 
ATOM     14  C   LIG A   1      -8.941   1.620 123.560  0.00  0.00    +0.000 A 
ATOM     15  C   LIG A   1     -10.004   1.371 124.411  0.00  0.00    +0.000 A 
ATOM     16  C   LIG A   1      -9.753   0.725 125.624  0.00  0.00    +0.000 A 
ATOM     17  C   LIG A   1      -8.442   0.327 125.990  0.00  0.00    +0.003 A 
ENDBRANCH  11  12
ENDBRANCH  10  11
ENDBRANCH   9  10
ENDBRANCH   8   9
ENDBRANCH   7   8
ENDBRANCH   6   7
ENDBRANCH   5   6
ENDBRANCH   4   5
ENDBRANCH   3   4
ENDBRANCH   2   3
ENDBRANCH   1   2
BRANCH   1  18
ATOM     18  C   LIG A   1      -8.091  -2.515 129.425  0.00  0.00    -0.000 C 
BRANCH  18  19
ATOM     19  C   LIG A   1      -7.224  -1.389 128.802  0.00  0.00    -0.000 C 
BRANCH  19  20
ATOM     20  C   LIG A   1      -6.265  -0.594 129.785  0.00  0.00    -0.000 C 
BRANCH  20  21
ATOM     21  C   LIG A   1      -5.142   0.266 129.158  0.00  0.00    +0.000 C 
BRANCH  21  22
ATOM     22  C   LIG A   1      -5.555   1.714 128.671  0.00  0.00    +0.001 C 
BRANCH  22  23
ATOM     23  C   LIG A   1      -5.733   2.811 129.766  0.00  0.00    +0.017 C 
BRANCH  23  28
ATOM     24  C   LIG A   1      -9.794   1.470 131.891  0.00  0.00    +0.055 C 
ATOM     25  C   LIG A   1      -8.558   1.758 130.997  0.00  0.00    +0.203 C 
ATOM     26  O   LIG A   1      -8.921   1.922 129.642  0.00  0.00    -0.459 OA
ATOM     27  C   LIG A   1      -8.218   2.944 129.044  0.00  0.00    +0.313 C 
ATOM     28  C   LIG A   1      -7.183   3.415 129.967  0.00  0.00    +0.130 C 
ATOM     29  C   LIG A   1      -7.814   3.031 131.319  0.00  0.00    +0.168 C 
ATOM     30  O   LIG A   1      -8.443   3.378 127.874  0.00  0.00    -0.250 OA
BRANCH  29  31
ATOM     31  O   LIG A   1      -8.727   4.058 131.723  0.00  0.00    -0.387 OA
ATOM     32  H   LIG A   1      -8.796   4.723 131.018  0.00  0.00    +0.210 HD
ENDBRANCH  29  31
ENDBRANCH  23  28
ENDBRANCH  22  23
ENDBRANCH  21  22
ENDBRANCH  20  21
ENDBRANCH  19  20
ENDBRANCH  18  19
ENDBRANCH   1  18
TORSDOF 19
ENDMDL
MODEL 8
REMARK VINA RESULT:      -5.7      2.779      6.630
REMARK  Name = NuBBE_963
REMARK  20 active torsions:
REMARK  status: ('A' for Active; 'I' for Inactive)
REMARK    1  A    between atoms: C_1  and  C_2
REMARK    2  A    between atoms: C_6  and  C_8
REMARK    3  A    between atoms: C_8  and  C_9
REMARK    4  A    between atoms: C_9  and  C_10
REMARK    5  A    between atoms: C_10  and  C_11
REMARK    6  A    between atoms: C_11  and  C_12
REMARK    7  A    between atoms: C_12  and  C_13
REMARK    8  A    between atoms: C_13  and  C_14
REMARK    9  A    between atoms: C_14  and  C_15
REMARK   10  A    between atoms: C_15  and  C_16
REMARK   11  A    between atoms: C_16  and  C_17
REMARK   12  A    between atoms: C_17  and  C_18
REMARK   13  A    between atoms: C_18  and  C_19
REMARK   14  A    between atoms: C_19  and  C_20
REMARK   15  A    between atoms: C_20  and  C_21
REMARK   16  A    between atoms: C_21  and  C_22
REMARK   17  A    between atoms: C_22  and  C_23
REMARK   18  A    between atoms: C_23  and  C_24
REMARK   19  A    between atoms: C_24  and  C_25
REMARK   20  A    between atoms: C_31  and  O_33
REMARK                            x       y       z     vdW  Elec       q    Type
REMARK                         _______ _______ _______ _____ _____    ______ ____
ROOT
ATOM      1  C   LIG A   1      -7.957   0.603 129.416  0.00  0.00    -0.000 C 
ENDROOT
BRANCH   1   2
ATOM      2  C   LIG A   1      -7.563   1.381 128.121  0.00  0.00    -0.000 C 
BRANCH   2   3
ATOM      3  C   LIG A   1      -7.423   0.604 126.812  0.00  0.00    -0.000 C 
BRANCH   3   4
ATOM      4  C   LIG A   1      -6.307   0.741 125.797  0.00  0.00    -0.000 C 
BRANCH   4   5
ATOM      5  C   LIG A   1      -6.544  -0.278 124.643  0.00  0.00    -0.000 C 
BRANCH   5   6
ATOM      6  C   LIG A   1      -5.730  -1.618 124.660  0.00  0.00    -0.000 C 
BRANCH   6   7
ATOM      7  C   LIG A   1      -6.241  -3.117 124.421  0.00  0.00    -0.000 C 
BRANCH   7   8
ATOM      8  C   LIG A   1      -7.750  -3.501 124.133  0.00  0.00    +0.000 C 
BRANCH   8   9
ATOM      9  C   LIG A   1      -8.905  -2.548 124.598  0.00  0.00    +0.000 C 
BRANCH   9  10
ATOM     10  C   LIG A   1      -9.202  -2.405 126.163  0.00  0.00    +0.005 C 
BRANCH  10  11
ATOM     11  C   LIG A   1      -8.676  -3.512 127.111  0.00  0.00    +0.035 C 
BRANCH  11  12
ATOM     12  C   LIG A   1      -7.771  -3.057 128.272  0.00  0.00    -0.047 A 
ATOM     13  C   LIG A   1      -8.254  -3.144 129.590  0.00  0.00    +0.003 A 
ATOM     14  C   LIG A   1      -7.475  -2.835 130.717  0.00  0.00    +0.000 A 
ATOM     15  C   LIG A   1      -6.180  -2.371 130.551  0.00  0.00    +0.000 A 
ATOM     16  C   LIG A   1      -5.667  -2.268 129.256  0.00  0.00    +0.000 A 
ATOM     17  C   LIG A   1      -6.444  -2.626 128.125  0.00  0.00    +0.003 A 
ENDBRANCH  11  12
ENDBRANCH  10  11
ENDBRANCH   9  10
ENDBRANCH   8   9
ENDBRANCH   7   8
ENDBRANCH   6   7
ENDBRANCH   5   6
ENDBRANCH   4   5
ENDBRANCH   3   4
ENDBRANCH   2   3
ENDBRANCH   1   2
BRANCH   1  18
ATOM     18  C   LIG A   1      -7.860   1.465 130.742  0.00  0.00    -0.000 C 
BRANCH  18  19
ATOM     19  C   LIG A   1      -8.763   1.117 131.955  0.00  0.00    -0.000 C 
BRANCH  19  20
ATOM     20  C   LIG A   1      -9.611   2.302 132.583  0.00  0.00    -0.000 C 
BRANCH  20  21
ATOM     21  C   LIG A   1      -8.854   3.582 133.011  0.00  0.00    +0.000 C 
BRANCH  21  22
ATOM     22  C   LIG A   1      -9.631   4.949 132.837  0.00  0.00    +0.001 C 
BRANCH  22  23
ATOM     23  C   LIG A   1      -9.075   5.955 131.783  0.00  0.00    +0.017 C 
BRANCH  23  28
ATOM     24  C   LIG A   1     -12.255   8.461 129.250  0.00  0.00    +0.055 C 
ATOM     25  C   LIG A   1     -11.433   7.521 130.173  0.00  0.00    +0.203 C 
ATOM     26  O   LIG A   1     -11.978   6.219 130.211  0.00  0.00    -0.459 OA
ATOM     27  C   LIG A   1     -10.996   5.253 130.193  0.00  0.00    +0.313 C 
ATOM     28  C   LIG A   1      -9.689   5.899 130.324  0.00  0.00    +0.130 C 
ATOM     29  C   LIG A   1     -10.003   7.293 129.748  0.00  0.00    +0.168 C 
ATOM     30  O   LIG A   1     -11.219   4.008 130.092  0.00  0.00    -0.250 OA
BRANCH  29  31
ATOM     31  O   LIG A   1      -9.905   7.247 128.319  0.00  0.00    -0.387 OA
ATOM     32  H   LIG A   1      -9.124   7.750 128.035  0.00  0.00    +0.210 HD
ENDBRANCH  29  31
ENDBRANCH  23  28
ENDBRANCH  22  23
ENDBRANCH  21  22
ENDBRANCH  20  21
ENDBRANCH  19  20
ENDBRANCH  18  19
ENDBRANCH   1  18
TORSDOF 19
ENDMDL
MODEL 9
REMARK VINA RESULT:      -5.7      2.041      5.322
REMARK  Name = NuBBE_963
REMARK  20 active torsions:
REMARK  status: ('A' for Active; 'I' for Inactive)
REMARK    1  A    between atoms: C_1  and  C_2
REMARK    2  A    between atoms: C_6  and  C_8
REMARK    3  A    between atoms: C_8  and  C_9
REMARK    4  A    between atoms: C_9  and  C_10
REMARK    5  A    between atoms: C_10  and  C_11
REMARK    6  A    between atoms: C_11  and  C_12
REMARK    7  A    between atoms: C_12  and  C_13
REMARK    8  A    between atoms: C_13  and  C_14
REMARK    9  A    between atoms: C_14  and  C_15
REMARK   10  A    between atoms: C_15  and  C_16
REMARK   11  A    between atoms: C_16  and  C_17
REMARK   12  A    between atoms: C_17  and  C_18
REMARK   13  A    between atoms: C_18  and  C_19
REMARK   14  A    between atoms: C_19  and  C_20
REMARK   15  A    between atoms: C_20  and  C_21
REMARK   16  A    between atoms: C_21  and  C_22
REMARK   17  A    between atoms: C_22  and  C_23
REMARK   18  A    between atoms: C_23  and  C_24
REMARK   19  A    between atoms: C_24  and  C_25
REMARK   20  A    between atoms: C_31  and  O_33
REMARK                            x       y       z     vdW  Elec       q    Type
REMARK                         _______ _______ _______ _____ _____    ______ ____
ROOT
ATOM      1  C   LIG A   1      -3.982  -3.265 128.996  0.00  0.00    -0.000 C 
ENDROOT
BRANCH   1   2
ATOM      2  C   LIG A   1      -4.761  -4.089 130.069  0.00  0.00    -0.000 C 
BRANCH   2   3
ATOM      3  C   LIG A   1      -4.265  -4.067 131.515  0.00  0.00    -0.000 C 
BRANCH   3   4
ATOM      4  C   LIG A   1      -4.505  -2.973 132.534  0.00  0.00    -0.000 C 
BRANCH   4   5
ATOM      5  C   LIG A   1      -5.906  -3.184 133.183  0.00  0.00    -0.000 C 
BRANCH   5   6
ATOM      6  C   LIG A   1      -7.174  -3.035 132.273  0.00  0.00    -0.000 C 
BRANCH   6   7
ATOM      7  C   LIG A   1      -7.729  -1.739 131.513  0.00  0.00    -0.000 C 
BRANCH   7   8
ATOM      8  C   LIG A   1      -8.092  -1.706 129.972  0.00  0.00    +0.000 C 
BRANCH   8   9
ATOM      9  C   LIG A   1      -8.330  -3.044 129.193  0.00  0.00    +0.000 C 
BRANCH   9  10
ATOM     10  C   LIG A   1      -8.107  -3.063 127.609  0.00  0.00    +0.005 C 
BRANCH  10  11
ATOM     11  C   LIG A   1      -7.997  -1.705 126.871  0.00  0.00    +0.035 C 
BRANCH  11  12
ATOM     12  C   LIG A   1      -7.412  -1.738 125.445  0.00  0.00    -0.047 A 
ATOM     13  C   LIG A   1      -6.128  -2.276 125.246  0.00  0.00    +0.003 A 
ATOM     14  C   LIG A   1      -5.546  -2.427 123.977  0.00  0.00    +0.000 A 
ATOM     15  C   LIG A   1      -6.224  -1.988 122.852  0.00  0.00    +0.000 A 
ATOM     16  C   LIG A   1      -7.501  -1.444 123.012  0.00  0.00    +0.000 A 
ATOM     17  C   LIG A   1      -8.102  -1.337 124.292  0.00  0.00    +0.003 A 
ENDBRANCH  11  12
ENDBRANCH  10  11
ENDBRANCH   9  10
ENDBRANCH   8   9
ENDBRANCH   7   8
ENDBRANCH   6   7
ENDBRANCH   5   6
ENDBRANCH   4   5
ENDBRANCH   3   4
ENDBRANCH   2   3
ENDBRANCH   1   2
BRANCH   1  18
ATOM     18  C   LIG A   1      -4.736  -1.958 128.512  0.00  0.00    -0.000 C 
BRANCH  18  19
ATOM     19  C   LIG A   1      -4.819  -0.724 129.449  0.00  0.00    -0.000 C 
BRANCH  19  20
ATOM     20  C   LIG A   1      -5.183   0.666 128.776  0.00  0.00    -0.000 C 
BRANCH  20  21
ATOM     21  C   LIG A   1      -5.188   0.739 127.231  0.00  0.00    +0.000 C 
BRANCH  21  22
ATOM     22  C   LIG A   1      -6.281   1.676 126.575  0.00  0.00    +0.001 C 
BRANCH  22  23
ATOM     23  C   LIG A   1      -6.251   1.829 125.023  0.00  0.00    +0.017 C 
BRANCH  23  28
ATOM     24  C   LIG A   1      -6.179   4.213 120.886  0.00  0.00    +0.055 C 
ATOM     25  C   LIG A   1      -5.995   3.590 122.296  0.00  0.00    +0.203 C 
ATOM     26  O   LIG A   1      -5.653   4.567 123.258  0.00  0.00    -0.459 OA
ATOM     27  C   LIG A   1      -6.303   4.356 124.454  0.00  0.00    +0.313 C 
ATOM     28  C   LIG A   1      -7.005   3.072 124.396  0.00  0.00    +0.130 C 
ATOM     29  C   LIG A   1      -7.227   2.940 122.877  0.00  0.00    +0.168 C 
ATOM     30  O   LIG A   1      -6.269   5.156 125.437  0.00  0.00    -0.250 OA
BRANCH  29  31
ATOM     31  O   LIG A   1      -8.403   3.668 122.506  0.00  0.00    -0.387 OA
ATOM     32  H   LIG A   1      -9.186   3.116 122.663  0.00  0.00    +0.210 HD
ENDBRANCH  29  31
ENDBRANCH  23  28
ENDBRANCH  22  23
ENDBRANCH  21  22
ENDBRANCH  20  21
ENDBRANCH  19  20
ENDBRANCH  18  19
ENDBRANCH   1  18
TORSDOF 19
ENDMDL
