MODEL 1
REMARK VINA RESULT:      -6.8      0.000      0.000
REMARK  Name = NuBBE_194
REMARK  13 active torsions:
REMARK  status: ('A' for Active; 'I' for Inactive)
REMARK    1  A    between atoms: C_4  and  O_13
REMARK    2  A    between atoms: C_8  and  C_9
REMARK    3  A    between atoms: C_9  and  O_10
REMARK    4  A    between atoms: O_10  and  C_11
REMARK    5  A    between atoms: O_13  and  C_14
REMARK    6  A    between atoms: C_17  and  C_25
REMARK    7  A    between atoms: C_19  and  O_24
REMARK    8  A    between atoms: C_21  and  O_23
REMARK    9  A    between atoms: C_25  and  O_26
REMARK   10  A    between atoms: C_27  and  O_29
REMARK   11  A    between atoms: C_33  and  O_34
REMARK   12  A    between atoms: C_33  and  C_35
REMARK   13  A    between atoms: C_35  and  O_36
REMARK                            x       y       z     vdW  Elec       q    Type
REMARK                         _______ _______ _______ _____ _____    ______ ____
ROOT
ATOM      1  C   LIG A   1      -8.128   2.837 131.615  0.00  0.00    +0.064 C 
ATOM      2  C   LIG A   1      -9.344   3.780 131.464  0.00  0.00    +0.107 C 
ATOM      3  C   LIG A   1      -9.451   4.323 130.040  0.00  0.00    +0.316 C 
ATOM      4  O   LIG A   1      -9.420   3.248 129.070  0.00  0.00    -0.470 OA
ATOM      5  C   LIG A   1      -8.770   2.083 129.391  0.00  0.00    +0.201 C 
ATOM      6  C   LIG A   1      -8.156   1.803 130.553  0.00  0.00    +0.078 C 
ATOM      7  C   LIG A   1      -8.340   2.477 133.061  0.00  0.00    -0.019 C 
ATOM      8  C   LIG A   1      -8.922   3.511 133.698  0.00  0.00    +0.006 C 
ATOM      9  C   LIG A   1      -9.228   4.643 132.732  0.00  0.00    +0.116 C 
ENDROOT
BRANCH   6  10
ATOM     10  C   LIG A   1      -7.419   0.526 130.634  0.00  0.00    +0.338 C 
ATOM     11  O   LIG A   1      -6.189   0.452 130.648  0.00  0.00    -0.245 OA
BRANCH  10  12
ATOM     12  O   LIG A   1      -8.263  -0.530 130.731  0.00  0.00    -0.465 OA
ATOM     13  C   LIG A   1      -7.733  -1.747 130.199  0.00  0.00    +0.280 C 
ENDBRANCH  10  12
ENDBRANCH   6  10
BRANCH   9  14
ATOM     14  O   LIG A   1     -10.461   5.246 133.085  0.00  0.00    -0.382 OA
ATOM     15  H   LIG A   1     -10.483   5.352 134.052  0.00  0.00    +0.211 HD
ENDBRANCH   9  14
BRANCH   3  16
ATOM     16  O   LIG A   1     -10.578   5.158 129.716  0.00  0.00    -0.309 OA
BRANCH  16  17
ATOM     17  C   LIG A   1     -10.332   6.512 129.305  0.00  0.00    +0.286 C 
ATOM     18  O   LIG A   1     -10.625   7.507 130.291  0.00  0.00    -0.340 OA
ATOM     19  C   LIG A   1     -11.928   8.107 130.358  0.00  0.00    +0.178 C 
ATOM     20  C   LIG A   1     -12.663   8.322 129.019  0.00  0.00    +0.177 C 
ATOM     21  C   LIG A   1     -12.466   7.173 128.028  0.00  0.00    +0.179 C 
ATOM     22  C   LIG A   1     -10.978   6.809 127.928  0.00  0.00    +0.201 C 
BRANCH  21  23
ATOM     23  O   LIG A   1     -13.304   6.054 128.306  0.00  0.00    -0.386 OA
ATOM     24  H   LIG A   1     -12.868   5.230 128.001  0.00  0.00    +0.210 HD
ENDBRANCH  21  23
BRANCH  20  25
ATOM     25  O   LIG A   1     -12.151   9.527 128.410  0.00  0.00    -0.387 OA
ATOM     26  H   LIG A   1     -11.212   9.599 128.671  0.00  0.00    +0.210 HD
ENDBRANCH  20  25
BRANCH  22  27
ATOM     27  O   LIG A   1     -10.264   7.898 127.297  0.00  0.00    -0.384 OA
ATOM     28  H   LIG A   1     -10.869   8.673 127.281  0.00  0.00    +0.210 HD
ENDBRANCH  22  27
BRANCH  19  29
ATOM     29  C   LIG A   1     -12.816   7.392 131.376  0.00  0.00    +0.190 C 
BRANCH  29  30
ATOM     30  O   LIG A   1     -12.471   6.016 131.449  0.00  0.00    -0.392 OA
ATOM     31  H   LIG A   1     -12.968   5.596 130.712  0.00  0.00    +0.209 HD
ENDBRANCH  29  30
ENDBRANCH  19  29
ENDBRANCH  16  17
ENDBRANCH   3  16
BRANCH   9  32
ATOM     32  C   LIG A   1      -8.110   5.717 132.750  0.00  0.00    +0.195 C 
BRANCH  32  33
ATOM     33  O   LIG A   1      -8.463   6.854 131.952  0.00  0.00    -0.392 OA
ATOM     34  H   LIG A   1      -7.811   7.549 132.161  0.00  0.00    +0.209 HD
ENDBRANCH  32  33
ENDBRANCH   9  32
TORSDOF 12
ENDMDL
MODEL 2
REMARK VINA RESULT:      -6.7      1.900      2.511
REMARK  Name = NuBBE_194
REMARK  13 active torsions:
REMARK  status: ('A' for Active; 'I' for Inactive)
REMARK    1  A    between atoms: C_4  and  O_13
REMARK    2  A    between atoms: C_8  and  C_9
REMARK    3  A    between atoms: C_9  and  O_10
REMARK    4  A    between atoms: O_10  and  C_11
REMARK    5  A    between atoms: O_13  and  C_14
REMARK    6  A    between atoms: C_17  and  C_25
REMARK    7  A    between atoms: C_19  and  O_24
REMARK    8  A    between atoms: C_21  and  O_23
REMARK    9  A    between atoms: C_25  and  O_26
REMARK   10  A    between atoms: C_27  and  O_29
REMARK   11  A    between atoms: C_33  and  O_34
REMARK   12  A    between atoms: C_33  and  C_35
REMARK   13  A    between atoms: C_35  and  O_36
REMARK                            x       y       z     vdW  Elec       q    Type
REMARK                         _______ _______ _______ _____ _____    ______ ____
ROOT
ATOM      1  C   LIG A   1      -7.644   2.878 129.799  0.00  0.00    +0.064 C 
ATOM      2  C   LIG A   1      -9.069   3.480 129.801  0.00  0.00    +0.107 C 
ATOM      3  C   LIG A   1      -9.072   4.898 129.233  0.00  0.00    +0.316 C 
ATOM      4  O   LIG A   1      -8.420   4.943 127.941  0.00  0.00    -0.470 OA
ATOM      5  C   LIG A   1      -7.454   4.012 127.654  0.00  0.00    +0.201 C 
ATOM      6  C   LIG A   1      -7.042   3.013 128.451  0.00  0.00    +0.078 C 
ATOM      7  C   LIG A   1      -8.002   1.530 130.364  0.00  0.00    -0.019 C 
ATOM      8  C   LIG A   1      -9.062   1.656 131.186  0.00  0.00    +0.006 C 
ATOM      9  C   LIG A   1      -9.569   3.088 131.202  0.00  0.00    +0.116 C 
ENDROOT
BRANCH   6  10
ATOM     10  C   LIG A   1      -5.902   2.201 127.980  0.00  0.00    +0.338 C 
ATOM     11  O   LIG A   1      -6.025   1.215 127.251  0.00  0.00    -0.245 OA
BRANCH  10  12
ATOM     12  O   LIG A   1      -4.721   2.704 128.415  0.00  0.00    -0.465 OA
ATOM     13  C   LIG A   1      -3.814   3.048 127.363  0.00  0.00    +0.280 C 
ENDBRANCH  10  12
ENDBRANCH   6  10
BRANCH   9  14
ATOM     14  O   LIG A   1     -10.984   3.088 131.285  0.00  0.00    -0.382 OA
ATOM     15  H   LIG A   1     -11.272   3.957 131.616  0.00  0.00    +0.211 HD
ENDBRANCH   9  14
BRANCH   3  16
ATOM     16  O   LIG A   1     -10.338   5.570 129.096  0.00  0.00    -0.309 OA
BRANCH  16  17
ATOM     17  C   LIG A   1     -10.346   7.004 128.995  0.00  0.00    +0.286 C 
ATOM     18  O   LIG A   1     -10.772   7.691 130.175  0.00  0.00    -0.340 OA
ATOM     19  C   LIG A   1     -12.156   8.022 130.368  0.00  0.00    +0.178 C 
ATOM     20  C   LIG A   1     -12.965   8.389 129.107  0.00  0.00    +0.177 C 
ATOM     21  C   LIG A   1     -12.606   7.537 127.887  0.00  0.00    +0.179 C 
ATOM     22  C   LIG A   1     -11.082   7.473 127.715  0.00  0.00    +0.201 C 
BRANCH  21  23
ATOM     23  O   LIG A   1     -13.226   6.254 127.909  0.00  0.00    -0.386 OA
ATOM     24  H   LIG A   1     -13.883   6.192 127.182  0.00  0.00    +0.210 HD
ENDBRANCH  21  23
BRANCH  20  25
ATOM     25  O   LIG A   1     -12.692   9.769 128.780  0.00  0.00    -0.387 OA
ATOM     26  H   LIG A   1     -11.953   9.767 128.141  0.00  0.00    +0.210 HD
ENDBRANCH  20  25
BRANCH  22  27
ATOM     27  O   LIG A   1     -10.591   8.782 127.342  0.00  0.00    -0.384 OA
ATOM     28  H   LIG A   1     -10.774   9.388 128.095  0.00  0.00    +0.210 HD
ENDBRANCH  22  27
BRANCH  19  29
ATOM     29  C   LIG A   1     -12.870   6.956 131.200  0.00  0.00    +0.190 C 
BRANCH  29  30
ATOM     30  O   LIG A   1     -11.934   6.008 131.693  0.00  0.00    -0.392 OA
ATOM     31  H   LIG A   1     -12.256   5.788 132.595  0.00  0.00    +0.209 HD
ENDBRANCH  29  30
ENDBRANCH  19  29
ENDBRANCH  16  17
ENDBRANCH   3  16
BRANCH   9  32
ATOM     32  C   LIG A   1      -8.988   3.879 132.402  0.00  0.00    +0.195 C 
BRANCH  32  33
ATOM     33  O   LIG A   1     -10.028   4.449 133.207  0.00  0.00    -0.392 OA
ATOM     34  H   LIG A   1     -10.360   5.225 132.718  0.00  0.00    +0.209 HD
ENDBRANCH  32  33
ENDBRANCH   9  32
TORSDOF 12
ENDMDL
MODEL 3
REMARK VINA RESULT:      -6.5      3.855      5.833
REMARK  Name = NuBBE_194
REMARK  13 active torsions:
REMARK  status: ('A' for Active; 'I' for Inactive)
REMARK    1  A    between atoms: C_4  and  O_13
REMARK    2  A    between atoms: C_8  and  C_9
REMARK    3  A    between atoms: C_9  and  O_10
REMARK    4  A    between atoms: O_10  and  C_11
REMARK    5  A    between atoms: O_13  and  C_14
REMARK    6  A    between atoms: C_17  and  C_25
REMARK    7  A    between atoms: C_19  and  O_24
REMARK    8  A    between atoms: C_21  and  O_23
REMARK    9  A    between atoms: C_25  and  O_26
REMARK   10  A    between atoms: C_27  and  O_29
REMARK   11  A    between atoms: C_33  and  O_34
REMARK   12  A    between atoms: C_33  and  C_35
REMARK   13  A    between atoms: C_35  and  O_36
REMARK                            x       y       z     vdW  Elec       q    Type
REMARK                         _______ _______ _______ _____ _____    ______ ____
ROOT
ATOM      1  C   LIG A   1      -5.380   3.603 126.844  0.00  0.00    +0.064 C 
ATOM      2  C   LIG A   1      -6.818   4.173 126.878  0.00  0.00    +0.107 C 
ATOM      3  C   LIG A   1      -7.335   4.286 128.311  0.00  0.00    +0.316 C 
ATOM      4  O   LIG A   1      -6.399   5.011 129.146  0.00  0.00    -0.470 OA
ATOM      5  C   LIG A   1      -5.067   4.991 128.819  0.00  0.00    +0.201 C 
ATOM      6  C   LIG A   1      -4.510   4.376 127.762  0.00  0.00    +0.078 C 
ATOM      7  C   LIG A   1      -5.186   3.658 125.352  0.00  0.00    -0.019 C 
ATOM      8  C   LIG A   1      -6.373   3.485 124.740  0.00  0.00    +0.006 C 
ATOM      9  C   LIG A   1      -7.497   3.370 125.755  0.00  0.00    +0.116 C 
ENDROOT
BRANCH   6  10
ATOM     10  C   LIG A   1      -3.036   4.391 127.674  0.00  0.00    +0.338 C 
ATOM     11  O   LIG A   1      -2.363   5.421 127.728  0.00  0.00    -0.245 OA
BRANCH  10  12
ATOM     12  O   LIG A   1      -2.533   3.136 127.569  0.00  0.00    -0.465 OA
ATOM     13  C   LIG A   1      -1.584   2.978 126.510  0.00  0.00    +0.280 C 
ENDBRANCH  10  12
ENDBRANCH   6  10
BRANCH   9  14
ATOM     14  O   LIG A   1      -8.654   4.019 125.256  0.00  0.00    -0.382 OA
ATOM     15  H   LIG A   1      -9.427   3.464 125.459  0.00  0.00    +0.211 HD
ENDBRANCH   9  14
BRANCH   3  16
ATOM     16  O   LIG A   1      -8.634   4.873 128.518  0.00  0.00    -0.309 OA
BRANCH  16  17
ATOM     17  C   LIG A   1      -9.403   4.450 129.656  0.00  0.00    +0.286 C 
ATOM     18  O   LIG A   1     -10.763   4.897 129.667  0.00  0.00    -0.340 OA
ATOM     19  C   LIG A   1     -11.118   6.137 130.296  0.00  0.00    +0.178 C 
ATOM     20  C   LIG A   1     -10.324   6.529 131.559  0.00  0.00    +0.177 C 
ATOM     21  C   LIG A   1      -8.835   6.185 131.470  0.00  0.00    +0.179 C 
ATOM     22  C   LIG A   1      -8.654   4.741 130.981  0.00  0.00    +0.201 C 
BRANCH  21  23
ATOM     23  O   LIG A   1      -8.094   7.135 130.711  0.00  0.00    -0.386 OA
ATOM     24  H   LIG A   1      -7.219   6.760 130.474  0.00  0.00    +0.210 HD
ENDBRANCH  21  23
BRANCH  20  25
ATOM     25  O   LIG A   1     -10.879   5.812 132.683  0.00  0.00    -0.387 OA
ATOM     26  H   LIG A   1     -11.847   5.795 132.557  0.00  0.00    +0.210 HD
ENDBRANCH  20  25
BRANCH  22  27
ATOM     27  O   LIG A   1      -9.129   3.831 132.001  0.00  0.00    -0.384 OA
ATOM     28  H   LIG A   1     -10.011   4.154 132.292  0.00  0.00    +0.210 HD
ENDBRANCH  22  27
BRANCH  19  29
ATOM     29  C   LIG A   1     -11.158   7.281 129.282  0.00  0.00    +0.190 C 
BRANCH  29  30
ATOM     30  O   LIG A   1      -9.955   7.311 128.527  0.00  0.00    -0.392 OA
ATOM     31  H   LIG A   1      -9.389   6.619 128.934  0.00  0.00    +0.209 HD
ENDBRANCH  29  30
ENDBRANCH  19  29
ENDBRANCH  16  17
ENDBRANCH   3  16
BRANCH   9  32
ATOM     32  C   LIG A   1      -7.834   1.887 126.057  0.00  0.00    +0.195 C 
BRANCH  32  33
ATOM     33  O   LIG A   1      -9.080   1.764 126.755  0.00  0.00    -0.392 OA
ATOM     34  H   LIG A   1      -9.027   0.936 127.268  0.00  0.00    +0.209 HD
ENDBRANCH  32  33
ENDBRANCH   9  32
TORSDOF 12
ENDMDL
MODEL 4
REMARK VINA RESULT:      -6.5      2.886      6.770
REMARK  Name = NuBBE_194
REMARK  13 active torsions:
REMARK  status: ('A' for Active; 'I' for Inactive)
REMARK    1  A    between atoms: C_4  and  O_13
REMARK    2  A    between atoms: C_8  and  C_9
REMARK    3  A    between atoms: C_9  and  O_10
REMARK    4  A    between atoms: O_10  and  C_11
REMARK    5  A    between atoms: O_13  and  C_14
REMARK    6  A    between atoms: C_17  and  C_25
REMARK    7  A    between atoms: C_19  and  O_24
REMARK    8  A    between atoms: C_21  and  O_23
REMARK    9  A    between atoms: C_25  and  O_26
REMARK   10  A    between atoms: C_27  and  O_29
REMARK   11  A    between atoms: C_33  and  O_34
REMARK   12  A    between atoms: C_33  and  C_35
REMARK   13  A    between atoms: C_35  and  O_36
REMARK                            x       y       z     vdW  Elec       q    Type
REMARK                         _______ _______ _______ _____ _____    ______ ____
ROOT
ATOM      1  C   LIG A   1     -10.645   5.786 131.039  0.00  0.00    +0.064 C 
ATOM      2  C   LIG A   1      -9.149   5.614 130.686  0.00  0.00    +0.107 C 
ATOM      3  C   LIG A   1      -8.969   5.197 129.227  0.00  0.00    +0.316 C 
ATOM      4  O   LIG A   1      -9.681   6.092 128.338  0.00  0.00    -0.470 OA
ATOM      5  C   LIG A   1     -10.789   6.750 128.808  0.00  0.00    +0.201 C 
ATOM      6  C   LIG A   1     -11.297   6.677 130.050  0.00  0.00    +0.078 C 
ATOM      7  C   LIG A   1     -10.458   6.213 132.470  0.00  0.00    -0.019 C 
ATOM      8  C   LIG A   1      -9.346   5.638 132.967  0.00  0.00    +0.006 C 
ATOM      9  C   LIG A   1      -8.631   4.825 131.900  0.00  0.00    +0.116 C 
ENDROOT
BRANCH   6  10
ATOM     10  C   LIG A   1     -12.570   7.383 130.299  0.00  0.00    +0.338 C 
ATOM     11  O   LIG A   1     -13.253   7.216 131.311  0.00  0.00    -0.245 OA
BRANCH  10  12
ATOM     12  O   LIG A   1     -12.858   8.254 129.301  0.00  0.00    -0.465 OA
ATOM     13  C   LIG A   1     -12.945   9.616 129.727  0.00  0.00    +0.280 C 
ENDBRANCH  10  12
ENDBRANCH   6  10
BRANCH   9  14
ATOM     14  O   LIG A   1      -7.230   4.954 132.066  0.00  0.00    -0.382 OA
ATOM     15  H   LIG A   1      -7.039   5.012 133.019  0.00  0.00    +0.211 HD
ENDBRANCH   9  14
BRANCH   3  16
ATOM     16  O   LIG A   1      -7.627   5.070 128.719  0.00  0.00    -0.309 OA
BRANCH  16  17
ATOM     17  C   LIG A   1      -7.033   3.762 128.675  0.00  0.00    +0.286 C 
ATOM     18  O   LIG A   1      -6.106   3.483 129.729  0.00  0.00    -0.340 OA
ATOM     19  C   LIG A   1      -4.709   3.768 129.568  0.00  0.00    +0.178 C 
ATOM     20  C   LIG A   1      -4.119   3.579 128.155  0.00  0.00    +0.177 C 
ATOM     21  C   LIG A   1      -5.065   4.029 127.039  0.00  0.00    +0.179 C 
ATOM     22  C   LIG A   1      -6.468   3.449 127.266  0.00  0.00    +0.201 C 
BRANCH  21  23
ATOM     23  O   LIG A   1      -5.062   5.441 126.849  0.00  0.00    -0.386 OA
ATOM     24  H   LIG A   1      -4.741   5.653 125.946  0.00  0.00    +0.210 HD
ENDBRANCH  21  23
BRANCH  20  25
ATOM     25  O   LIG A   1      -3.844   2.174 127.964  0.00  0.00    -0.387 OA
ATOM     26  H   LIG A   1      -2.996   2.115 127.481  0.00  0.00    +0.210 HD
ENDBRANCH  20  25
BRANCH  22  27
ATOM     27  O   LIG A   1      -6.424   2.014 127.085  0.00  0.00    -0.384 OA
ATOM     28  H   LIG A   1      -6.968   1.613 127.799  0.00  0.00    +0.210 HD
ENDBRANCH  22  27
BRANCH  19  29
ATOM     29  C   LIG A   1      -4.353   5.139 130.144  0.00  0.00    +0.190 C 
BRANCH  29  30
ATOM     30  O   LIG A   1      -5.370   6.082 129.834  0.00  0.00    -0.392 OA
ATOM     31  H   LIG A   1      -5.687   6.400 130.708  0.00  0.00    +0.209 HD
ENDBRANCH  29  30
ENDBRANCH  19  29
ENDBRANCH  16  17
ENDBRANCH   3  16
BRANCH   9  32
ATOM     32  C   LIG A   1      -9.019   3.325 131.980  0.00  0.00    +0.195 C 
BRANCH  32  33
ATOM     33  O   LIG A   1      -9.687   3.023 133.211  0.00  0.00    -0.392 OA
ATOM     34  H   LIG A   1      -9.988   2.097 133.141  0.00  0.00    +0.209 HD
ENDBRANCH  32  33
ENDBRANCH   9  32
TORSDOF 12
ENDMDL
MODEL 5
REMARK VINA RESULT:      -6.2      2.880      5.097
REMARK  Name = NuBBE_194
REMARK  13 active torsions:
REMARK  status: ('A' for Active; 'I' for Inactive)
REMARK    1  A    between atoms: C_4  and  O_13
REMARK    2  A    between atoms: C_8  and  C_9
REMARK    3  A    between atoms: C_9  and  O_10
REMARK    4  A    between atoms: O_10  and  C_11
REMARK    5  A    between atoms: O_13  and  C_14
REMARK    6  A    between atoms: C_17  and  C_25
REMARK    7  A    between atoms: C_19  and  O_24
REMARK    8  A    between atoms: C_21  and  O_23
REMARK    9  A    between atoms: C_25  and  O_26
REMARK   10  A    between atoms: C_27  and  O_29
REMARK   11  A    between atoms: C_33  and  O_34
REMARK   12  A    between atoms: C_33  and  C_35
REMARK   13  A    between atoms: C_35  and  O_36
REMARK                            x       y       z     vdW  Elec       q    Type
REMARK                         _______ _______ _______ _____ _____    ______ ____
ROOT
ATOM      1  C   LIG A   1      -7.155   1.421 126.597  0.00  0.00    +0.064 C 
ATOM      2  C   LIG A   1      -7.144   2.699 127.469  0.00  0.00    +0.107 C 
ATOM      3  C   LIG A   1      -8.299   2.697 128.469  0.00  0.00    +0.316 C 
ATOM      4  O   LIG A   1      -8.323   1.466 129.233  0.00  0.00    -0.470 OA
ATOM      5  C   LIG A   1      -7.802   0.328 128.673  0.00  0.00    +0.201 C 
ATOM      6  C   LIG A   1      -7.229   0.220 127.462  0.00  0.00    +0.078 C 
ATOM      7  C   LIG A   1      -5.922   1.727 125.790  0.00  0.00    -0.019 C 
ATOM      8  C   LIG A   1      -5.796   3.061 125.654  0.00  0.00    +0.006 C 
ATOM      9  C   LIG A   1      -6.889   3.791 126.417  0.00  0.00    +0.116 C 
ENDROOT
BRANCH   6  10
ATOM     10  C   LIG A   1      -6.844  -1.134 127.018  0.00  0.00    +0.338 C 
ATOM     11  O   LIG A   1      -5.923  -1.779 127.522  0.00  0.00    -0.245 OA
BRANCH  10  12
ATOM     12  O   LIG A   1      -7.654  -1.580 126.026  0.00  0.00    -0.465 OA
ATOM     13  C   LIG A   1      -8.572  -2.596 126.440  0.00  0.00    +0.280 C 
ENDBRANCH  10  12
ENDBRANCH   6  10
BRANCH   9  14
ATOM     14  O   LIG A   1      -6.357   4.974 126.989  0.00  0.00    -0.382 OA
ATOM     15  H   LIG A   1      -5.936   5.493 126.282  0.00  0.00    +0.211 HD
ENDBRANCH   9  14
BRANCH   3  16
ATOM     16  O   LIG A   1      -8.384   3.785 129.408  0.00  0.00    -0.309 OA
BRANCH  16  17
ATOM     17  C   LIG A   1      -9.431   3.761 130.391  0.00  0.00    +0.286 C 
ATOM     18  O   LIG A   1     -10.671   4.339 129.968  0.00  0.00    -0.340 OA
ATOM     19  C   LIG A   1     -10.939   5.732 130.188  0.00  0.00    +0.178 C 
ATOM     20  C   LIG A   1     -10.371   6.354 131.481  0.00  0.00    +0.177 C 
ATOM     21  C   LIG A   1      -8.974   5.840 131.837  0.00  0.00    +0.179 C 
ATOM     22  C   LIG A   1      -8.936   4.308 131.754  0.00  0.00    +0.201 C 
BRANCH  21  23
ATOM     23  O   LIG A   1      -7.945   6.472 131.082  0.00  0.00    -0.386 OA
ATOM     24  H   LIG A   1      -7.620   5.860 130.388  0.00  0.00    +0.210 HD
ENDBRANCH  21  23
BRANCH  20  25
ATOM     25  O   LIG A   1     -11.258   6.022 132.570  0.00  0.00    -0.387 OA
ATOM     26  H   LIG A   1     -12.156   6.291 132.296  0.00  0.00    +0.210 HD
ENDBRANCH  20  25
BRANCH  22  27
ATOM     27  O   LIG A   1      -9.757   3.754 132.810  0.00  0.00    -0.384 OA
ATOM     28  H   LIG A   1      -9.527   4.231 133.638  0.00  0.00    +0.210 HD
ENDBRANCH  22  27
BRANCH  19  29
ATOM     29  C   LIG A   1     -10.578   6.566 128.959  0.00  0.00    +0.190 C 
BRANCH  29  30
ATOM     30  O   LIG A   1      -9.417   6.041 128.332  0.00  0.00    -0.392 OA
ATOM     31  H   LIG A   1      -9.534   5.066 128.369  0.00  0.00    +0.209 HD
ENDBRANCH  29  30
ENDBRANCH  19  29
ENDBRANCH  16  17
ENDBRANCH   3  16
BRANCH   9  32
ATOM     32  C   LIG A   1      -8.073   4.162 125.487  0.00  0.00    +0.195 C 
BRANCH  32  33
ATOM     33  O   LIG A   1      -8.393   5.556 125.577  0.00  0.00    -0.392 OA
ATOM     34  H   LIG A   1      -7.909   5.900 126.352  0.00  0.00    +0.209 HD
ENDBRANCH  32  33
ENDBRANCH   9  32
TORSDOF 12
ENDMDL
MODEL 6
REMARK VINA RESULT:      -6.1      2.950      6.697
REMARK  Name = NuBBE_194
REMARK  13 active torsions:
REMARK  status: ('A' for Active; 'I' for Inactive)
REMARK    1  A    between atoms: C_4  and  O_13
REMARK    2  A    between atoms: C_8  and  C_9
REMARK    3  A    between atoms: C_9  and  O_10
REMARK    4  A    between atoms: O_10  and  C_11
REMARK    5  A    between atoms: O_13  and  C_14
REMARK    6  A    between atoms: C_17  and  C_25
REMARK    7  A    between atoms: C_19  and  O_24
REMARK    8  A    between atoms: C_21  and  O_23
REMARK    9  A    between atoms: C_25  and  O_26
REMARK   10  A    between atoms: C_27  and  O_29
REMARK   11  A    between atoms: C_33  and  O_34
REMARK   12  A    between atoms: C_33  and  C_35
REMARK   13  A    between atoms: C_35  and  O_36
REMARK                            x       y       z     vdW  Elec       q    Type
REMARK                         _______ _______ _______ _____ _____    ______ ____
ROOT
ATOM      1  C   LIG A   1     -10.505   5.784 130.659  0.00  0.00    +0.064 C 
ATOM      2  C   LIG A   1      -9.015   5.459 130.399  0.00  0.00    +0.107 C 
ATOM      3  C   LIG A   1      -8.782   5.052 128.945  0.00  0.00    +0.316 C 
ATOM      4  O   LIG A   1      -9.335   6.035 128.035  0.00  0.00    -0.470 OA
ATOM      5  C   LIG A   1     -10.396   6.798 128.449  0.00  0.00    +0.201 C 
ATOM      6  C   LIG A   1     -10.992   6.757 129.653  0.00  0.00    +0.078 C 
ATOM      7  C   LIG A   1     -10.370   6.161 132.110  0.00  0.00    -0.019 C 
ATOM      8  C   LIG A   1      -9.361   5.461 132.663  0.00  0.00    +0.006 C 
ATOM      9  C   LIG A   1      -8.666   4.597 131.624  0.00  0.00    +0.116 C 
ENDROOT
BRANCH   6  10
ATOM     10  C   LIG A   1     -12.197   7.590 129.837  0.00  0.00    +0.338 C 
ATOM     11  O   LIG A   1     -13.184   7.226 130.478  0.00  0.00    -0.245 OA
BRANCH  10  12
ATOM     12  O   LIG A   1     -12.055   8.805 129.251  0.00  0.00    -0.465 OA
ATOM     13  C   LIG A   1     -13.084   9.737 129.593  0.00  0.00    +0.280 C 
ENDBRANCH  10  12
ENDBRANCH   6  10
BRANCH   9  14
ATOM     14  O   LIG A   1      -7.273   4.572 131.884  0.00  0.00    -0.382 OA
ATOM     15  H   LIG A   1      -7.090   3.842 132.500  0.00  0.00    +0.211 HD
ENDBRANCH   9  14
BRANCH   3  16
ATOM     16  O   LIG A   1      -7.431   4.792 128.522  0.00  0.00    -0.309 OA
BRANCH  16  17
ATOM     17  C   LIG A   1      -7.084   3.456 128.121  0.00  0.00    +0.286 C 
ATOM     18  O   LIG A   1      -5.823   3.333 127.456  0.00  0.00    -0.340 OA
ATOM     19  C   LIG A   1      -5.739   3.436 126.026  0.00  0.00    +0.178 C 
ATOM     20  C   LIG A   1      -6.927   2.875 125.218  0.00  0.00    +0.177 C 
ATOM     21  C   LIG A   1      -8.285   3.152 125.867  0.00  0.00    +0.179 C 
ATOM     22  C   LIG A   1      -8.248   2.778 127.355  0.00  0.00    +0.201 C 
BRANCH  21  23
ATOM     23  O   LIG A   1      -8.751   4.476 125.628  0.00  0.00    -0.386 OA
ATOM     24  H   LIG A   1      -8.377   4.812 124.786  0.00  0.00    +0.210 HD
ENDBRANCH  21  23
BRANCH  20  25
ATOM     25  O   LIG A   1      -6.768   1.443 125.114  0.00  0.00    -0.387 OA
ATOM     26  H   LIG A   1      -6.426   1.134 125.975  0.00  0.00    +0.210 HD
ENDBRANCH  20  25
BRANCH  22  27
ATOM     27  O   LIG A   1      -8.122   1.342 127.482  0.00  0.00    -0.384 OA
ATOM     28  H   LIG A   1      -9.012   0.991 127.710  0.00  0.00    +0.210 HD
ENDBRANCH  22  27
BRANCH  19  29
ATOM     29  C   LIG A   1      -5.389   4.859 125.593  0.00  0.00    +0.190 C 
BRANCH  29  30
ATOM     30  O   LIG A   1      -6.114   5.210 124.422  0.00  0.00    -0.392 OA
ATOM     31  H   LIG A   1      -5.778   4.598 123.730  0.00  0.00    +0.209 HD
ENDBRANCH  29  30
ENDBRANCH  19  29
ENDBRANCH  16  17
ENDBRANCH   3  16
BRANCH   9  32
ATOM     32  C   LIG A   1      -9.214   3.146 131.641  0.00  0.00    +0.195 C 
BRANCH  32  33
ATOM     33  O   LIG A   1      -9.815   2.828 132.902  0.00  0.00    -0.392 OA
ATOM     34  H   LIG A   1      -9.634   1.883 133.063  0.00  0.00    +0.209 HD
ENDBRANCH  32  33
ENDBRANCH   9  32
TORSDOF 12
ENDMDL
MODEL 7
REMARK VINA RESULT:      -6.1      3.496      6.254
REMARK  Name = NuBBE_194
REMARK  13 active torsions:
REMARK  status: ('A' for Active; 'I' for Inactive)
REMARK    1  A    between atoms: C_4  and  O_13
REMARK    2  A    between atoms: C_8  and  C_9
REMARK    3  A    between atoms: C_9  and  O_10
REMARK    4  A    between atoms: O_10  and  C_11
REMARK    5  A    between atoms: O_13  and  C_14
REMARK    6  A    between atoms: C_17  and  C_25
REMARK    7  A    between atoms: C_19  and  O_24
REMARK    8  A    between atoms: C_21  and  O_23
REMARK    9  A    between atoms: C_25  and  O_26
REMARK   10  A    between atoms: C_27  and  O_29
REMARK   11  A    between atoms: C_33  and  O_34
REMARK   12  A    between atoms: C_33  and  C_35
REMARK   13  A    between atoms: C_35  and  O_36
REMARK                            x       y       z     vdW  Elec       q    Type
REMARK                         _______ _______ _______ _____ _____    ______ ____
ROOT
ATOM      1  C   LIG A   1      -8.003   5.460 131.141  0.00  0.00    +0.064 C 
ATOM      2  C   LIG A   1      -7.250   5.192 129.816  0.00  0.00    +0.107 C 
ATOM      3  C   LIG A   1      -7.702   3.880 129.178  0.00  0.00    +0.316 C 
ATOM      4  O   LIG A   1      -9.144   3.832 129.051  0.00  0.00    -0.470 OA
ATOM      5  C   LIG A   1      -9.911   4.551 129.933  0.00  0.00    +0.201 C 
ATOM      6  C   LIG A   1      -9.464   5.343 130.923  0.00  0.00    +0.078 C 
ATOM      7  C   LIG A   1      -7.364   6.785 131.461  0.00  0.00    -0.019 C 
ATOM      8  C   LIG A   1      -6.110   6.808 130.971  0.00  0.00    +0.006 C 
ATOM      9  C   LIG A   1      -5.802   5.531 130.208  0.00  0.00    +0.116 C 
ENDROOT
BRANCH   6  10
ATOM     10  C   LIG A   1     -10.476   5.928 131.825  0.00  0.00    +0.338 C 
ATOM     11  O   LIG A   1     -10.205   6.418 132.922  0.00  0.00    -0.245 OA
BRANCH  10  12
ATOM     12  O   LIG A   1     -11.714   5.890 131.274  0.00  0.00    -0.465 OA
ATOM     13  C   LIG A   1     -12.462   7.097 131.448  0.00  0.00    +0.280 C 
ENDBRANCH  10  12
ENDBRANCH   6  10
BRANCH   9  14
ATOM     14  O   LIG A   1      -4.999   5.836 129.080  0.00  0.00    -0.382 OA
ATOM     15  H   LIG A   1      -5.552   6.298 128.427  0.00  0.00    +0.211 HD
ENDBRANCH   9  14
BRANCH   3  16
ATOM     16  O   LIG A   1      -7.149   3.524 127.897  0.00  0.00    -0.309 OA
BRANCH  16  17
ATOM     17  C   LIG A   1      -7.549   4.282 126.744  0.00  0.00    +0.286 C 
ATOM     18  O   LIG A   1      -8.716   3.795 126.074  0.00  0.00    -0.340 OA
ATOM     19  C   LIG A   1      -8.600   2.843 125.005  0.00  0.00    +0.178 C 
ATOM     20  C   LIG A   1      -7.365   2.973 124.089  0.00  0.00    +0.177 C 
ATOM     21  C   LIG A   1      -6.087   3.344 124.845  0.00  0.00    +0.179 C 
ATOM     22  C   LIG A   1      -6.353   4.525 125.788  0.00  0.00    +0.201 C 
BRANCH  21  23
ATOM     23  O   LIG A   1      -5.486   2.227 125.494  0.00  0.00    -0.386 OA
ATOM     24  H   LIG A   1      -4.523   2.214 125.307  0.00  0.00    +0.210 HD
ENDBRANCH  21  23
BRANCH  20  25
ATOM     25  O   LIG A   1      -7.627   4.012 123.122  0.00  0.00    -0.387 OA
ATOM     26  H   LIG A   1      -8.511   4.373 123.326  0.00  0.00    +0.210 HD
ENDBRANCH  20  25
BRANCH  22  27
ATOM     27  O   LIG A   1      -6.612   5.712 125.002  0.00  0.00    -0.384 OA
ATOM     28  H   LIG A   1      -7.322   5.487 124.360  0.00  0.00    +0.210 HD
ENDBRANCH  22  27
BRANCH  19  29
ATOM     29  C   LIG A   1      -8.771   1.413 125.516  0.00  0.00    +0.190 C 
BRANCH  29  30
ATOM     30  O   LIG A   1      -9.181   1.421 126.876  0.00  0.00    -0.392 OA
ATOM     31  H   LIG A   1      -9.079   2.357 127.159  0.00  0.00    +0.209 HD
ENDBRANCH  29  30
ENDBRANCH  19  29
ENDBRANCH  16  17
ENDBRANCH   3  16
BRANCH   9  32
ATOM     32  C   LIG A   1      -5.058   4.506 131.102  0.00  0.00    +0.195 C 
BRANCH  32  33
ATOM     33  O   LIG A   1      -4.292   3.584 130.316  0.00  0.00    -0.392 OA
ATOM     34  H   LIG A   1      -4.654   3.627 129.411  0.00  0.00    +0.209 HD
ENDBRANCH  32  33
ENDBRANCH   9  32
TORSDOF 12
ENDMDL
MODEL 8
REMARK VINA RESULT:      -6.1      3.865      6.777
REMARK  Name = NuBBE_194
REMARK  13 active torsions:
REMARK  status: ('A' for Active; 'I' for Inactive)
REMARK    1  A    between atoms: C_4  and  O_13
REMARK    2  A    between atoms: C_8  and  C_9
REMARK    3  A    between atoms: C_9  and  O_10
REMARK    4  A    between atoms: O_10  and  C_11
REMARK    5  A    between atoms: O_13  and  C_14
REMARK    6  A    between atoms: C_17  and  C_25
REMARK    7  A    between atoms: C_19  and  O_24
REMARK    8  A    between atoms: C_21  and  O_23
REMARK    9  A    between atoms: C_25  and  O_26
REMARK   10  A    between atoms: C_27  and  O_29
REMARK   11  A    between atoms: C_33  and  O_34
REMARK   12  A    between atoms: C_33  and  C_35
REMARK   13  A    between atoms: C_35  and  O_36
REMARK                            x       y       z     vdW  Elec       q    Type
REMARK                         _______ _______ _______ _____ _____    ______ ____
ROOT
ATOM      1  C   LIG A   1      -8.723   3.712 131.544  0.00  0.00    +0.064 C 
ATOM      2  C   LIG A   1      -7.283   4.231 131.769  0.00  0.00    +0.107 C 
ATOM      3  C   LIG A   1      -6.527   4.358 130.447  0.00  0.00    +0.316 C 
ATOM      4  O   LIG A   1      -7.286   5.133 129.486  0.00  0.00    -0.470 OA
ATOM      5  C   LIG A   1      -8.654   5.153 129.583  0.00  0.00    +0.201 C 
ATOM      6  C   LIG A   1      -9.400   4.534 130.514  0.00  0.00    +0.078 C 
ATOM      7  C   LIG A   1      -9.165   3.741 132.982  0.00  0.00    -0.019 C 
ATOM      8  C   LIG A   1      -8.105   3.514 133.781  0.00  0.00    +0.006 C 
ATOM      9  C   LIG A   1      -6.829   3.381 132.967  0.00  0.00    +0.116 C 
ENDROOT
BRANCH   6  10
ATOM     10  C   LIG A   1     -10.867   4.598 130.353  0.00  0.00    +0.338 C 
ATOM     11  O   LIG A   1     -11.580   3.603 130.217  0.00  0.00    -0.245 OA
BRANCH  10  12
ATOM     12  O   LIG A   1     -11.318   5.876 130.415  0.00  0.00    -0.465 OA
ATOM     13  C   LIG A   1     -11.563   6.339 131.746  0.00  0.00    +0.280 C 
ENDBRANCH  10  12
ENDBRANCH   6  10
BRANCH   9  14
ATOM     14  O   LIG A   1      -5.754   3.979 133.672  0.00  0.00    -0.382 OA
ATOM     15  H   LIG A   1      -5.120   3.280 133.912  0.00  0.00    +0.211 HD
ENDBRANCH   9  14
BRANCH   3  16
ATOM     16  O   LIG A   1      -5.195   4.904 130.478  0.00  0.00    -0.309 OA
BRANCH  16  17
ATOM     17  C   LIG A   1      -4.105   4.074 130.042  0.00  0.00    +0.286 C 
ATOM     18  O   LIG A   1      -2.854   4.752 129.889  0.00  0.00    -0.340 OA
ATOM     19  C   LIG A   1      -2.489   5.333 128.628  0.00  0.00    +0.178 C 
ATOM     20  C   LIG A   1      -2.954   4.591 127.359  0.00  0.00    +0.177 C 
ATOM     21  C   LIG A   1      -4.362   4.003 127.483  0.00  0.00    +0.179 C 
ATOM     22  C   LIG A   1      -4.500   3.232 128.803  0.00  0.00    +0.201 C 
BRANCH  21  23
ATOM     23  O   LIG A   1      -5.385   4.975 127.288  0.00  0.00    -0.386 OA
ATOM     24  H   LIG A   1      -6.195   4.538 126.948  0.00  0.00    +0.210 HD
ENDBRANCH  21  23
BRANCH  20  25
ATOM     25  O   LIG A   1      -2.039   3.502 127.110  0.00  0.00    -0.387 OA
ATOM     26  H   LIG A   1      -2.571   2.758 126.768  0.00  0.00    +0.210 HD
ENDBRANCH  20  25
BRANCH  22  27
ATOM     27  O   LIG A   1      -3.666   2.050 128.752  0.00  0.00    -0.384 OA
ATOM     28  H   LIG A   1      -2.863   2.236 129.288  0.00  0.00    +0.210 HD
ENDBRANCH  22  27
BRANCH  19  29
ATOM     29  C   LIG A   1      -2.855   6.817 128.575  0.00  0.00    +0.190 C 
BRANCH  29  30
ATOM     30  O   LIG A   1      -4.241   6.991 128.835  0.00  0.00    -0.392 OA
ATOM     31  H   LIG A   1      -4.604   7.365 128.002  0.00  0.00    +0.209 HD
ENDBRANCH  29  30
ENDBRANCH  19  29
ENDBRANCH  16  17
ENDBRANCH   3  16
BRANCH   9  32
ATOM     32  C   LIG A   1      -6.491   1.894 132.686  0.00  0.00    +0.195 C 
BRANCH  32  33
ATOM     33  O   LIG A   1      -6.992   1.039 133.721  0.00  0.00    -0.392 OA
ATOM     34  H   LIG A   1      -6.656   0.144 133.525  0.00  0.00    +0.209 HD
ENDBRANCH  32  33
ENDBRANCH   9  32
TORSDOF 12
ENDMDL
MODEL 9
REMARK VINA RESULT:      -6.0      4.121      5.782
REMARK  Name = NuBBE_194
REMARK  13 active torsions:
REMARK  status: ('A' for Active; 'I' for Inactive)
REMARK    1  A    between atoms: C_4  and  O_13
REMARK    2  A    between atoms: C_8  and  C_9
REMARK    3  A    between atoms: C_9  and  O_10
REMARK    4  A    between atoms: O_10  and  C_11
REMARK    5  A    between atoms: O_13  and  C_14
REMARK    6  A    between atoms: C_17  and  C_25
REMARK    7  A    between atoms: C_19  and  O_24
REMARK    8  A    between atoms: C_21  and  O_23
REMARK    9  A    between atoms: C_25  and  O_26
REMARK   10  A    between atoms: C_27  and  O_29
REMARK   11  A    between atoms: C_33  and  O_34
REMARK   12  A    between atoms: C_33  and  C_35
REMARK   13  A    between atoms: C_35  and  O_36
REMARK                            x       y       z     vdW  Elec       q    Type
REMARK                         _______ _______ _______ _____ _____    ______ ____
ROOT
ATOM      1  C   LIG A   1      -5.813   3.842 125.905  0.00  0.00    +0.064 C 
ATOM      2  C   LIG A   1      -6.528   3.626 127.259  0.00  0.00    +0.107 C 
ATOM      3  C   LIG A   1      -7.796   4.473 127.357  0.00  0.00    +0.316 C 
ATOM      4  O   LIG A   1      -8.649   4.268 126.205  0.00  0.00    -0.470 OA
ATOM      5  C   LIG A   1      -8.078   3.891 125.016  0.00  0.00    +0.201 C 
ATOM      6  C   LIG A   1      -6.773   3.659 124.792  0.00  0.00    +0.078 C 
ATOM      7  C   LIG A   1      -4.681   2.874 126.129  0.00  0.00    -0.019 C 
ATOM      8  C   LIG A   1      -4.395   2.816 127.443  0.00  0.00    +0.006 C 
ATOM      9  C   LIG A   1      -5.351   3.682 128.247  0.00  0.00    +0.116 C 
ENDROOT
BRANCH   6  10
ATOM     10  C   LIG A   1      -6.369   3.378 123.400  0.00  0.00    +0.338 C 
ATOM     11  O   LIG A   1      -6.640   2.329 122.812  0.00  0.00    -0.245 OA
BRANCH  10  12
ATOM     12  O   LIG A   1      -5.708   4.428 122.854  0.00  0.00    -0.465 OA
ATOM     13  C   LIG A   1      -5.300   4.215 121.499  0.00  0.00    +0.280 C 
ENDBRANCH  10  12
ENDBRANCH   6  10
BRANCH   9  14
ATOM     14  O   LIG A   1      -5.650   3.041 129.475  0.00  0.00    -0.382 OA
ATOM     15  H   LIG A   1      -5.442   2.094 129.385  0.00  0.00    +0.211 HD
ENDBRANCH   9  14
BRANCH   3  16
ATOM     16  O   LIG A   1      -8.620   4.327 128.529  0.00  0.00    -0.309 OA
BRANCH  16  17
ATOM     17  C   LIG A   1      -8.505   5.307 129.574  0.00  0.00    +0.286 C 
ATOM     18  O   LIG A   1      -7.938   4.825 130.796  0.00  0.00    -0.340 OA
ATOM     19  C   LIG A   1      -8.779   4.294 131.831  0.00  0.00    +0.178 C 
ATOM     20  C   LIG A   1     -10.166   4.948 132.004  0.00  0.00    +0.177 C 
ATOM     21  C   LIG A   1     -10.830   5.318 130.675  0.00  0.00    +0.179 C 
ATOM     22  C   LIG A   1      -9.837   6.071 129.778  0.00  0.00    +0.201 C 
BRANCH  21  23
ATOM     23  O   LIG A   1     -11.438   4.202 130.032  0.00  0.00    -0.386 OA
ATOM     24  H   LIG A   1     -12.409   4.334 129.990  0.00  0.00    +0.210 HD
ENDBRANCH  21  23
BRANCH  20  25
ATOM     25  O   LIG A   1     -10.002   6.160 132.772  0.00  0.00    -0.387 OA
ATOM     26  H   LIG A   1      -9.104   6.495 132.584  0.00  0.00    +0.210 HD
ENDBRANCH  20  25
BRANCH  22  27
ATOM     27  O   LIG A   1      -9.555   7.364 130.363  0.00  0.00    -0.384 OA
ATOM     28  H   LIG A   1     -10.411   7.840 130.446  0.00  0.00    +0.210 HD
ENDBRANCH  22  27
BRANCH  19  29
ATOM     29  C   LIG A   1      -8.886   2.772 131.733  0.00  0.00    +0.190 C 
BRANCH  29  30
ATOM     30  O   LIG A   1     -10.146   2.335 132.222  0.00  0.00    -0.392 OA
ATOM     31  H   LIG A   1     -10.406   1.605 131.617  0.00  0.00    +0.209 HD
ENDBRANCH  29  30
ENDBRANCH  19  29
ENDBRANCH  16  17
ENDBRANCH   3  16
BRANCH   9  32
ATOM     32  C   LIG A   1      -4.740   5.078 128.534  0.00  0.00    +0.195 C 
BRANCH  32  33
ATOM     33  O   LIG A   1      -5.338   5.683 129.687  0.00  0.00    -0.392 OA
ATOM     34  H   LIG A   1      -5.210   6.646 129.590  0.00  0.00    +0.209 HD
ENDBRANCH  32  33
ENDBRANCH   9  32
TORSDOF 12
ENDMDL
