MODEL 1
REMARK VINA RESULT:      -8.6      0.000      0.000
REMARK  Name = NuBBE_1574
REMARK  7 active torsions:
REMARK  status: ('A' for Active; 'I' for Inactive)
REMARK    1  A    between atoms: C_1  and  C_2
REMARK    2  A    between atoms: C_4  and  C_19
REMARK    3  A    between atoms: C_9  and  C_11
REMARK    4  A    between atoms: C_21  and  O_22
REMARK    5  A    between atoms: O_22  and  C_23
REMARK    6  A    between atoms: C_24  and  O_27
REMARK    7  A    between atoms: O_27  and  C_28
REMARK                            x       y       z     vdW  Elec       q    Type
REMARK                         _______ _______ _______ _____ _____    ______ ____
ROOT
ATOM      1  C   LIG A   1      -9.547  -3.331 123.403  0.00  0.00    +0.009 C 
ATOM      2  C   LIG A   1      -8.332  -3.201 124.345  0.00  0.00    +0.001 C 
ATOM      3  C   LIG A   1      -8.612  -2.110 125.420  0.00  0.00    +0.053 C 
ATOM      4  C   LIG A   1      -8.279  -0.695 124.972  0.00  0.00    -0.033 A 
ATOM      5  C   LIG A   1      -7.478  -0.437 123.828  0.00  0.00    -0.040 A 
ATOM      6  C   LIG A   1      -7.015  -1.541 122.910  0.00  0.00    +0.039 C 
ATOM      7  C   LIG A   1      -7.055  -2.954 123.508  0.00  0.00    -0.006 C 
ATOM      8  C   LIG A   1      -5.758  -3.272 124.258  0.00  0.00    +0.008 C 
ATOM      9  C   LIG A   1      -7.167   0.891 123.483  0.00  0.00    +0.053 A 
ATOM     10  C   LIG A   1      -7.649   1.913 124.269  0.00  0.00    +0.167 A 
ATOM     11  C   LIG A   1      -8.440   1.664 125.365  0.00  0.00    +0.167 A 
ATOM     12  C   LIG A   1      -8.770   0.386 125.735  0.00  0.00    +0.054 A 
ATOM     13  O   LIG A   1      -8.821   2.802 125.999  0.00  0.00    -0.453 OA
ATOM     14  C   LIG A   1      -8.165   3.801 125.186  0.00  0.00    +0.466 C 
ATOM     15  O   LIG A   1      -7.431   3.240 124.077  0.00  0.00    -0.453 OA
ENDROOT
BRANCH   3  16
ATOM     16  C   LIG A   1      -8.026  -2.483 126.787  0.00  0.00    -0.036 A 
ATOM     17  C   LIG A   1      -6.818  -1.958 127.267  0.00  0.00    +0.053 A 
ATOM     18  C   LIG A   1      -6.295  -2.315 128.522  0.00  0.00    +0.162 A 
ATOM     19  C   LIG A   1      -6.993  -3.229 129.326  0.00  0.00    +0.162 A 
ATOM     20  C   LIG A   1      -8.214  -3.739 128.868  0.00  0.00    +0.050 A 
ATOM     21  C   LIG A   1      -8.720  -3.375 127.613  0.00  0.00    +0.008 A 
BRANCH  18  22
ATOM     22  O   LIG A   1      -5.093  -1.709 128.785  0.00  0.00    -0.491 OA
ATOM     23  C   LIG A   1      -5.119  -0.457 129.458  0.00  0.00    +0.277 C 
ENDBRANCH  18  22
BRANCH  19  24
ATOM     24  O   LIG A   1      -6.480  -3.539 130.556  0.00  0.00    -0.491 OA
ATOM     25  C   LIG A   1      -5.656  -4.690 130.659  0.00  0.00    +0.277 C 
ENDBRANCH  19  24
ENDBRANCH   3  16
TORSDOF 3
ENDMDL
MODEL 2
REMARK VINA RESULT:      -7.7      1.508      6.133
REMARK  Name = NuBBE_1574
REMARK  7 active torsions:
REMARK  status: ('A' for Active; 'I' for Inactive)
REMARK    1  A    between atoms: C_1  and  C_2
REMARK    2  A    between atoms: C_4  and  C_19
REMARK    3  A    between atoms: C_9  and  C_11
REMARK    4  A    between atoms: C_21  and  O_22
REMARK    5  A    between atoms: O_22  and  C_23
REMARK    6  A    between atoms: C_24  and  O_27
REMARK    7  A    between atoms: O_27  and  C_28
REMARK                            x       y       z     vdW  Elec       q    Type
REMARK                         _______ _______ _______ _____ _____    ______ ____
ROOT
ATOM      1  C   LIG A   1      -5.720  -2.510 122.829  0.00  0.00    +0.009 C 
ATOM      2  C   LIG A   1      -6.883  -1.544 123.139  0.00  0.00    +0.001 C 
ATOM      3  C   LIG A   1      -6.700  -0.936 124.559  0.00  0.00    +0.053 C 
ATOM      4  C   LIG A   1      -7.261  -1.797 125.681  0.00  0.00    -0.033 A 
ATOM      5  C   LIG A   1      -8.158  -2.869 125.430  0.00  0.00    -0.040 A 
ATOM      6  C   LIG A   1      -8.510  -3.306 124.030  0.00  0.00    +0.039 C 
ATOM      7  C   LIG A   1      -8.230  -2.275 122.928  0.00  0.00    -0.006 C 
ATOM      8  C   LIG A   1      -9.420  -1.328 122.745  0.00  0.00    +0.008 C 
ATOM      9  C   LIG A   1      -8.678  -3.606 126.510  0.00  0.00    +0.053 A 
ATOM     10  C   LIG A   1      -8.303  -3.267 127.790  0.00  0.00    +0.167 A 
ATOM     11  C   LIG A   1      -7.421  -2.241 128.031  0.00  0.00    +0.167 A 
ATOM     12  C   LIG A   1      -6.887  -1.499 127.010  0.00  0.00    +0.054 A 
ATOM     13  O   LIG A   1      -7.171  -2.072 129.355  0.00  0.00    -0.453 OA
ATOM     14  C   LIG A   1      -8.012  -3.100 129.925  0.00  0.00    +0.466 C 
ATOM     15  O   LIG A   1      -8.723  -3.871 128.932  0.00  0.00    -0.453 OA
ENDROOT
BRANCH   3  16
ATOM     16  C   LIG A   1      -7.143   0.531 124.621  0.00  0.00    -0.036 A 
ATOM     17  C   LIG A   1      -6.486   1.554 123.924  0.00  0.00    +0.053 A 
ATOM     18  C   LIG A   1      -6.905   2.895 123.996  0.00  0.00    +0.162 A 
ATOM     19  C   LIG A   1      -8.010   3.231 124.792  0.00  0.00    +0.162 A 
ATOM     20  C   LIG A   1      -8.690   2.212 125.470  0.00  0.00    +0.050 A 
ATOM     21  C   LIG A   1      -8.259   0.882 125.391  0.00  0.00    +0.008 A 
BRANCH  18  22
ATOM     22  O   LIG A   1      -6.109   3.737 123.261  0.00  0.00    -0.491 OA
ATOM     23  C   LIG A   1      -6.173   3.636 121.845  0.00  0.00    +0.277 C 
ENDBRANCH  18  22
BRANCH  19  24
ATOM     24  O   LIG A   1      -8.418   4.536 124.823  0.00  0.00    -0.491 OA
ATOM     25  C   LIG A   1      -8.305   5.235 126.053  0.00  0.00    +0.277 C 
ENDBRANCH  19  24
ENDBRANCH   3  16
TORSDOF 3
ENDMDL
MODEL 3
REMARK VINA RESULT:      -7.4      8.192      9.929
REMARK  Name = NuBBE_1574
REMARK  7 active torsions:
REMARK  status: ('A' for Active; 'I' for Inactive)
REMARK    1  A    between atoms: C_1  and  C_2
REMARK    2  A    between atoms: C_4  and  C_19
REMARK    3  A    between atoms: C_9  and  C_11
REMARK    4  A    between atoms: C_21  and  O_22
REMARK    5  A    between atoms: O_22  and  C_23
REMARK    6  A    between atoms: C_24  and  O_27
REMARK    7  A    between atoms: O_27  and  C_28
REMARK                            x       y       z     vdW  Elec       q    Type
REMARK                         _______ _______ _______ _____ _____    ______ ____
ROOT
ATOM      1  C   LIG A   1      -7.964   5.642 134.910  0.00  0.00    +0.009 C 
ATOM      2  C   LIG A   1      -7.193   5.050 133.712  0.00  0.00    +0.001 C 
ATOM      3  C   LIG A   1      -7.198   6.060 132.529  0.00  0.00    +0.053 C 
ATOM      4  C   LIG A   1      -8.429   5.972 131.640  0.00  0.00    -0.033 A 
ATOM      5  C   LIG A   1      -9.309   4.857 131.682  0.00  0.00    -0.040 A 
ATOM      6  C   LIG A   1      -9.154   3.755 132.700  0.00  0.00    +0.039 C 
ATOM      7  C   LIG A   1      -7.773   3.659 133.362  0.00  0.00    -0.006 C 
ATOM      8  C   LIG A   1      -6.824   2.789 132.533  0.00  0.00    +0.008 C 
ATOM      9  C   LIG A   1     -10.409   4.808 130.808  0.00  0.00    +0.053 A 
ATOM     10  C   LIG A   1     -10.607   5.847 129.927  0.00  0.00    +0.167 A 
ATOM     11  C   LIG A   1      -9.766   6.934 129.898  0.00  0.00    +0.167 A 
ATOM     12  C   LIG A   1      -8.683   7.024 130.735  0.00  0.00    +0.054 A 
ATOM     13  O   LIG A   1     -10.136   7.852 128.970  0.00  0.00    -0.453 OA
ATOM     14  C   LIG A   1     -11.300   7.212 128.401  0.00  0.00    +0.466 C 
ATOM     15  O   LIG A   1     -11.611   5.943 129.016  0.00  0.00    -0.453 OA
ENDROOT
BRANCH   3  16
ATOM     16  C   LIG A   1      -5.872   6.053 131.757  0.00  0.00    -0.036 A 
ATOM     17  C   LIG A   1      -4.679   6.561 132.290  0.00  0.00    +0.053 A 
ATOM     18  C   LIG A   1      -3.474   6.549 131.566  0.00  0.00    +0.162 A 
ATOM     19  C   LIG A   1      -3.455   6.019 130.266  0.00  0.00    +0.162 A 
ATOM     20  C   LIG A   1      -4.635   5.484 129.736  0.00  0.00    +0.050 A 
ATOM     21  C   LIG A   1      -5.828   5.507 130.469  0.00  0.00    +0.008 A 
BRANCH  18  22
ATOM     22  O   LIG A   1      -2.435   7.117 132.259  0.00  0.00    -0.491 OA
ATOM     23  C   LIG A   1      -2.476   8.522 132.470  0.00  0.00    +0.277 C 
ENDBRANCH  18  22
BRANCH  19  24
ATOM     24  O   LIG A   1      -2.265   5.991 129.592  0.00  0.00    -0.491 OA
ATOM     25  C   LIG A   1      -2.197   6.658 128.341  0.00  0.00    +0.277 C 
ENDBRANCH  19  24
ENDBRANCH   3  16
TORSDOF 3
ENDMDL
MODEL 4
REMARK VINA RESULT:      -7.2      3.097      6.108
REMARK  Name = NuBBE_1574
REMARK  7 active torsions:
REMARK  status: ('A' for Active; 'I' for Inactive)
REMARK    1  A    between atoms: C_1  and  C_2
REMARK    2  A    between atoms: C_4  and  C_19
REMARK    3  A    between atoms: C_9  and  C_11
REMARK    4  A    between atoms: C_21  and  O_22
REMARK    5  A    between atoms: O_22  and  C_23
REMARK    6  A    between atoms: C_24  and  O_27
REMARK    7  A    between atoms: O_27  and  C_28
REMARK                            x       y       z     vdW  Elec       q    Type
REMARK                         _______ _______ _______ _____ _____    ______ ____
ROOT
ATOM      1  C   LIG A   1      -4.963  -2.438 129.007  0.00  0.00    +0.009 C 
ATOM      2  C   LIG A   1      -6.350  -2.446 128.332  0.00  0.00    +0.001 C 
ATOM      3  C   LIG A   1      -6.812  -0.986 128.056  0.00  0.00    +0.053 C 
ATOM      4  C   LIG A   1      -7.509  -0.320 129.233  0.00  0.00    -0.033 A 
ATOM      5  C   LIG A   1      -7.992  -1.067 130.340  0.00  0.00    -0.040 A 
ATOM      6  C   LIG A   1      -7.731  -2.546 130.484  0.00  0.00    +0.039 C 
ATOM      7  C   LIG A   1      -7.336  -3.273 129.191  0.00  0.00    -0.006 C 
ATOM      8  C   LIG A   1      -8.574  -3.742 128.423  0.00  0.00    +0.008 C 
ATOM      9  C   LIG A   1      -8.667  -0.405 131.382  0.00  0.00    +0.053 A 
ATOM     10  C   LIG A   1      -8.843   0.958 131.302  0.00  0.00    +0.167 A 
ATOM     11  C   LIG A   1      -8.358   1.683 130.238  0.00  0.00    +0.167 A 
ATOM     12  C   LIG A   1      -7.693   1.079 129.203  0.00  0.00    +0.054 A 
ATOM     13  O   LIG A   1      -8.624   3.009 130.350  0.00  0.00    -0.453 OA
ATOM     14  C   LIG A   1      -9.349   3.038 131.601  0.00  0.00    +0.466 C 
ATOM     15  O   LIG A   1      -9.478   1.738 132.215  0.00  0.00    -0.453 OA
ENDROOT
BRANCH   3  16
ATOM     16  C   LIG A   1      -7.574  -0.862 126.731  0.00  0.00    -0.036 A 
ATOM     17  C   LIG A   1      -7.254  -1.619 125.595  0.00  0.00    +0.053 A 
ATOM     18  C   LIG A   1      -7.963  -1.489 124.388  0.00  0.00    +0.162 A 
ATOM     19  C   LIG A   1      -9.021  -0.571 124.304  0.00  0.00    +0.162 A 
ATOM     20  C   LIG A   1      -9.365   0.170 125.441  0.00  0.00    +0.050 A 
ATOM     21  C   LIG A   1      -8.648   0.031 126.636  0.00  0.00    +0.008 A 
BRANCH  18  22
ATOM     22  O   LIG A   1      -7.471  -2.300 123.397  0.00  0.00    -0.491 OA
ATOM     23  C   LIG A   1      -6.439  -1.779 122.571  0.00  0.00    +0.277 C 
ENDBRANCH  18  22
BRANCH  19  24
ATOM     24  O   LIG A   1      -9.715  -0.482 123.128  0.00  0.00    -0.491 OA
ATOM     25  C   LIG A   1     -10.104   0.808 122.685  0.00  0.00    +0.277 C 
ENDBRANCH  19  24
ENDBRANCH   3  16
TORSDOF 3
ENDMDL
MODEL 5
REMARK VINA RESULT:      -7.2      3.224      6.447
REMARK  Name = NuBBE_1574
REMARK  7 active torsions:
REMARK  status: ('A' for Active; 'I' for Inactive)
REMARK    1  A    between atoms: C_1  and  C_2
REMARK    2  A    between atoms: C_4  and  C_19
REMARK    3  A    between atoms: C_9  and  C_11
REMARK    4  A    between atoms: C_21  and  O_22
REMARK    5  A    between atoms: O_22  and  C_23
REMARK    6  A    between atoms: C_24  and  O_27
REMARK    7  A    between atoms: O_27  and  C_28
REMARK                            x       y       z     vdW  Elec       q    Type
REMARK                         _______ _______ _______ _____ _____    ______ ____
ROOT
ATOM      1  C   LIG A   1     -10.186   0.493 122.734  0.00  0.00    +0.009 C 
ATOM      2  C   LIG A   1      -9.264   0.860 123.915  0.00  0.00    +0.001 C 
ATOM      3  C   LIG A   1      -7.782   0.579 123.535  0.00  0.00    +0.053 C 
ATOM      4  C   LIG A   1      -7.338  -0.856 123.777  0.00  0.00    -0.033 A 
ATOM      5  C   LIG A   1      -8.092  -1.750 124.583  0.00  0.00    -0.040 A 
ATOM      6  C   LIG A   1      -9.442  -1.378 125.144  0.00  0.00    +0.039 C 
ATOM      7  C   LIG A   1      -9.743   0.126 125.191  0.00  0.00    -0.006 C 
ATOM      8  C   LIG A   1      -9.226   0.751 126.489  0.00  0.00    +0.008 C 
ATOM      9  C   LIG A   1      -7.613  -3.054 124.807  0.00  0.00    +0.053 A 
ATOM     10  C   LIG A   1      -6.419  -3.433 124.236  0.00  0.00    +0.167 A 
ATOM     11  C   LIG A   1      -5.700  -2.573 123.441  0.00  0.00    +0.167 A 
ATOM     12  C   LIG A   1      -6.130  -1.295 123.193  0.00  0.00    +0.054 A 
ATOM     13  O   LIG A   1      -4.560  -3.137 122.965  0.00  0.00    -0.453 OA
ATOM     14  C   LIG A   1      -4.633  -4.449 123.567  0.00  0.00    +0.466 C 
ATOM     15  O   LIG A   1      -5.821  -4.646 124.364  0.00  0.00    -0.453 OA
ENDROOT
BRANCH   3  16
ATOM     16  C   LIG A   1      -6.828   1.630 124.115  0.00  0.00    -0.036 A 
ATOM     17  C   LIG A   1      -6.510   2.821 123.447  0.00  0.00    +0.053 A 
ATOM     18  C   LIG A   1      -5.630   3.771 123.994  0.00  0.00    +0.162 A 
ATOM     19  C   LIG A   1      -5.040   3.528 125.243  0.00  0.00    +0.162 A 
ATOM     20  C   LIG A   1      -5.372   2.354 125.931  0.00  0.00    +0.050 A 
ATOM     21  C   LIG A   1      -6.249   1.416 125.372  0.00  0.00    +0.008 A 
BRANCH  18  22
ATOM     22  O   LIG A   1      -5.436   4.848 123.166  0.00  0.00    -0.491 OA
ATOM     23  C   LIG A   1      -4.947   4.593 121.857  0.00  0.00    +0.277 C 
ENDBRANCH  18  22
BRANCH  19  24
ATOM     24  O   LIG A   1      -4.210   4.480 125.769  0.00  0.00    -0.491 OA
ATOM     25  C   LIG A   1      -3.722   4.279 127.086  0.00  0.00    +0.277 C 
ENDBRANCH  19  24
ENDBRANCH   3  16
TORSDOF 3
ENDMDL
MODEL 6
REMARK VINA RESULT:      -7.2      3.734      5.351
REMARK  Name = NuBBE_1574
REMARK  7 active torsions:
REMARK  status: ('A' for Active; 'I' for Inactive)
REMARK    1  A    between atoms: C_1  and  C_2
REMARK    2  A    between atoms: C_4  and  C_19
REMARK    3  A    between atoms: C_9  and  C_11
REMARK    4  A    between atoms: C_21  and  O_22
REMARK    5  A    between atoms: O_22  and  C_23
REMARK    6  A    between atoms: C_24  and  O_27
REMARK    7  A    between atoms: O_27  and  C_28
REMARK                            x       y       z     vdW  Elec       q    Type
REMARK                         _______ _______ _______ _____ _____    ______ ____
ROOT
ATOM      1  C   LIG A   1      -8.871  -3.716 128.464  0.00  0.00    +0.009 C 
ATOM      2  C   LIG A   1      -7.418  -3.347 128.830  0.00  0.00    +0.001 C 
ATOM      3  C   LIG A   1      -7.360  -2.816 130.292  0.00  0.00    +0.053 C 
ATOM      4  C   LIG A   1      -7.656  -1.330 130.426  0.00  0.00    -0.033 A 
ATOM      5  C   LIG A   1      -7.644  -0.457 129.306  0.00  0.00    -0.040 A 
ATOM      6  C   LIG A   1      -7.467  -0.965 127.897  0.00  0.00    +0.039 C 
ATOM      7  C   LIG A   1      -6.854  -2.367 127.775  0.00  0.00    -0.006 C 
ATOM      8  C   LIG A   1      -5.324  -2.299 127.757  0.00  0.00    +0.008 C 
ATOM      9  C   LIG A   1      -7.883   0.917 129.494  0.00  0.00    +0.053 A 
ATOM     10  C   LIG A   1      -8.124   1.383 130.767  0.00  0.00    +0.167 A 
ATOM     11  C   LIG A   1      -8.154   0.534 131.848  0.00  0.00    +0.167 A 
ATOM     12  C   LIG A   1      -7.930  -0.811 131.710  0.00  0.00    +0.054 A 
ATOM     13  O   LIG A   1      -8.418   1.184 133.010  0.00  0.00    -0.453 OA
ATOM     14  C   LIG A   1      -8.534   2.547 132.542  0.00  0.00    +0.466 C 
ATOM     15  O   LIG A   1      -8.361   2.675 131.114  0.00  0.00    -0.453 OA
ENDROOT
BRANCH   3  16
ATOM     16  C   LIG A   1      -6.087  -3.265 131.020  0.00  0.00    -0.036 A 
ATOM     17  C   LIG A   1      -4.982  -2.423 131.209  0.00  0.00    +0.053 A 
ATOM     18  C   LIG A   1      -3.822  -2.854 131.876  0.00  0.00    +0.162 A 
ATOM     19  C   LIG A   1      -3.755  -4.167 132.366  0.00  0.00    +0.162 A 
ATOM     20  C   LIG A   1      -4.864  -5.007 132.206  0.00  0.00    +0.050 A 
ATOM     21  C   LIG A   1      -6.011  -4.564 131.536  0.00  0.00    +0.008 A 
BRANCH  18  22
ATOM     22  O   LIG A   1      -2.852  -1.885 131.929  0.00  0.00    -0.491 OA
ATOM     23  C   LIG A   1      -2.933  -0.929 132.977  0.00  0.00    +0.277 C 
ENDBRANCH  18  22
BRANCH  19  24
ATOM     24  O   LIG A   1      -2.627  -4.556 133.037  0.00  0.00    -0.491 OA
ATOM     25  C   LIG A   1      -2.613  -4.405 134.448  0.00  0.00    +0.277 C 
ENDBRANCH  19  24
ENDBRANCH   3  16
TORSDOF 3
ENDMDL
MODEL 7
REMARK VINA RESULT:      -7.2      1.750      5.920
REMARK  Name = NuBBE_1574
REMARK  7 active torsions:
REMARK  status: ('A' for Active; 'I' for Inactive)
REMARK    1  A    between atoms: C_1  and  C_2
REMARK    2  A    between atoms: C_4  and  C_19
REMARK    3  A    between atoms: C_9  and  C_11
REMARK    4  A    between atoms: C_21  and  O_22
REMARK    5  A    between atoms: O_22  and  C_23
REMARK    6  A    between atoms: C_24  and  O_27
REMARK    7  A    between atoms: O_27  and  C_28
REMARK                            x       y       z     vdW  Elec       q    Type
REMARK                         _______ _______ _______ _____ _____    ______ ____
ROOT
ATOM      1  C   LIG A   1      -5.546  -3.941 123.928  0.00  0.00    +0.009 C 
ATOM      2  C   LIG A   1      -6.488  -2.721 123.972  0.00  0.00    +0.001 C 
ATOM      3  C   LIG A   1      -6.119  -1.811 125.179  0.00  0.00    +0.053 C 
ATOM      4  C   LIG A   1      -6.769  -2.223 126.491  0.00  0.00    -0.033 A 
ATOM      5  C   LIG A   1      -7.864  -3.127 126.537  0.00  0.00    -0.040 A 
ATOM      6  C   LIG A   1      -8.367  -3.837 125.304  0.00  0.00    +0.039 C 
ATOM      7  C   LIG A   1      -7.959  -3.204 123.967  0.00  0.00    -0.006 C 
ATOM      8  C   LIG A   1      -8.957  -2.124 123.541  0.00  0.00    +0.008 C 
ATOM      9  C   LIG A   1      -8.454  -3.441 127.775  0.00  0.00    +0.053 A 
ATOM     10  C   LIG A   1      -7.953  -2.860 128.918  0.00  0.00    +0.167 A 
ATOM     11  C   LIG A   1      -6.882  -1.999 128.875  0.00  0.00    +0.167 A 
ATOM     12  C   LIG A   1      -6.275  -1.669 127.691  0.00  0.00    +0.054 A 
ATOM     13  O   LIG A   1      -6.534  -1.543 130.105  0.00  0.00    -0.453 OA
ATOM     14  C   LIG A   1      -7.521  -2.202 130.931  0.00  0.00    +0.466 C 
ATOM     15  O   LIG A   1      -8.417  -3.051 130.180  0.00  0.00    -0.453 OA
ENDROOT
BRANCH   3  16
ATOM     16  C   LIG A   1      -6.274  -0.322 124.849  0.00  0.00    -0.036 A 
ATOM     17  C   LIG A   1      -5.852   0.698 125.714  0.00  0.00    +0.053 A 
ATOM     18  C   LIG A   1      -6.006   2.058 125.395  0.00  0.00    +0.162 A 
ATOM     19  C   LIG A   1      -6.606   2.419 124.179  0.00  0.00    +0.162 A 
ATOM     20  C   LIG A   1      -7.007   1.408 123.297  0.00  0.00    +0.050 A 
ATOM     21  C   LIG A   1      -6.848   0.057 123.630  0.00  0.00    +0.008 A 
BRANCH  18  22
ATOM     22  O   LIG A   1      -5.552   2.888 126.389  0.00  0.00    -0.491 OA
ATOM     23  C   LIG A   1      -4.185   3.276 126.349  0.00  0.00    +0.277 C 
ENDBRANCH  18  22
BRANCH  19  24
ATOM     24  O   LIG A   1      -6.719   3.748 123.877  0.00  0.00    -0.491 OA
ATOM     25  C   LIG A   1      -5.704   4.334 123.077  0.00  0.00    +0.277 C 
ENDBRANCH  19  24
ENDBRANCH   3  16
TORSDOF 3
ENDMDL
MODEL 8
REMARK VINA RESULT:      -7.1      6.672      9.735
REMARK  Name = NuBBE_1574
REMARK  7 active torsions:
REMARK  status: ('A' for Active; 'I' for Inactive)
REMARK    1  A    between atoms: C_1  and  C_2
REMARK    2  A    between atoms: C_4  and  C_19
REMARK    3  A    between atoms: C_9  and  C_11
REMARK    4  A    between atoms: C_21  and  O_22
REMARK    5  A    between atoms: O_22  and  C_23
REMARK    6  A    between atoms: C_24  and  O_27
REMARK    7  A    between atoms: O_27  and  C_28
REMARK                            x       y       z     vdW  Elec       q    Type
REMARK                         _______ _______ _______ _____ _____    ______ ____
ROOT
ATOM      1  C   LIG A   1      -1.512   5.106 132.664  0.00  0.00    +0.009 C 
ATOM      2  C   LIG A   1      -2.765   5.862 132.176  0.00  0.00    +0.001 C 
ATOM      3  C   LIG A   1      -3.816   4.849 131.635  0.00  0.00    +0.053 C 
ATOM      4  C   LIG A   1      -3.615   4.463 130.177  0.00  0.00    -0.033 A 
ATOM      5  C   LIG A   1      -2.772   5.209 129.311  0.00  0.00    -0.040 A 
ATOM      6  C   LIG A   1      -1.922   6.351 129.811  0.00  0.00    +0.039 C 
ATOM      7  C   LIG A   1      -2.348   6.949 131.158  0.00  0.00    -0.006 C 
ATOM      8  C   LIG A   1      -3.400   8.046 130.966  0.00  0.00    +0.008 C 
ATOM      9  C   LIG A   1      -2.656   4.832 127.961  0.00  0.00    +0.053 A 
ATOM     10  C   LIG A   1      -3.367   3.742 127.510  0.00  0.00    +0.167 A 
ATOM     11  C   LIG A   1      -4.168   3.010 128.353  0.00  0.00    +0.167 A 
ATOM     12  C   LIG A   1      -4.308   3.340 129.676  0.00  0.00    +0.054 A 
ATOM     13  O   LIG A   1      -4.773   1.972 127.722  0.00  0.00    -0.453 OA
ATOM     14  C   LIG A   1      -4.275   2.143 126.375  0.00  0.00    +0.466 C 
ATOM     15  O   LIG A   1      -3.370   3.260 126.240  0.00  0.00    -0.453 OA
ENDROOT
BRANCH   3  16
ATOM     16  C   LIG A   1      -5.251   5.268 131.975  0.00  0.00    -0.036 A 
ATOM     17  C   LIG A   1      -5.892   4.894 133.164  0.00  0.00    +0.053 A 
ATOM     18  C   LIG A   1      -7.210   5.286 133.456  0.00  0.00    +0.162 A 
ATOM     19  C   LIG A   1      -7.918   6.071 132.534  0.00  0.00    +0.162 A 
ATOM     20  C   LIG A   1      -7.277   6.473 131.355  0.00  0.00    +0.050 A 
ATOM     21  C   LIG A   1      -5.964   6.072 131.078  0.00  0.00    +0.008 A 
BRANCH  18  22
ATOM     22  O   LIG A   1      -7.655   4.790 134.656  0.00  0.00    -0.491 OA
ATOM     23  C   LIG A   1      -7.499   5.611 135.806  0.00  0.00    +0.277 C 
ENDBRANCH  18  22
BRANCH  19  24
ATOM     24  O   LIG A   1      -9.189   6.465 132.852  0.00  0.00    -0.491 OA
ATOM     25  C   LIG A   1     -10.267   5.680 132.365  0.00  0.00    +0.277 C 
ENDBRANCH  19  24
ENDBRANCH   3  16
TORSDOF 3
ENDMDL
MODEL 9
REMARK VINA RESULT:      -7.0      3.159      5.310
REMARK  Name = NuBBE_1574
REMARK  7 active torsions:
REMARK  status: ('A' for Active; 'I' for Inactive)
REMARK    1  A    between atoms: C_1  and  C_2
REMARK    2  A    between atoms: C_4  and  C_19
REMARK    3  A    between atoms: C_9  and  C_11
REMARK    4  A    between atoms: C_21  and  O_22
REMARK    5  A    between atoms: O_22  and  C_23
REMARK    6  A    between atoms: C_24  and  O_27
REMARK    7  A    between atoms: O_27  and  C_28
REMARK                            x       y       z     vdW  Elec       q    Type
REMARK                         _______ _______ _______ _____ _____    ______ ____
ROOT
ATOM      1  C   LIG A   1      -6.183  -4.211 130.392  0.00  0.00    +0.009 C 
ATOM      2  C   LIG A   1      -6.142  -2.673 130.281  0.00  0.00    +0.001 C 
ATOM      3  C   LIG A   1      -7.403  -2.163 129.526  0.00  0.00    +0.053 C 
ATOM      4  C   LIG A   1      -7.265  -2.167 128.011  0.00  0.00    -0.033 A 
ATOM      5  C   LIG A   1      -6.003  -2.293 127.371  0.00  0.00    -0.040 A 
ATOM      6  C   LIG A   1      -4.737  -2.562 128.145  0.00  0.00    +0.039 C 
ATOM      7  C   LIG A   1      -4.800  -2.238 129.644  0.00  0.00    -0.006 C 
ATOM      8  C   LIG A   1      -4.443  -0.772 129.907  0.00  0.00    +0.008 C 
ATOM      9  C   LIG A   1      -5.929  -2.248 125.967  0.00  0.00    +0.053 A 
ATOM     10  C   LIG A   1      -7.089  -2.082 125.244  0.00  0.00    +0.167 A 
ATOM     11  C   LIG A   1      -8.312  -1.978 125.863  0.00  0.00    +0.167 A 
ATOM     12  C   LIG A   1      -8.430  -2.020 127.228  0.00  0.00    +0.054 A 
ATOM     13  O   LIG A   1      -9.330  -1.831 124.978  0.00  0.00    -0.453 OA
ATOM     14  C   LIG A   1      -8.608  -1.835 123.726  0.00  0.00    +0.466 C 
ATOM     15  O   LIG A   1      -7.184  -2.009 123.890  0.00  0.00    -0.453 OA
ENDROOT
BRANCH   3  16
ATOM     16  C   LIG A   1      -7.924  -0.839 130.099  0.00  0.00    -0.036 A 
ATOM     17  C   LIG A   1      -7.915   0.360 129.374  0.00  0.00    +0.053 A 
ATOM     18  C   LIG A   1      -8.394   1.565 129.918  0.00  0.00    +0.162 A 
ATOM     19  C   LIG A   1      -8.894   1.580 131.229  0.00  0.00    +0.162 A 
ATOM     20  C   LIG A   1      -8.933   0.381 131.952  0.00  0.00    +0.050 A 
ATOM     21  C   LIG A   1      -8.449  -0.810 131.396  0.00  0.00    +0.008 A 
BRANCH  18  22
ATOM     22  O   LIG A   1      -8.268   2.622 129.052  0.00  0.00    -0.491 OA
ATOM     23  C   LIG A   1      -7.486   2.426 127.882  0.00  0.00    +0.277 C 
ENDBRANCH  18  22
BRANCH  19  24
ATOM     24  O   LIG A   1      -9.382   2.757 131.727  0.00  0.00    -0.491 OA
ATOM     25  C   LIG A   1      -9.240   2.996 133.119  0.00  0.00    +0.277 C 
ENDBRANCH  19  24
ENDBRANCH   3  16
TORSDOF 3
ENDMDL
