MODEL 1
REMARK VINA RESULT:      -8.4      0.000      0.000
REMARK  Name = NuBBE_1590
REMARK  10 active torsions:
REMARK  status: ('A' for Active; 'I' for Inactive)
REMARK    1  A    between atoms: C_1  and  O_2
REMARK    2  A    between atoms: O_2  and  C_3
REMARK    3  A    between atoms: C_6  and  C_7
REMARK    4  A    between atoms: C_6  and  C_8
REMARK    5  A    between atoms: C_12  and  O_13
REMARK    6  A    between atoms: C_17  and  C_18
REMARK    7  A    between atoms: C_21  and  O_22
REMARK    8  A    between atoms: O_22  and  C_23
REMARK    9  A    between atoms: C_24  and  O_25
REMARK   10  A    between atoms: O_25  and  C_26
REMARK                            x       y       z     vdW  Elec       q    Type
REMARK                         _______ _______ _______ _____ _____    ______ ____
ROOT
ATOM      1  C   LIG A   1      -8.640   1.817 128.999  0.00  0.00    +0.206 A 
ATOM      2  C   LIG A   1      -8.004   0.587 129.273  0.00  0.00    +0.177 A 
ATOM      3  O   LIG A   1      -7.640  -0.201 128.217  0.00  0.00    -0.478 OA
ATOM      4  C   LIG A   1      -6.869  -1.398 128.416  0.00  0.00    +0.124 C 
ATOM      5  C   LIG A   1      -5.474  -1.125 127.843  0.00  0.00    +0.060 C 
ATOM      6  C   LIG A   1      -7.570  -2.480 127.588  0.00  0.00    +0.060 C 
ATOM      7  C   LIG A   1      -6.751  -1.855 129.843  0.00  0.00    +0.020 C 
ATOM      8  C   LIG A   1      -7.177  -1.120 130.872  0.00  0.00    +0.015 C 
ATOM      9  C   LIG A   1      -7.783   0.178 130.602  0.00  0.00    +0.062 A 
ATOM     10  C   LIG A   1      -8.172   1.012 131.660  0.00  0.00    +0.142 A 
ATOM     11  C   LIG A   1      -8.793   2.231 131.389  0.00  0.00    +0.110 A 
ATOM     12  C   LIG A   1      -9.037   2.631 130.084  0.00  0.00    +0.188 A 
ATOM     13  O   LIG A   1      -9.670   3.823 129.793  0.00  0.00    -0.451 OA
ATOM     14  C   LIG A   1     -10.084   4.658 130.833  0.00  0.00    +0.140 A 
ATOM     15  C   LIG A   1      -9.897   4.358 132.121  0.00  0.00    +0.098 A 
ATOM     16  C   LIG A   1      -9.208   3.117 132.481  0.00  0.00    +0.197 A 
ATOM     17  O   LIG A   1      -8.987   2.833 133.646  0.00  0.00    -0.287 OA
ENDROOT
BRANCH  14  18
ATOM     18  C   LIG A   1     -10.772   5.896 130.390  0.00  0.00    +0.021 A 
ATOM     19  C   LIG A   1     -11.842   6.399 131.136  0.00  0.00    +0.015 A 
ATOM     20  C   LIG A   1     -12.519   7.554 130.742  0.00  0.00    +0.050 A 
ATOM     21  C   LIG A   1     -12.139   8.263 129.599  0.00  0.00    +0.162 A 
ATOM     22  C   LIG A   1     -11.057   7.794 128.842  0.00  0.00    +0.162 A 
ATOM     23  C   LIG A   1     -10.408   6.606 129.229  0.00  0.00    +0.061 A 
BRANCH  21  24
ATOM     24  O   LIG A   1     -12.782   9.393 129.178  0.00  0.00    -0.491 OA
ATOM     25  C   LIG A   1     -13.233  10.300 130.168  0.00  0.00    +0.277 C 
ENDBRANCH  21  24
BRANCH  22  26
ATOM     26  O   LIG A   1     -10.541   8.361 127.700  0.00  0.00    -0.491 OA
ATOM     27  C   LIG A   1     -10.878   7.734 126.465  0.00  0.00    +0.277 C 
ENDBRANCH  22  26
ENDBRANCH  14  18
BRANCH   1  29
ATOM     28  C   LIG A   1      -7.917   2.872 126.947  0.00  0.00    +0.277 C 
ATOM     29  O   LIG A   1      -8.949   2.338 127.765  0.00  0.00    -0.488 OA
ENDBRANCH   1  29
BRANCH  10  30
ATOM     30  O   LIG A   1      -7.926   0.597 132.948  0.00  0.00    -0.505 OA
ATOM     31  H   LIG A   1      -7.457   1.318 133.427  0.00  0.00    +0.292 HD
ENDBRANCH  10  30
TORSDOF 5
ENDMDL
MODEL 2
REMARK VINA RESULT:      -8.1      2.481      3.927
REMARK  Name = NuBBE_1590
REMARK  10 active torsions:
REMARK  status: ('A' for Active; 'I' for Inactive)
REMARK    1  A    between atoms: C_1  and  O_2
REMARK    2  A    between atoms: O_2  and  C_3
REMARK    3  A    between atoms: C_6  and  C_7
REMARK    4  A    between atoms: C_6  and  C_8
REMARK    5  A    between atoms: C_12  and  O_13
REMARK    6  A    between atoms: C_17  and  C_18
REMARK    7  A    between atoms: C_21  and  O_22
REMARK    8  A    between atoms: O_22  and  C_23
REMARK    9  A    between atoms: C_24  and  O_25
REMARK   10  A    between atoms: O_25  and  C_26
REMARK                            x       y       z     vdW  Elec       q    Type
REMARK                         _______ _______ _______ _____ _____    ______ ____
ROOT
ATOM      1  C   LIG A   1      -8.690   0.594 126.242  0.00  0.00    +0.206 A 
ATOM      2  C   LIG A   1      -8.191  -0.613 125.706  0.00  0.00    +0.177 A 
ATOM      3  O   LIG A   1      -8.441  -0.888 124.391  0.00  0.00    -0.478 OA
ATOM      4  C   LIG A   1      -7.850  -2.028 123.746  0.00  0.00    +0.124 C 
ATOM      5  C   LIG A   1      -6.815  -1.487 122.753  0.00  0.00    +0.060 C 
ATOM      6  C   LIG A   1      -8.994  -2.709 122.987  0.00  0.00    +0.060 C 
ATOM      7  C   LIG A   1      -7.198  -3.020 124.668  0.00  0.00    +0.020 C 
ATOM      8  C   LIG A   1      -7.023  -2.786 125.969  0.00  0.00    +0.015 C 
ATOM      9  C   LIG A   1      -7.483  -1.517 126.521  0.00  0.00    +0.062 A 
ATOM     10  C   LIG A   1      -7.247  -1.202 127.867  0.00  0.00    +0.142 A 
ATOM     11  C   LIG A   1      -7.733  -0.006 128.394  0.00  0.00    +0.110 A 
ATOM     12  C   LIG A   1      -8.453   0.879 127.606  0.00  0.00    +0.188 A 
ATOM     13  O   LIG A   1      -8.962   2.058 128.112  0.00  0.00    -0.451 OA
ATOM     14  C   LIG A   1      -8.756   2.380 129.456  0.00  0.00    +0.140 A 
ATOM     15  C   LIG A   1      -8.079   1.590 130.294  0.00  0.00    +0.098 A 
ATOM     16  C   LIG A   1      -7.497   0.340 129.799  0.00  0.00    +0.197 A 
ATOM     17  O   LIG A   1      -6.841  -0.382 130.529  0.00  0.00    -0.287 OA
ENDROOT
BRANCH  14  18
ATOM     18  C   LIG A   1      -9.373   3.660 129.882  0.00  0.00    +0.021 A 
ATOM     19  C   LIG A   1     -10.723   3.692 130.245  0.00  0.00    +0.015 A 
ATOM     20  C   LIG A   1     -11.339   4.880 130.640  0.00  0.00    +0.050 A 
ATOM     21  C   LIG A   1     -10.623   6.079 130.707  0.00  0.00    +0.162 A 
ATOM     22  C   LIG A   1      -9.264   6.074 130.370  0.00  0.00    +0.162 A 
ATOM     23  C   LIG A   1      -8.664   4.877 129.935  0.00  0.00    +0.061 A 
BRANCH  21  24
ATOM     24  O   LIG A   1     -11.193   7.263 131.083  0.00  0.00    -0.491 OA
ATOM     25  C   LIG A   1     -12.605   7.306 131.199  0.00  0.00    +0.277 C 
ENDBRANCH  21  24
BRANCH  22  26
ATOM     26  O   LIG A   1      -8.405   7.149 130.385  0.00  0.00    -0.491 OA
ATOM     27  C   LIG A   1      -7.180   6.981 131.094  0.00  0.00    +0.277 C 
ENDBRANCH  22  26
ENDBRANCH  14  18
BRANCH   1  29
ATOM     28  C   LIG A   1      -8.763   2.461 124.709  0.00  0.00    +0.277 C 
ATOM     29  O   LIG A   1      -9.419   1.557 125.587  0.00  0.00    -0.488 OA
ENDBRANCH   1  29
BRANCH  10  30
ATOM     30  O   LIG A   1      -6.535  -2.094 128.634  0.00  0.00    -0.505 OA
ATOM     31  H   LIG A   1      -6.614  -2.989 128.232  0.00  0.00    +0.292 HD
ENDBRANCH  10  30
TORSDOF 5
ENDMDL
MODEL 3
REMARK VINA RESULT:      -7.9      1.787      2.500
REMARK  Name = NuBBE_1590
REMARK  10 active torsions:
REMARK  status: ('A' for Active; 'I' for Inactive)
REMARK    1  A    between atoms: C_1  and  O_2
REMARK    2  A    between atoms: O_2  and  C_3
REMARK    3  A    between atoms: C_6  and  C_7
REMARK    4  A    between atoms: C_6  and  C_8
REMARK    5  A    between atoms: C_12  and  O_13
REMARK    6  A    between atoms: C_17  and  C_18
REMARK    7  A    between atoms: C_21  and  O_22
REMARK    8  A    between atoms: O_22  and  C_23
REMARK    9  A    between atoms: C_24  and  O_25
REMARK   10  A    between atoms: O_25  and  C_26
REMARK                            x       y       z     vdW  Elec       q    Type
REMARK                         _______ _______ _______ _____ _____    ______ ____
ROOT
ATOM      1  C   LIG A   1      -8.422   2.139 131.486  0.00  0.00    +0.206 A 
ATOM      2  C   LIG A   1      -7.585   1.192 132.114  0.00  0.00    +0.177 A 
ATOM      3  O   LIG A   1      -7.488  -0.054 131.559  0.00  0.00    -0.478 OA
ATOM      4  C   LIG A   1      -6.553  -1.021 132.065  0.00  0.00    +0.124 C 
ATOM      5  C   LIG A   1      -5.463  -1.182 131.000  0.00  0.00    +0.060 C 
ATOM      6  C   LIG A   1      -7.345  -2.325 132.202  0.00  0.00    +0.060 C 
ATOM      7  C   LIG A   1      -5.924  -0.674 133.386  0.00  0.00    +0.020 C 
ATOM      8  C   LIG A   1      -6.082   0.516 133.968  0.00  0.00    +0.015 C 
ATOM      9  C   LIG A   1      -6.898   1.521 133.298  0.00  0.00    +0.062 A 
ATOM     10  C   LIG A   1      -7.023   2.808 133.840  0.00  0.00    +0.142 A 
ATOM     11  C   LIG A   1      -7.844   3.746 133.214  0.00  0.00    +0.110 A 
ATOM     12  C   LIG A   1      -8.545   3.423 132.062  0.00  0.00    +0.188 A 
ATOM     13  O   LIG A   1      -9.379   4.329 131.438  0.00  0.00    -0.451 OA
ATOM     14  C   LIG A   1      -9.534   5.609 131.974  0.00  0.00    +0.140 A 
ATOM     15  C   LIG A   1      -8.905   6.012 133.081  0.00  0.00    +0.098 A 
ATOM     16  C   LIG A   1      -7.989   5.096 133.766  0.00  0.00    +0.197 A 
ATOM     17  O   LIG A   1      -7.370   5.447 134.756  0.00  0.00    -0.287 OA
ENDROOT
BRANCH  14  18
ATOM     18  C   LIG A   1     -10.476   6.478 131.226  0.00  0.00    +0.021 A 
ATOM     19  C   LIG A   1     -11.773   6.673 131.711  0.00  0.00    +0.015 A 
ATOM     20  C   LIG A   1     -12.688   7.475 131.027  0.00  0.00    +0.050 A 
ATOM     21  C   LIG A   1     -12.336   8.129 129.843  0.00  0.00    +0.162 A 
ATOM     22  C   LIG A   1     -11.036   7.969 129.344  0.00  0.00    +0.162 A 
ATOM     23  C   LIG A   1     -10.135   7.126 130.022  0.00  0.00    +0.061 A 
BRANCH  21  24
ATOM     24  O   LIG A   1     -13.206   8.915 129.142  0.00  0.00    -0.491 OA
ATOM     25  C   LIG A   1     -13.312  10.277 129.520  0.00  0.00    +0.277 C 
ENDBRANCH  21  24
BRANCH  22  26
ATOM     26  O   LIG A   1     -10.512   8.537 128.206  0.00  0.00    -0.491 OA
ATOM     27  C   LIG A   1     -10.824   7.900 126.969  0.00  0.00    +0.277 C 
ENDBRANCH  22  26
ENDBRANCH  14  18
BRANCH   1  29
ATOM     28  C   LIG A   1      -8.555   2.035 129.074  0.00  0.00    +0.277 C 
ATOM     29  O   LIG A   1      -9.176   1.960 130.350  0.00  0.00    -0.488 OA
ENDBRANCH   1  29
BRANCH  10  30
ATOM     30  O   LIG A   1      -6.325   3.108 134.986  0.00  0.00    -0.505 OA
ATOM     31  H   LIG A   1      -5.361   3.072 134.786  0.00  0.00    +0.292 HD
ENDBRANCH  10  30
TORSDOF 5
ENDMDL
MODEL 4
REMARK VINA RESULT:      -7.8      2.269      8.591
REMARK  Name = NuBBE_1590
REMARK  10 active torsions:
REMARK  status: ('A' for Active; 'I' for Inactive)
REMARK    1  A    between atoms: C_1  and  O_2
REMARK    2  A    between atoms: O_2  and  C_3
REMARK    3  A    between atoms: C_6  and  C_7
REMARK    4  A    between atoms: C_6  and  C_8
REMARK    5  A    between atoms: C_12  and  O_13
REMARK    6  A    between atoms: C_17  and  C_18
REMARK    7  A    between atoms: C_21  and  O_22
REMARK    8  A    between atoms: O_22  and  C_23
REMARK    9  A    between atoms: C_24  and  O_25
REMARK   10  A    between atoms: O_25  and  C_26
REMARK                            x       y       z     vdW  Elec       q    Type
REMARK                         _______ _______ _______ _____ _____    ______ ____
ROOT
ATOM      1  C   LIG A   1      -8.683   2.691 128.827  0.00  0.00    +0.206 A 
ATOM      2  C   LIG A   1      -9.080   3.535 129.886  0.00  0.00    +0.177 A 
ATOM      3  O   LIG A   1      -9.421   4.825 129.592  0.00  0.00    -0.478 OA
ATOM      4  C   LIG A   1      -9.965   5.697 130.597  0.00  0.00    +0.124 C 
ATOM      5  C   LIG A   1     -11.438   5.921 130.238  0.00  0.00    +0.060 C 
ATOM      6  C   LIG A   1      -9.189   7.012 130.462  0.00  0.00    +0.060 C 
ATOM      7  C   LIG A   1      -9.857   5.193 132.009  0.00  0.00    +0.020 C 
ATOM      8  C   LIG A   1      -9.450   3.957 132.303  0.00  0.00    +0.015 C 
ATOM      9  C   LIG A   1      -9.092   3.059 131.211  0.00  0.00    +0.062 A 
ATOM     10  C   LIG A   1      -8.733   1.730 131.477  0.00  0.00    +0.142 A 
ATOM     11  C   LIG A   1      -8.348   0.894 130.429  0.00  0.00    +0.110 A 
ATOM     12  C   LIG A   1      -8.310   1.361 129.123  0.00  0.00    +0.188 A 
ATOM     13  O   LIG A   1      -7.911   0.558 128.073  0.00  0.00    -0.451 OA
ATOM     14  C   LIG A   1      -7.530  -0.764 128.319  0.00  0.00    +0.140 A 
ATOM     15  C   LIG A   1      -7.531  -1.302 129.542  0.00  0.00    +0.098 A 
ATOM     16  C   LIG A   1      -7.969  -0.498 130.685  0.00  0.00    +0.197 A 
ATOM     17  O   LIG A   1      -8.018  -0.973 131.808  0.00  0.00    -0.287 OA
ENDROOT
BRANCH  14  18
ATOM     18  C   LIG A   1      -7.100  -1.513 127.113  0.00  0.00    +0.021 A 
ATOM     19  C   LIG A   1      -5.788  -1.385 126.649  0.00  0.00    +0.015 A 
ATOM     20  C   LIG A   1      -5.353  -2.067 125.511  0.00  0.00    +0.050 A 
ATOM     21  C   LIG A   1      -6.207  -2.918 124.806  0.00  0.00    +0.162 A 
ATOM     22  C   LIG A   1      -7.522  -3.083 125.260  0.00  0.00    +0.162 A 
ATOM     23  C   LIG A   1      -7.960  -2.360 126.385  0.00  0.00    +0.061 A 
BRANCH  21  24
ATOM     24  O   LIG A   1      -5.819  -3.596 123.685  0.00  0.00    -0.491 OA
ATOM     25  C   LIG A   1      -4.577  -4.277 123.724  0.00  0.00    +0.277 C 
ENDBRANCH  21  24
BRANCH  22  26
ATOM     26  O   LIG A   1      -8.495  -3.880 124.702  0.00  0.00    -0.491 OA
ATOM     27  C   LIG A   1      -9.355  -3.267 123.744  0.00  0.00    +0.277 C 
ENDBRANCH  22  26
ENDBRANCH  14  18
BRANCH   1  29
ATOM     28  C   LIG A   1      -7.480   3.764 127.024  0.00  0.00    +0.277 C 
ATOM     29  O   LIG A   1      -8.592   3.014 127.494  0.00  0.00    -0.488 OA
ENDBRANCH   1  29
BRANCH  10  30
ATOM     30  O   LIG A   1      -8.773   1.286 132.778  0.00  0.00    -0.505 OA
ATOM     31  H   LIG A   1      -8.252   0.453 132.842  0.00  0.00    +0.292 HD
ENDBRANCH  10  30
TORSDOF 5
ENDMDL
MODEL 5
REMARK VINA RESULT:      -7.6      1.916      8.357
REMARK  Name = NuBBE_1590
REMARK  10 active torsions:
REMARK  status: ('A' for Active; 'I' for Inactive)
REMARK    1  A    between atoms: C_1  and  O_2
REMARK    2  A    between atoms: O_2  and  C_3
REMARK    3  A    between atoms: C_6  and  C_7
REMARK    4  A    between atoms: C_6  and  C_8
REMARK    5  A    between atoms: C_12  and  O_13
REMARK    6  A    between atoms: C_17  and  C_18
REMARK    7  A    between atoms: C_21  and  O_22
REMARK    8  A    between atoms: O_22  and  C_23
REMARK    9  A    between atoms: C_24  and  O_25
REMARK   10  A    between atoms: O_25  and  C_26
REMARK                            x       y       z     vdW  Elec       q    Type
REMARK                         _______ _______ _______ _____ _____    ______ ____
ROOT
ATOM      1  C   LIG A   1      -9.275   4.233 129.491  0.00  0.00    +0.206 A 
ATOM      2  C   LIG A   1     -10.028   5.418 129.631  0.00  0.00    +0.177 A 
ATOM      3  O   LIG A   1     -10.403   6.084 128.498  0.00  0.00    -0.478 OA
ATOM      4  C   LIG A   1     -11.283   7.218 128.561  0.00  0.00    +0.124 C 
ATOM      5  C   LIG A   1     -12.618   6.776 127.950  0.00  0.00    +0.060 C 
ATOM      6  C   LIG A   1     -10.635   8.290 127.677  0.00  0.00    +0.060 C 
ATOM      7  C   LIG A   1     -11.515   7.775 129.937  0.00  0.00    +0.020 C 
ATOM      8  C   LIG A   1     -11.081   7.166 131.042  0.00  0.00    +0.015 C 
ATOM      9  C   LIG A   1     -10.352   5.910 130.910  0.00  0.00    +0.062 A 
ATOM     10  C   LIG A   1      -9.949   5.202 132.051  0.00  0.00    +0.142 A 
ATOM     11  C   LIG A   1      -9.212   4.026 131.911  0.00  0.00    +0.110 A 
ATOM     12  C   LIG A   1      -8.866   3.547 130.657  0.00  0.00    +0.188 A 
ATOM     13  O   LIG A   1      -8.119   2.398 130.496  0.00  0.00    -0.451 OA
ATOM     14  C   LIG A   1      -7.689   1.689 131.620  0.00  0.00    +0.140 A 
ATOM     15  C   LIG A   1      -7.969   2.073 132.868  0.00  0.00    +0.098 A 
ATOM     16  C   LIG A   1      -8.780   3.272 133.092  0.00  0.00    +0.197 A 
ATOM     17  O   LIG A   1      -9.085   3.626 134.218  0.00  0.00    -0.287 OA
ENDROOT
BRANCH  14  18
ATOM     18  C   LIG A   1      -6.875   0.487 131.314  0.00  0.00    +0.021 A 
ATOM     19  C   LIG A   1      -5.482   0.592 131.250  0.00  0.00    +0.015 A 
ATOM     20  C   LIG A   1      -4.686  -0.516 130.954  0.00  0.00    +0.050 A 
ATOM     21  C   LIG A   1      -5.250  -1.775 130.730  0.00  0.00    +0.162 A 
ATOM     22  C   LIG A   1      -6.642  -1.914 130.808  0.00  0.00    +0.162 A 
ATOM     23  C   LIG A   1      -7.436  -0.782 131.069  0.00  0.00    +0.061 A 
BRANCH  21  24
ATOM     24  O   LIG A   1      -4.504  -2.879 130.431  0.00  0.00    -0.491 OA
ATOM     25  C   LIG A   1      -4.139  -3.080 129.077  0.00  0.00    +0.277 C 
ENDBRANCH  21  24
BRANCH  22  26
ATOM     26  O   LIG A   1      -7.368  -3.069 130.627  0.00  0.00    -0.491 OA
ATOM     27  C   LIG A   1      -8.001  -3.236 129.361  0.00  0.00    +0.277 C 
ENDBRANCH  22  26
ENDBRANCH  14  18
BRANCH   1  29
ATOM     28  C   LIG A   1      -7.707   4.144 127.652  0.00  0.00    +0.277 C 
ATOM     29  O   LIG A   1      -8.858   3.645 128.320  0.00  0.00    -0.488 OA
ENDBRANCH   1  29
BRANCH  10  30
ATOM     30  O   LIG A   1     -10.297   5.695 133.287  0.00  0.00    -0.505 OA
ATOM     31  H   LIG A   1      -9.915   6.597 133.385  0.00  0.00    +0.292 HD
ENDBRANCH  10  30
TORSDOF 5
ENDMDL
MODEL 6
REMARK VINA RESULT:      -7.4      4.596      9.575
REMARK  Name = NuBBE_1590
REMARK  10 active torsions:
REMARK  status: ('A' for Active; 'I' for Inactive)
REMARK    1  A    between atoms: C_1  and  O_2
REMARK    2  A    between atoms: O_2  and  C_3
REMARK    3  A    between atoms: C_6  and  C_7
REMARK    4  A    between atoms: C_6  and  C_8
REMARK    5  A    between atoms: C_12  and  O_13
REMARK    6  A    between atoms: C_17  and  C_18
REMARK    7  A    between atoms: C_21  and  O_22
REMARK    8  A    between atoms: O_22  and  C_23
REMARK    9  A    between atoms: C_24  and  O_25
REMARK   10  A    between atoms: O_25  and  C_26
REMARK                            x       y       z     vdW  Elec       q    Type
REMARK                         _______ _______ _______ _____ _____    ______ ____
ROOT
ATOM      1  C   LIG A   1      -7.077   0.553 127.651  0.00  0.00    +0.206 A 
ATOM      2  C   LIG A   1      -7.554   1.267 126.530  0.00  0.00    +0.177 A 
ATOM      3  O   LIG A   1      -7.184   2.575 126.392  0.00  0.00    -0.478 OA
ATOM      4  C   LIG A   1      -7.520   3.320 125.209  0.00  0.00    +0.124 C 
ATOM      5  C   LIG A   1      -6.210   3.555 124.449  0.00  0.00    +0.060 C 
ATOM      6  C   LIG A   1      -8.079   4.656 125.711  0.00  0.00    +0.060 C 
ATOM      7  C   LIG A   1      -8.523   2.665 124.302  0.00  0.00    +0.020 C 
ATOM      8  C   LIG A   1      -8.945   1.412 124.481  0.00  0.00    +0.015 C 
ATOM      9  C   LIG A   1      -8.413   0.647 125.603  0.00  0.00    +0.062 A 
ATOM     10  C   LIG A   1      -8.774  -0.696 125.778  0.00  0.00    +0.142 A 
ATOM     11  C   LIG A   1      -8.296  -1.403 126.881  0.00  0.00    +0.110 A 
ATOM     12  C   LIG A   1      -7.470  -0.795 127.813  0.00  0.00    +0.188 A 
ATOM     13  O   LIG A   1      -7.002  -1.469 128.924  0.00  0.00    -0.451 OA
ATOM     14  C   LIG A   1      -7.367  -2.802 129.127  0.00  0.00    +0.140 A 
ATOM     15  C   LIG A   1      -8.160  -3.472 128.288  0.00  0.00    +0.098 A 
ATOM     16  C   LIG A   1      -8.662  -2.809 127.082  0.00  0.00    +0.197 A 
ATOM     17  O   LIG A   1      -9.356  -3.405 126.276  0.00  0.00    -0.287 OA
ENDROOT
BRANCH  14  18
ATOM     18  C   LIG A   1      -6.820  -3.405 130.368  0.00  0.00    +0.021 A 
ATOM     19  C   LIG A   1      -5.935  -4.484 130.282  0.00  0.00    +0.015 A 
ATOM     20  C   LIG A   1      -5.410  -5.083 131.428  0.00  0.00    +0.050 A 
ATOM     21  C   LIG A   1      -5.733  -4.612 132.704  0.00  0.00    +0.162 A 
ATOM     22  C   LIG A   1      -6.601  -3.519 132.821  0.00  0.00    +0.162 A 
ATOM     23  C   LIG A   1      -7.154  -2.949 131.658  0.00  0.00    +0.061 A 
BRANCH  21  24
ATOM     24  O   LIG A   1      -5.245  -5.177 133.849  0.00  0.00    -0.491 OA
ATOM     25  C   LIG A   1      -3.926  -4.836 134.240  0.00  0.00    +0.277 C 
ENDBRANCH  21  24
BRANCH  22  26
ATOM     26  O   LIG A   1      -7.022  -2.919 133.985  0.00  0.00    -0.491 OA
ATOM     27  C   LIG A   1      -8.265  -3.365 134.523  0.00  0.00    +0.277 C 
ENDBRANCH  22  26
ENDBRANCH  14  18
BRANCH   1  29
ATOM     28  C   LIG A   1      -6.809   1.829 129.687  0.00  0.00    +0.277 C 
ATOM     29  O   LIG A   1      -6.262   1.024 128.652  0.00  0.00    -0.488 OA
ENDBRANCH   1  29
BRANCH  10  30
ATOM     30  O   LIG A   1      -9.598  -1.282 124.846  0.00  0.00    -0.505 OA
ATOM     31  H   LIG A   1      -9.912  -0.587 124.222  0.00  0.00    +0.292 HD
ENDBRANCH  10  30
TORSDOF 5
ENDMDL
MODEL 7
REMARK VINA RESULT:      -7.3      5.720      7.652
REMARK  Name = NuBBE_1590
REMARK  10 active torsions:
REMARK  status: ('A' for Active; 'I' for Inactive)
REMARK    1  A    between atoms: C_1  and  O_2
REMARK    2  A    between atoms: O_2  and  C_3
REMARK    3  A    between atoms: C_6  and  C_7
REMARK    4  A    between atoms: C_6  and  C_8
REMARK    5  A    between atoms: C_12  and  O_13
REMARK    6  A    between atoms: C_17  and  C_18
REMARK    7  A    between atoms: C_21  and  O_22
REMARK    8  A    between atoms: O_22  and  C_23
REMARK    9  A    between atoms: C_24  and  O_25
REMARK   10  A    between atoms: O_25  and  C_26
REMARK                            x       y       z     vdW  Elec       q    Type
REMARK                         _______ _______ _______ _____ _____    ______ ____
ROOT
ATOM      1  C   LIG A   1      -5.961   0.611 126.416  0.00  0.00    +0.206 A 
ATOM      2  C   LIG A   1      -6.682  -0.090 125.426  0.00  0.00    +0.177 A 
ATOM      3  O   LIG A   1      -6.950  -1.414 125.636  0.00  0.00    -0.478 OA
ATOM      4  C   LIG A   1      -7.793  -2.153 124.737  0.00  0.00    +0.124 C 
ATOM      5  C   LIG A   1      -9.094  -2.447 125.493  0.00  0.00    +0.060 C 
ATOM      6  C   LIG A   1      -7.046  -3.461 124.456  0.00  0.00    +0.060 C 
ATOM      7  C   LIG A   1      -8.105  -1.463 123.439  0.00  0.00    +0.020 C 
ATOM      8  C   LIG A   1      -7.775  -0.193 123.201  0.00  0.00    +0.015 C 
ATOM      9  C   LIG A   1      -7.081   0.557 124.241  0.00  0.00    +0.062 A 
ATOM     10  C   LIG A   1      -6.787   1.916 124.058  0.00  0.00    +0.142 A 
ATOM     11  C   LIG A   1      -6.083   2.610 125.041  0.00  0.00    +0.110 A 
ATOM     12  C   LIG A   1      -5.663   1.975 126.199  0.00  0.00    +0.188 A 
ATOM     13  O   LIG A   1      -4.945   2.637 127.175  0.00  0.00    -0.451 OA
ATOM     14  C   LIG A   1      -4.624   3.986 127.002  0.00  0.00    +0.140 A 
ATOM     15  C   LIG A   1      -4.981   4.682 125.920  0.00  0.00    +0.098 A 
ATOM     16  C   LIG A   1      -5.764   4.031 124.867  0.00  0.00    +0.197 A 
ATOM     17  O   LIG A   1      -6.139   4.650 123.885  0.00  0.00    -0.287 OA
ENDROOT
BRANCH  14  18
ATOM     18  C   LIG A   1      -3.831   4.575 128.109  0.00  0.00    +0.021 A 
ATOM     19  C   LIG A   1      -3.057   5.715 127.877  0.00  0.00    +0.015 A 
ATOM     20  C   LIG A   1      -2.290   6.289 128.892  0.00  0.00    +0.050 A 
ATOM     21  C   LIG A   1      -2.284   5.757 130.184  0.00  0.00    +0.162 A 
ATOM     22  C   LIG A   1      -3.067   4.626 130.453  0.00  0.00    +0.162 A 
ATOM     23  C   LIG A   1      -3.805   4.034 129.410  0.00  0.00    +0.061 A 
BRANCH  21  24
ATOM     24  O   LIG A   1      -1.541   6.286 131.201  0.00  0.00    -0.491 OA
ATOM     25  C   LIG A   1      -2.126   7.321 131.974  0.00  0.00    +0.277 C 
ENDBRANCH  21  24
BRANCH  22  26
ATOM     26  O   LIG A   1      -3.191   3.975 131.658  0.00  0.00    -0.491 OA
ATOM     27  C   LIG A   1      -4.358   4.262 132.425  0.00  0.00    +0.277 C 
ENDBRANCH  22  26
ENDBRANCH  14  18
BRANCH   1  29
ATOM     28  C   LIG A   1      -6.362  -0.057 128.705  0.00  0.00    +0.277 C 
ATOM     29  O   LIG A   1      -5.480   0.114 127.604  0.00  0.00    -0.488 OA
ENDBRANCH   1  29
BRANCH  10  30
ATOM     30  O   LIG A   1      -7.207   2.528 122.900  0.00  0.00    -0.505 OA
ATOM     31  H   LIG A   1      -6.691   3.358 122.778  0.00  0.00    +0.292 HD
ENDBRANCH  10  30
TORSDOF 5
ENDMDL
MODEL 8
REMARK VINA RESULT:      -7.2      6.121      8.278
REMARK  Name = NuBBE_1590
REMARK  10 active torsions:
REMARK  status: ('A' for Active; 'I' for Inactive)
REMARK    1  A    between atoms: C_1  and  O_2
REMARK    2  A    between atoms: O_2  and  C_3
REMARK    3  A    between atoms: C_6  and  C_7
REMARK    4  A    between atoms: C_6  and  C_8
REMARK    5  A    between atoms: C_12  and  O_13
REMARK    6  A    between atoms: C_17  and  C_18
REMARK    7  A    between atoms: C_21  and  O_22
REMARK    8  A    between atoms: O_22  and  C_23
REMARK    9  A    between atoms: C_24  and  O_25
REMARK   10  A    between atoms: O_25  and  C_26
REMARK                            x       y       z     vdW  Elec       q    Type
REMARK                         _______ _______ _______ _____ _____    ______ ____
ROOT
ATOM      1  C   LIG A   1      -3.505   5.207 129.374  0.00  0.00    +0.206 A 
ATOM      2  C   LIG A   1      -2.999   5.212 130.692  0.00  0.00    +0.177 A 
ATOM      3  O   LIG A   1      -2.408   6.355 131.153  0.00  0.00    -0.478 OA
ATOM      4  C   LIG A   1      -1.995   6.475 132.525  0.00  0.00    +0.124 C 
ATOM      5  C   LIG A   1      -2.942   7.483 133.185  0.00  0.00    +0.060 C 
ATOM      6  C   LIG A   1      -0.574   7.049 132.476  0.00  0.00    +0.060 C 
ATOM      7  C   LIG A   1      -1.992   5.193 133.308  0.00  0.00    +0.020 C 
ATOM      8  C   LIG A   1      -2.498   4.055 132.829  0.00  0.00    +0.015 C 
ATOM      9  C   LIG A   1      -3.076   4.055 131.490  0.00  0.00    +0.062 A 
ATOM     10  C   LIG A   1      -3.687   2.899 130.983  0.00  0.00    +0.142 A 
ATOM     11  C   LIG A   1      -4.194   2.898 129.684  0.00  0.00    +0.110 A 
ATOM     12  C   LIG A   1      -4.100   4.024 128.881  0.00  0.00    +0.188 A 
ATOM     13  O   LIG A   1      -4.576   4.038 127.585  0.00  0.00    -0.451 OA
ATOM     14  C   LIG A   1      -5.169   2.891 127.054  0.00  0.00    +0.140 A 
ATOM     15  C   LIG A   1      -5.302   1.757 127.748  0.00  0.00    +0.098 A 
ATOM     16  C   LIG A   1      -4.835   1.699 129.135  0.00  0.00    +0.197 A 
ATOM     17  O   LIG A   1      -4.978   0.691 129.806  0.00  0.00    -0.287 OA
ENDROOT
BRANCH  14  18
ATOM     18  C   LIG A   1      -5.617   3.027 125.646  0.00  0.00    +0.021 A 
ATOM     19  C   LIG A   1      -5.209   4.132 124.893  0.00  0.00    +0.015 A 
ATOM     20  C   LIG A   1      -5.620   4.298 123.570  0.00  0.00    +0.050 A 
ATOM     21  C   LIG A   1      -6.438   3.354 122.941  0.00  0.00    +0.162 A 
ATOM     22  C   LIG A   1      -6.846   2.226 123.665  0.00  0.00    +0.162 A 
ATOM     23  C   LIG A   1      -6.456   2.090 125.011  0.00  0.00    +0.061 A 
BRANCH  21  24
ATOM     24  O   LIG A   1      -6.866   3.486 121.651  0.00  0.00    -0.491 OA
ATOM     25  C   LIG A   1      -5.918   3.896 120.681  0.00  0.00    +0.277 C 
ENDBRANCH  21  24
BRANCH  22  26
ATOM     26  O   LIG A   1      -7.638   1.196 123.212  0.00  0.00    -0.491 OA
ATOM     27  C   LIG A   1      -7.100  -0.120 123.315  0.00  0.00    +0.277 C 
ENDBRANCH  22  26
ENDBRANCH  14  18
BRANCH   1  29
ATOM     28  C   LIG A   1      -2.232   6.781 128.053  0.00  0.00    +0.277 C 
ATOM     29  O   LIG A   1      -3.478   6.241 128.468  0.00  0.00    -0.488 OA
ENDBRANCH   1  29
BRANCH  10  30
ATOM     30  O   LIG A   1      -3.766   1.790 131.791  0.00  0.00    -0.505 OA
ATOM     31  H   LIG A   1      -2.892   1.651 132.223  0.00  0.00    +0.292 HD
ENDBRANCH  10  30
TORSDOF 5
ENDMDL
MODEL 9
REMARK VINA RESULT:      -7.1      3.969      8.831
REMARK  Name = NuBBE_1590
REMARK  10 active torsions:
REMARK  status: ('A' for Active; 'I' for Inactive)
REMARK    1  A    between atoms: C_1  and  O_2
REMARK    2  A    between atoms: O_2  and  C_3
REMARK    3  A    between atoms: C_6  and  C_7
REMARK    4  A    between atoms: C_6  and  C_8
REMARK    5  A    between atoms: C_12  and  O_13
REMARK    6  A    between atoms: C_17  and  C_18
REMARK    7  A    between atoms: C_21  and  O_22
REMARK    8  A    between atoms: O_22  and  C_23
REMARK    9  A    between atoms: C_24  and  O_25
REMARK   10  A    between atoms: O_25  and  C_26
REMARK                            x       y       z     vdW  Elec       q    Type
REMARK                         _______ _______ _______ _____ _____    ______ ____
ROOT
ATOM      1  C   LIG A   1      -4.887   3.712 128.595  0.00  0.00    +0.206 A 
ATOM      2  C   LIG A   1      -4.991   4.867 129.400  0.00  0.00    +0.177 A 
ATOM      3  O   LIG A   1      -3.872   5.630 129.584  0.00  0.00    -0.478 OA
ATOM      4  C   LIG A   1      -3.937   6.888 130.277  0.00  0.00    +0.124 C 
ATOM      5  C   LIG A   1      -3.708   7.982 129.228  0.00  0.00    +0.060 C 
ATOM      6  C   LIG A   1      -2.772   6.869 131.272  0.00  0.00    +0.060 C 
ATOM      7  C   LIG A   1      -5.222   7.150 131.011  0.00  0.00    +0.020 C 
ATOM      8  C   LIG A   1      -6.292   6.362 130.894  0.00  0.00    +0.015 C 
ATOM      9  C   LIG A   1      -6.212   5.198 130.019  0.00  0.00    +0.062 A 
ATOM     10  C   LIG A   1      -7.339   4.391 129.809  0.00  0.00    +0.142 A 
ATOM     11  C   LIG A   1      -7.237   3.255 129.007  0.00  0.00    +0.110 A 
ATOM     12  C   LIG A   1      -6.033   2.906 128.415  0.00  0.00    +0.188 A 
ATOM     13  O   LIG A   1      -5.904   1.775 127.635  0.00  0.00    -0.451 OA
ATOM     14  C   LIG A   1      -7.010   0.946 127.431  0.00  0.00    +0.140 A 
ATOM     15  C   LIG A   1      -8.210   1.195 127.963  0.00  0.00    +0.098 A 
ATOM     16  C   LIG A   1      -8.404   2.397 128.777  0.00  0.00    +0.197 A 
ATOM     17  O   LIG A   1      -9.496   2.673 129.244  0.00  0.00    -0.287 OA
ENDROOT
BRANCH  14  18
ATOM     18  C   LIG A   1      -6.736  -0.249 126.596  0.00  0.00    +0.021 A 
ATOM     19  C   LIG A   1      -5.571  -0.303 125.824  0.00  0.00    +0.015 A 
ATOM     20  C   LIG A   1      -5.287  -1.407 125.019  0.00  0.00    +0.050 A 
ATOM     21  C   LIG A   1      -6.146  -2.508 124.969  0.00  0.00    +0.162 A 
ATOM     22  C   LIG A   1      -7.311  -2.491 125.747  0.00  0.00    +0.162 A 
ATOM     23  C   LIG A   1      -7.605  -1.356 126.525  0.00  0.00    +0.061 A 
BRANCH  21  24
ATOM     24  O   LIG A   1      -5.905  -3.603 124.187  0.00  0.00    -0.491 OA
ATOM     25  C   LIG A   1      -4.642  -3.691 123.551  0.00  0.00    +0.277 C 
ENDBRANCH  21  24
BRANCH  22  26
ATOM     26  O   LIG A   1      -8.262  -3.482 125.831  0.00  0.00    -0.491 OA
ATOM     27  C   LIG A   1      -9.622  -3.060 125.904  0.00  0.00    +0.277 C 
ENDBRANCH  22  26
ENDBRANCH  14  18
BRANCH   1  29
ATOM     28  C   LIG A   1      -3.362   3.830 126.723  0.00  0.00    +0.277 C 
ATOM     29  O   LIG A   1      -3.765   3.244 127.953  0.00  0.00    -0.488 OA
ENDBRANCH   1  29
BRANCH  10  30
ATOM     30  O   LIG A   1      -8.523   4.749 130.409  0.00  0.00    -0.505 OA
ATOM     31  H   LIG A   1      -9.213   4.091 130.162  0.00  0.00    +0.292 HD
ENDBRANCH  10  30
TORSDOF 5
ENDMDL
