MODEL 1
REMARK VINA RESULT:      -7.1      0.000      0.000
REMARK  Name = NuBBE_33
REMARK  11 active torsions:
REMARK  status: ('A' for Active; 'I' for Inactive)
REMARK    1  A    between atoms: O_1  and  C_2
REMARK    2  A    between atoms: C_6  and  C_7
REMARK    3  A    between atoms: C_6  and  C_13
REMARK    4  A    between atoms: C_8  and  C_9
REMARK    5  A    between atoms: C_10  and  C_11
REMARK    6  A    between atoms: C_10  and  C_12
REMARK    7  A    between atoms: C_16  and  C_17
REMARK    8  A    between atoms: C_17  and  C_18
REMARK    9  A    between atoms: C_19  and  C_20
REMARK   10  A    between atoms: C_19  and  C_21
REMARK   11  A    between atoms: C_22  and  C_23
REMARK                            x       y       z     vdW  Elec       q    Type
REMARK                         _______ _______ _______ _____ _____    ______ ____
ROOT
ATOM      1  C   LIG A   1      -7.112   2.620 123.505  0.00  0.00    +0.124 A 
ATOM      2  C   LIG A   1      -6.735   2.087 124.740  0.00  0.00    +0.036 A 
ATOM      3  C   LIG A   1      -7.601   1.169 125.361  0.00  0.00    +0.132 A 
ATOM      4  O   LIG A   1      -7.296   0.561 126.558  0.00  0.00    -0.481 OA
ATOM      5  C   LIG A   1      -5.919   0.579 126.979  0.00  0.00    +0.127 C 
ATOM      6  C   LIG A   1      -5.930   0.214 128.471  0.00  0.00    +0.060 C 
ATOM      7  C   LIG A   1      -5.352   2.000 126.826  0.00  0.00    +0.057 C 
ATOM      8  C   LIG A   1      -5.425   2.453 125.376  0.00  0.00    +0.047 C 
ATOM      9  C   LIG A   1      -8.854   0.831 124.791  0.00  0.00    +0.002 A 
ATOM     10  C   LIG A   1      -9.202   1.382 123.537  0.00  0.00    -0.040 A 
ATOM     11  C   LIG A   1     -10.490   1.048 122.836  0.00  0.00    +0.044 C 
ATOM     12  C   LIG A   1      -8.323   2.278 122.914  0.00  0.00    +0.049 A 
ENDROOT
BRANCH   1  13
ATOM     13  O   LIG A   1      -6.334   3.492 122.795  0.00  0.00    -0.506 OA
ATOM     14  H   LIG A   1      -5.426   3.158 122.754  0.00  0.00    +0.292 HD
ENDBRANCH   1  13
BRANCH   5  15
ATOM     15  C   LIG A   1      -5.173  -0.528 126.248  0.00  0.00    +0.020 C 
ATOM     16  C   LIG A   1      -5.677  -1.748 125.994  0.00  0.00    -0.000 C 
BRANCH  16  17
ATOM     17  C   LIG A   1      -4.963  -2.811 125.340  0.00  0.00    -0.002 C 
ATOM     18  C   LIG A   1      -5.025  -3.076 124.017  0.00  0.00    -0.076 C 
ATOM     19  C   LIG A   1      -5.785  -2.263 123.000  0.00  0.00    +0.038 C 
ATOM     20  C   LIG A   1      -4.312  -4.268 123.440  0.00  0.00    +0.038 C 
ENDBRANCH  16  17
ENDBRANCH   5  15
BRANCH   9  21
ATOM     21  C   LIG A   1      -9.789  -0.131 125.512  0.00  0.00    +0.066 C 
BRANCH  21  22
ATOM     22  C   LIG A   1      -9.204  -1.509 125.688  0.00  0.00    -0.023 C 
ATOM     23  C   LIG A   1      -9.064  -2.491 124.775  0.00  0.00    -0.079 C 
ATOM     24  C   LIG A   1      -9.443  -2.401 123.322  0.00  0.00    +0.038 C 
ATOM     25  C   LIG A   1      -8.487  -3.827 125.171  0.00  0.00    +0.038 C 
ENDBRANCH  21  22
ENDBRANCH   9  21
TORSDOF 5
ENDMDL
MODEL 2
REMARK VINA RESULT:      -7.1      2.511      5.127
REMARK  Name = NuBBE_33
REMARK  11 active torsions:
REMARK  status: ('A' for Active; 'I' for Inactive)
REMARK    1  A    between atoms: O_1  and  C_2
REMARK    2  A    between atoms: C_6  and  C_7
REMARK    3  A    between atoms: C_6  and  C_13
REMARK    4  A    between atoms: C_8  and  C_9
REMARK    5  A    between atoms: C_10  and  C_11
REMARK    6  A    between atoms: C_10  and  C_12
REMARK    7  A    between atoms: C_16  and  C_17
REMARK    8  A    between atoms: C_17  and  C_18
REMARK    9  A    between atoms: C_19  and  C_20
REMARK   10  A    between atoms: C_19  and  C_21
REMARK   11  A    between atoms: C_22  and  C_23
REMARK                            x       y       z     vdW  Elec       q    Type
REMARK                         _______ _______ _______ _____ _____    ______ ____
ROOT
ATOM      1  C   LIG A   1      -5.865   3.869 125.208  0.00  0.00    +0.124 A 
ATOM      2  C   LIG A   1      -6.779   2.897 124.793  0.00  0.00    +0.036 A 
ATOM      3  C   LIG A   1      -6.900   2.643 123.415  0.00  0.00    +0.132 A 
ATOM      4  O   LIG A   1      -7.742   1.676 122.915  0.00  0.00    -0.481 OA
ATOM      5  C   LIG A   1      -8.214   0.669 123.831  0.00  0.00    +0.127 C 
ATOM      6  C   LIG A   1      -9.407  -0.005 123.138  0.00  0.00    +0.060 C 
ATOM      7  C   LIG A   1      -8.711   1.338 125.123  0.00  0.00    +0.057 C 
ATOM      8  C   LIG A   1      -7.587   2.116 125.790  0.00  0.00    +0.047 C 
ATOM      9  C   LIG A   1      -6.166   3.387 122.458  0.00  0.00    +0.002 A 
ATOM     10  C   LIG A   1      -5.245   4.358 122.911  0.00  0.00    -0.040 A 
ATOM     11  C   LIG A   1      -4.393   5.166 121.972  0.00  0.00    +0.044 C 
ATOM     12  C   LIG A   1      -5.114   4.589 124.287  0.00  0.00    +0.049 A 
ENDROOT
BRANCH   1  13
ATOM     13  O   LIG A   1      -5.639   4.174 126.522  0.00  0.00    -0.506 OA
ATOM     14  H   LIG A   1      -6.443   4.009 127.037  0.00  0.00    +0.292 HD
ENDBRANCH   1  13
BRANCH   5  15
ATOM     15  C   LIG A   1      -7.129  -0.387 123.991  0.00  0.00    +0.020 C 
ATOM     16  C   LIG A   1      -6.669  -1.165 122.996  0.00  0.00    -0.000 C 
BRANCH  16  17
ATOM     17  C   LIG A   1      -5.674  -2.191 123.149  0.00  0.00    -0.002 C 
ATOM     18  C   LIG A   1      -5.869  -3.357 123.803  0.00  0.00    -0.076 C 
ATOM     19  C   LIG A   1      -7.173  -3.810 124.408  0.00  0.00    +0.038 C 
ATOM     20  C   LIG A   1      -4.737  -4.330 123.989  0.00  0.00    +0.038 C 
ENDBRANCH  16  17
ENDBRANCH   5  15
BRANCH   9  21
ATOM     21  C   LIG A   1      -6.355   3.119 120.971  0.00  0.00    +0.066 C 
BRANCH  21  22
ATOM     22  C   LIG A   1      -7.719   3.514 120.465  0.00  0.00    -0.023 C 
ATOM     23  C   LIG A   1      -8.039   4.232 119.368  0.00  0.00    -0.079 C 
ATOM     24  C   LIG A   1      -7.064   4.780 118.362  0.00  0.00    +0.038 C 
ATOM     25  C   LIG A   1      -9.478   4.558 119.060  0.00  0.00    +0.038 C 
ENDBRANCH  21  22
ENDBRANCH   9  21
TORSDOF 5
ENDMDL
MODEL 3
REMARK VINA RESULT:      -6.9      2.170      4.843
REMARK  Name = NuBBE_33
REMARK  11 active torsions:
REMARK  status: ('A' for Active; 'I' for Inactive)
REMARK    1  A    between atoms: O_1  and  C_2
REMARK    2  A    between atoms: C_6  and  C_7
REMARK    3  A    between atoms: C_6  and  C_13
REMARK    4  A    between atoms: C_8  and  C_9
REMARK    5  A    between atoms: C_10  and  C_11
REMARK    6  A    between atoms: C_10  and  C_12
REMARK    7  A    between atoms: C_16  and  C_17
REMARK    8  A    between atoms: C_17  and  C_18
REMARK    9  A    between atoms: C_19  and  C_20
REMARK   10  A    between atoms: C_19  and  C_21
REMARK   11  A    between atoms: C_22  and  C_23
REMARK                            x       y       z     vdW  Elec       q    Type
REMARK                         _______ _______ _______ _____ _____    ______ ____
ROOT
ATOM      1  C   LIG A   1      -9.845   0.727 123.301  0.00  0.00    +0.124 A 
ATOM      2  C   LIG A   1      -8.812  -0.215 123.315  0.00  0.00    +0.036 A 
ATOM      3  C   LIG A   1      -7.585   0.152 123.895  0.00  0.00    +0.132 A 
ATOM      4  O   LIG A   1      -6.525  -0.721 123.990  0.00  0.00    -0.481 OA
ATOM      5  C   LIG A   1      -6.806  -2.126 123.840  0.00  0.00    +0.127 C 
ATOM      6  C   LIG A   1      -5.450  -2.802 123.589  0.00  0.00    +0.060 C 
ATOM      7  C   LIG A   1      -7.698  -2.343 122.607  0.00  0.00    +0.057 C 
ATOM      8  C   LIG A   1      -9.014  -1.595 122.759  0.00  0.00    +0.047 C 
ATOM      9  C   LIG A   1      -7.366   1.458 124.400  0.00  0.00    +0.002 A 
ATOM     10  C   LIG A   1      -8.433   2.384 124.379  0.00  0.00    -0.040 A 
ATOM     11  C   LIG A   1      -8.306   3.777 124.931  0.00  0.00    +0.044 C 
ATOM     12  C   LIG A   1      -9.660   2.003 123.820  0.00  0.00    +0.049 A 
ENDROOT
BRANCH   1  13
ATOM     13  O   LIG A   1     -11.089   0.469 122.797  0.00  0.00    -0.506 OA
ATOM     14  H   LIG A   1     -11.427   1.258 122.347  0.00  0.00    +0.292 HD
ENDBRANCH   1  13
BRANCH   5  15
ATOM     15  C   LIG A   1      -7.339  -2.658 125.162  0.00  0.00    +0.020 C 
ATOM     16  C   LIG A   1      -7.129  -2.080 126.357  0.00  0.00    -0.000 C 
BRANCH  16  17
ATOM     17  C   LIG A   1      -7.596  -2.599 127.614  0.00  0.00    -0.002 C 
ATOM     18  C   LIG A   1      -6.821  -2.779 128.705  0.00  0.00    -0.076 C 
ATOM     19  C   LIG A   1      -5.367  -2.397 128.814  0.00  0.00    +0.038 C 
ATOM     20  C   LIG A   1      -7.382  -3.416 129.947  0.00  0.00    +0.038 C 
ENDBRANCH  16  17
ENDBRANCH   5  15
BRANCH   9  21
ATOM     21  C   LIG A   1      -6.009   1.837 124.979  0.00  0.00    +0.066 C 
BRANCH  21  22
ATOM     22  C   LIG A   1      -5.861   1.473 126.434  0.00  0.00    -0.023 C 
ATOM     23  C   LIG A   1      -4.892   1.832 127.301  0.00  0.00    -0.079 C 
ATOM     24  C   LIG A   1      -3.730   2.737 126.995  0.00  0.00    +0.038 C 
ATOM     25  C   LIG A   1      -4.905   1.318 128.719  0.00  0.00    +0.038 C 
ENDBRANCH  21  22
ENDBRANCH   9  21
TORSDOF 5
ENDMDL
MODEL 4
REMARK VINA RESULT:      -6.8      2.215      4.854
REMARK  Name = NuBBE_33
REMARK  11 active torsions:
REMARK  status: ('A' for Active; 'I' for Inactive)
REMARK    1  A    between atoms: O_1  and  C_2
REMARK    2  A    between atoms: C_6  and  C_7
REMARK    3  A    between atoms: C_6  and  C_13
REMARK    4  A    between atoms: C_8  and  C_9
REMARK    5  A    between atoms: C_10  and  C_11
REMARK    6  A    between atoms: C_10  and  C_12
REMARK    7  A    between atoms: C_16  and  C_17
REMARK    8  A    between atoms: C_17  and  C_18
REMARK    9  A    between atoms: C_19  and  C_20
REMARK   10  A    between atoms: C_19  and  C_21
REMARK   11  A    between atoms: C_22  and  C_23
REMARK                            x       y       z     vdW  Elec       q    Type
REMARK                         _______ _______ _______ _____ _____    ______ ____
ROOT
ATOM      1  C   LIG A   1      -9.371  -0.958 123.414  0.00  0.00    +0.124 A 
ATOM      2  C   LIG A   1      -8.898   0.037 124.274  0.00  0.00    +0.036 A 
ATOM      3  C   LIG A   1      -7.874  -0.298 125.178  0.00  0.00    +0.132 A 
ATOM      4  O   LIG A   1      -7.317   0.624 126.034  0.00  0.00    -0.481 OA
ATOM      5  C   LIG A   1      -7.521   2.018 125.733  0.00  0.00    +0.127 C 
ATOM      6  C   LIG A   1      -7.163   2.783 127.016  0.00  0.00    +0.060 C 
ATOM      7  C   LIG A   1      -9.005   2.264 125.413  0.00  0.00    +0.057 C 
ATOM      8  C   LIG A   1      -9.439   1.436 124.213  0.00  0.00    +0.047 C 
ATOM      9  C   LIG A   1      -7.370  -1.619 125.269  0.00  0.00    +0.002 A 
ATOM     10  C   LIG A   1      -7.864  -2.600 124.380  0.00  0.00    -0.040 A 
ATOM     11  C   LIG A   1      -7.359  -4.016 124.374  0.00  0.00    +0.044 C 
ATOM     12  C   LIG A   1      -8.868  -2.253 123.466  0.00  0.00    +0.049 A 
ENDROOT
BRANCH   1  13
ATOM     13  O   LIG A   1     -10.338  -0.738 122.471  0.00  0.00    -0.506 OA
ATOM     14  H   LIG A   1     -10.659  -1.586 122.132  0.00  0.00    +0.292 HD
ENDBRANCH   1  13
BRANCH   5  15
ATOM     15  C   LIG A   1      -6.522   2.434 124.664  0.00  0.00    +0.020 C 
ATOM     16  C   LIG A   1      -6.505   3.637 124.064  0.00  0.00    -0.000 C 
BRANCH  16  17
ATOM     17  C   LIG A   1      -5.589   4.023 123.024  0.00  0.00    -0.002 C 
ATOM     18  C   LIG A   1      -5.871   3.993 121.704  0.00  0.00    -0.076 C 
ATOM     19  C   LIG A   1      -7.206   3.629 121.105  0.00  0.00    +0.038 C 
ATOM     20  C   LIG A   1      -4.815   4.330 120.687  0.00  0.00    +0.038 C 
ENDBRANCH  16  17
ENDBRANCH   5  15
BRANCH   9  21
ATOM     21  C   LIG A   1      -6.294  -1.960 126.292  0.00  0.00    +0.066 C 
BRANCH  21  22
ATOM     22  C   LIG A   1      -6.754  -1.788 127.717  0.00  0.00    -0.023 C 
ATOM     23  C   LIG A   1      -7.702  -2.473 128.389  0.00  0.00    -0.079 C 
ATOM     24  C   LIG A   1      -8.506  -3.623 127.845  0.00  0.00    +0.038 C 
ATOM     25  C   LIG A   1      -8.045  -2.111 129.812  0.00  0.00    +0.038 C 
ENDBRANCH  21  22
ENDBRANCH   9  21
TORSDOF 5
ENDMDL
MODEL 5
REMARK VINA RESULT:      -6.8      2.796      4.755
REMARK  Name = NuBBE_33
REMARK  11 active torsions:
REMARK  status: ('A' for Active; 'I' for Inactive)
REMARK    1  A    between atoms: O_1  and  C_2
REMARK    2  A    between atoms: C_6  and  C_7
REMARK    3  A    between atoms: C_6  and  C_13
REMARK    4  A    between atoms: C_8  and  C_9
REMARK    5  A    between atoms: C_10  and  C_11
REMARK    6  A    between atoms: C_10  and  C_12
REMARK    7  A    between atoms: C_16  and  C_17
REMARK    8  A    between atoms: C_17  and  C_18
REMARK    9  A    between atoms: C_19  and  C_20
REMARK   10  A    between atoms: C_19  and  C_21
REMARK   11  A    between atoms: C_22  and  C_23
REMARK                            x       y       z     vdW  Elec       q    Type
REMARK                         _______ _______ _______ _____ _____    ______ ____
ROOT
ATOM      1  C   LIG A   1      -8.812   3.297 129.154  0.00  0.00    +0.124 A 
ATOM      2  C   LIG A   1      -7.861   2.636 128.372  0.00  0.00    +0.036 A 
ATOM      3  C   LIG A   1      -7.421   1.367 128.792  0.00  0.00    +0.132 A 
ATOM      4  O   LIG A   1      -6.518   0.624 128.066  0.00  0.00    -0.481 OA
ATOM      5  C   LIG A   1      -6.318   0.984 126.686  0.00  0.00    +0.127 C 
ATOM      6  C   LIG A   1      -5.018   0.291 126.254  0.00  0.00    +0.060 C 
ATOM      7  C   LIG A   1      -6.123   2.505 126.574  0.00  0.00    +0.057 C 
ATOM      8  C   LIG A   1      -7.346   3.243 127.099  0.00  0.00    +0.047 C 
ATOM      9  C   LIG A   1      -7.875   0.790 130.004  0.00  0.00    +0.002 A 
ATOM     10  C   LIG A   1      -8.843   1.481 130.767  0.00  0.00    -0.040 A 
ATOM     11  C   LIG A   1      -9.413   0.927 132.043  0.00  0.00    +0.044 C 
ATOM     12  C   LIG A   1      -9.293   2.734 130.330  0.00  0.00    +0.049 A 
ENDROOT
BRANCH   1  13
ATOM     13  O   LIG A   1      -9.337   4.516 128.825  0.00  0.00    -0.506 OA
ATOM     14  H   LIG A   1     -10.059   4.733 129.433  0.00  0.00    +0.292 HD
ENDBRANCH   1  13
BRANCH   5  15
ATOM     15  C   LIG A   1      -7.447   0.385 125.860  0.00  0.00    +0.020 C 
ATOM     16  C   LIG A   1      -7.643  -0.932 125.680  0.00  0.00    -0.000 C 
BRANCH  16  17
ATOM     17  C   LIG A   1      -8.684  -1.503 124.867  0.00  0.00    -0.002 C 
ATOM     18  C   LIG A   1      -8.635  -2.734 124.313  0.00  0.00    -0.076 C 
ATOM     19  C   LIG A   1      -7.528  -3.738 124.514  0.00  0.00    +0.038 C 
ATOM     20  C   LIG A   1      -9.734  -3.208 123.402  0.00  0.00    +0.038 C 
ENDBRANCH  16  17
ENDBRANCH   5  15
BRANCH   9  21
ATOM     21  C   LIG A   1      -7.343  -0.564 130.453  0.00  0.00    +0.066 C 
BRANCH  21  22
ATOM     22  C   LIG A   1      -8.060  -1.727 129.814  0.00  0.00    -0.023 C 
ATOM     23  C   LIG A   1      -7.577  -2.651 128.959  0.00  0.00    -0.079 C 
ATOM     24  C   LIG A   1      -6.156  -2.742 128.473  0.00  0.00    +0.038 C 
ATOM     25  C   LIG A   1      -8.481  -3.718 128.395  0.00  0.00    +0.038 C 
ENDBRANCH  21  22
ENDBRANCH   9  21
TORSDOF 5
ENDMDL
MODEL 6
REMARK VINA RESULT:      -6.7      2.607      5.876
REMARK  Name = NuBBE_33
REMARK  11 active torsions:
REMARK  status: ('A' for Active; 'I' for Inactive)
REMARK    1  A    between atoms: O_1  and  C_2
REMARK    2  A    between atoms: C_6  and  C_7
REMARK    3  A    between atoms: C_6  and  C_13
REMARK    4  A    between atoms: C_8  and  C_9
REMARK    5  A    between atoms: C_10  and  C_11
REMARK    6  A    between atoms: C_10  and  C_12
REMARK    7  A    between atoms: C_16  and  C_17
REMARK    8  A    between atoms: C_17  and  C_18
REMARK    9  A    between atoms: C_19  and  C_20
REMARK   10  A    between atoms: C_19  and  C_21
REMARK   11  A    between atoms: C_22  and  C_23
REMARK                            x       y       z     vdW  Elec       q    Type
REMARK                         _______ _______ _______ _____ _____    ______ ____
ROOT
ATOM      1  C   LIG A   1      -9.181  -2.838 125.751  0.00  0.00    +0.124 A 
ATOM      2  C   LIG A   1      -8.339  -2.874 126.865  0.00  0.00    +0.036 A 
ATOM      3  C   LIG A   1      -7.089  -2.234 126.776  0.00  0.00    +0.132 A 
ATOM      4  O   LIG A   1      -6.211  -2.181 127.835  0.00  0.00    -0.481 OA
ATOM      5  C   LIG A   1      -6.737  -2.453 129.148  0.00  0.00    +0.127 C 
ATOM      6  C   LIG A   1      -5.519  -2.722 130.043  0.00  0.00    +0.060 C 
ATOM      7  C   LIG A   1      -7.603  -3.723 129.104  0.00  0.00    +0.057 C 
ATOM      8  C   LIG A   1      -8.766  -3.545 128.139  0.00  0.00    +0.047 C 
ATOM      9  C   LIG A   1      -6.657  -1.618 125.575  0.00  0.00    +0.002 A 
ATOM     10  C   LIG A   1      -7.536  -1.592 124.468  0.00  0.00    -0.040 A 
ATOM     11  C   LIG A   1      -7.180  -0.926 123.168  0.00  0.00    +0.044 C 
ATOM     12  C   LIG A   1      -8.788  -2.212 124.573  0.00  0.00    +0.049 A 
ENDROOT
BRANCH   1  13
ATOM     13  O   LIG A   1     -10.430  -3.394 125.735  0.00  0.00    -0.506 OA
ATOM     14  H   LIG A   1     -11.050  -2.788 125.303  0.00  0.00    +0.292 HD
ENDBRANCH   1  13
BRANCH   5  15
ATOM     15  C   LIG A   1      -7.413  -1.193 129.670  0.00  0.00    +0.020 C 
ATOM     16  C   LIG A   1      -6.928   0.051 129.516  0.00  0.00    -0.000 C 
BRANCH  16  17
ATOM     17  C   LIG A   1      -7.541   1.241 130.042  0.00  0.00    -0.002 C 
ATOM     18  C   LIG A   1      -8.343   2.067 129.336  0.00  0.00    -0.076 C 
ATOM     19  C   LIG A   1      -8.792   1.842 127.914  0.00  0.00    +0.038 C 
ATOM     20  C   LIG A   1      -8.864   3.339 129.948  0.00  0.00    +0.038 C 
ENDBRANCH  16  17
ENDBRANCH   5  15
BRANCH   9  21
ATOM     21  C   LIG A   1      -5.279  -0.975 125.497  0.00  0.00    +0.066 C 
BRANCH  21  22
ATOM     22  C   LIG A   1      -5.132   0.227 126.396  0.00  0.00    -0.023 C 
ATOM     23  C   LIG A   1      -5.535   1.496 126.184  0.00  0.00    -0.079 C 
ATOM     24  C   LIG A   1      -6.277   1.992 124.973  0.00  0.00    +0.038 C 
ATOM     25  C   LIG A   1      -5.249   2.571 127.203  0.00  0.00    +0.038 C 
ENDBRANCH  21  22
ENDBRANCH   9  21
TORSDOF 5
ENDMDL
MODEL 7
REMARK VINA RESULT:      -6.6      2.244      5.826
REMARK  Name = NuBBE_33
REMARK  11 active torsions:
REMARK  status: ('A' for Active; 'I' for Inactive)
REMARK    1  A    between atoms: O_1  and  C_2
REMARK    2  A    between atoms: C_6  and  C_7
REMARK    3  A    between atoms: C_6  and  C_13
REMARK    4  A    between atoms: C_8  and  C_9
REMARK    5  A    between atoms: C_10  and  C_11
REMARK    6  A    between atoms: C_10  and  C_12
REMARK    7  A    between atoms: C_16  and  C_17
REMARK    8  A    between atoms: C_17  and  C_18
REMARK    9  A    between atoms: C_19  and  C_20
REMARK   10  A    between atoms: C_19  and  C_21
REMARK   11  A    between atoms: C_22  and  C_23
REMARK                            x       y       z     vdW  Elec       q    Type
REMARK                         _______ _______ _______ _____ _____    ______ ____
ROOT
ATOM      1  C   LIG A   1      -9.031  -2.004 123.484  0.00  0.00    +0.124 A 
ATOM      2  C   LIG A   1      -8.924  -0.666 123.873  0.00  0.00    +0.036 A 
ATOM      3  C   LIG A   1      -7.696  -0.222 124.395  0.00  0.00    +0.132 A 
ATOM      4  O   LIG A   1      -7.484   1.086 124.767  0.00  0.00    -0.481 OA
ATOM      5  C   LIG A   1      -8.401   2.077 124.263  0.00  0.00    +0.127 C 
ATOM      6  C   LIG A   1      -8.186   3.328 125.128  0.00  0.00    +0.060 C 
ATOM      7  C   LIG A   1      -9.846   1.588 124.457  0.00  0.00    +0.057 C 
ATOM      8  C   LIG A   1     -10.075   0.284 123.708  0.00  0.00    +0.047 C 
ATOM      9  C   LIG A   1      -6.607  -1.109 124.583  0.00  0.00    +0.002 A 
ATOM     10  C   LIG A   1      -6.745  -2.454 124.172  0.00  0.00    -0.040 A 
ATOM     11  C   LIG A   1      -5.631  -3.456 124.294  0.00  0.00    +0.044 C 
ATOM     12  C   LIG A   1      -7.964  -2.883 123.632  0.00  0.00    +0.049 A 
ENDROOT
BRANCH   1  13
ATOM     13  O   LIG A   1     -10.163  -2.537 122.932  0.00  0.00    -0.506 OA
ATOM     14  H   LIG A   1     -10.793  -2.758 123.634  0.00  0.00    +0.292 HD
ENDBRANCH   1  13
BRANCH   5  15
ATOM     15  C   LIG A   1      -7.994   2.435 122.841  0.00  0.00    +0.020 C 
ATOM     16  C   LIG A   1      -7.179   3.452 122.515  0.00  0.00    -0.000 C 
BRANCH  16  17
ATOM     17  C   LIG A   1      -6.823   3.821 121.171  0.00  0.00    -0.002 C 
ATOM     18  C   LIG A   1      -5.675   4.440 120.824  0.00  0.00    -0.076 C 
ATOM     19  C   LIG A   1      -4.546   4.777 121.765  0.00  0.00    +0.038 C 
ATOM     20  C   LIG A   1      -5.433   4.867 119.402  0.00  0.00    +0.038 C 
ENDBRANCH  16  17
ENDBRANCH   5  15
BRANCH   9  21
ATOM     21  C   LIG A   1      -5.306  -0.606 125.195  0.00  0.00    +0.066 C 
BRANCH  21  22
ATOM     22  C   LIG A   1      -5.341  -0.545 126.701  0.00  0.00    -0.023 C 
ATOM     23  C   LIG A   1      -5.226   0.530 127.507  0.00  0.00    -0.079 C 
ATOM     24  C   LIG A   1      -5.068   1.956 127.053  0.00  0.00    +0.038 C 
ATOM     25  C   LIG A   1      -5.244   0.368 129.006  0.00  0.00    +0.038 C 
ENDBRANCH  21  22
ENDBRANCH   9  21
TORSDOF 5
ENDMDL
MODEL 8
REMARK VINA RESULT:      -6.5      1.726      4.098
REMARK  Name = NuBBE_33
REMARK  11 active torsions:
REMARK  status: ('A' for Active; 'I' for Inactive)
REMARK    1  A    between atoms: O_1  and  C_2
REMARK    2  A    between atoms: C_6  and  C_7
REMARK    3  A    between atoms: C_6  and  C_13
REMARK    4  A    between atoms: C_8  and  C_9
REMARK    5  A    between atoms: C_10  and  C_11
REMARK    6  A    between atoms: C_10  and  C_12
REMARK    7  A    between atoms: C_16  and  C_17
REMARK    8  A    between atoms: C_17  and  C_18
REMARK    9  A    between atoms: C_19  and  C_20
REMARK   10  A    between atoms: C_19  and  C_21
REMARK   11  A    between atoms: C_22  and  C_23
REMARK                            x       y       z     vdW  Elec       q    Type
REMARK                         _______ _______ _______ _____ _____    ______ ____
ROOT
ATOM      1  C   LIG A   1      -9.246   0.819 123.824  0.00  0.00    +0.124 A 
ATOM      2  C   LIG A   1      -8.770   0.722 125.134  0.00  0.00    +0.036 A 
ATOM      3  C   LIG A   1      -8.398  -0.546 125.615  0.00  0.00    +0.132 A 
ATOM      4  O   LIG A   1      -7.880  -0.733 126.876  0.00  0.00    -0.481 OA
ATOM      5  C   LIG A   1      -7.365   0.425 127.561  0.00  0.00    +0.127 C 
ATOM      6  C   LIG A   1      -7.238   0.020 129.037  0.00  0.00    +0.060 C 
ATOM      7  C   LIG A   1      -8.376   1.578 127.455  0.00  0.00    +0.057 C 
ATOM      8  C   LIG A   1      -8.623   1.942 125.998  0.00  0.00    +0.047 C 
ATOM      9  C   LIG A   1      -8.554  -1.712 124.824  0.00  0.00    +0.002 A 
ATOM     10  C   LIG A   1      -9.031  -1.579 123.501  0.00  0.00    -0.040 A 
ATOM     11  C   LIG A   1      -9.189  -2.754 122.576  0.00  0.00    +0.044 C 
ATOM     12  C   LIG A   1      -9.378  -0.309 123.022  0.00  0.00    +0.049 A 
ENDROOT
BRANCH   1  13
ATOM     13  O   LIG A   1      -9.603   2.003 123.240  0.00  0.00    -0.506 OA
ATOM     14  H   LIG A   1      -9.218   2.056 122.353  0.00  0.00    +0.292 HD
ENDBRANCH   1  13
BRANCH   5  15
ATOM     15  C   LIG A   1      -5.961   0.708 127.047  0.00  0.00    +0.020 C 
ATOM     16  C   LIG A   1      -5.384   1.922 127.034  0.00  0.00    -0.000 C 
BRANCH  16  17
ATOM     17  C   LIG A   1      -4.074   2.203 126.513  0.00  0.00    -0.002 C 
ATOM     18  C   LIG A   1      -3.144   2.954 127.141  0.00  0.00    -0.076 C 
ATOM     19  C   LIG A   1      -3.290   3.555 128.516  0.00  0.00    +0.038 C 
ATOM     20  C   LIG A   1      -1.833   3.268 126.473  0.00  0.00    +0.038 C 
ENDBRANCH  16  17
ENDBRANCH   5  15
BRANCH   9  21
ATOM     21  C   LIG A   1      -8.185  -3.077 125.392  0.00  0.00    +0.066 C 
BRANCH  21  22
ATOM     22  C   LIG A   1      -7.043  -3.735 124.661  0.00  0.00    -0.023 C 
ATOM     23  C   LIG A   1      -5.822  -3.238 124.376  0.00  0.00    -0.079 C 
ATOM     24  C   LIG A   1      -5.312  -1.880 124.774  0.00  0.00    +0.038 C 
ATOM     25  C   LIG A   1      -4.828  -4.053 123.588  0.00  0.00    +0.038 C 
ENDBRANCH  21  22
ENDBRANCH   9  21
TORSDOF 5
ENDMDL
MODEL 9
REMARK VINA RESULT:      -6.4      2.151      6.039
REMARK  Name = NuBBE_33
REMARK  11 active torsions:
REMARK  status: ('A' for Active; 'I' for Inactive)
REMARK    1  A    between atoms: O_1  and  C_2
REMARK    2  A    between atoms: C_6  and  C_7
REMARK    3  A    between atoms: C_6  and  C_13
REMARK    4  A    between atoms: C_8  and  C_9
REMARK    5  A    between atoms: C_10  and  C_11
REMARK    6  A    between atoms: C_10  and  C_12
REMARK    7  A    between atoms: C_16  and  C_17
REMARK    8  A    between atoms: C_17  and  C_18
REMARK    9  A    between atoms: C_19  and  C_20
REMARK   10  A    between atoms: C_19  and  C_21
REMARK   11  A    between atoms: C_22  and  C_23
REMARK                            x       y       z     vdW  Elec       q    Type
REMARK                         _______ _______ _______ _____ _____    ______ ____
ROOT
ATOM      1  C   LIG A   1      -6.291  -2.641 124.797  0.00  0.00    +0.124 A 
ATOM      2  C   LIG A   1      -7.192  -1.632 124.448  0.00  0.00    +0.036 A 
ATOM      3  C   LIG A   1      -7.378  -0.566 125.347  0.00  0.00    +0.132 A 
ATOM      4  O   LIG A   1      -8.213   0.493 125.072  0.00  0.00    -0.481 OA
ATOM      5  C   LIG A   1      -8.599   0.694 123.699  0.00  0.00    +0.127 C 
ATOM      6  C   LIG A   1      -9.804   1.645 123.735  0.00  0.00    +0.060 C 
ATOM      7  C   LIG A   1      -9.048  -0.644 123.088  0.00  0.00    +0.057 C 
ATOM      8  C   LIG A   1      -7.917  -1.661 123.133  0.00  0.00    +0.047 C 
ATOM      9  C   LIG A   1      -6.723  -0.535 126.603  0.00  0.00    +0.002 A 
ATOM     10  C   LIG A   1      -5.813  -1.567 126.923  0.00  0.00    -0.040 A 
ATOM     11  C   LIG A   1      -5.041  -1.595 128.213  0.00  0.00    +0.044 C 
ATOM     12  C   LIG A   1      -5.616  -2.613 126.012  0.00  0.00    +0.049 A 
ENDROOT
BRANCH   1  13
ATOM     13  O   LIG A   1      -6.005  -3.705 123.987  0.00  0.00    -0.506 OA
ATOM     14  H   LIG A   1      -5.191  -3.526 123.492  0.00  0.00    +0.292 HD
ENDBRANCH   1  13
BRANCH   5  15
ATOM     15  C   LIG A   1      -7.472   1.419 122.979  0.00  0.00    +0.020 C 
ATOM     16  C   LIG A   1      -7.297   2.752 122.984  0.00  0.00    -0.000 C 
BRANCH  16  17
ATOM     17  C   LIG A   1      -6.258   3.447 122.273  0.00  0.00    -0.002 C 
ATOM     18  C   LIG A   1      -6.395   3.975 121.038  0.00  0.00    -0.076 C 
ATOM     19  C   LIG A   1      -7.671   3.996 120.235  0.00  0.00    +0.038 C 
ATOM     20  C   LIG A   1      -5.222   4.605 120.339  0.00  0.00    +0.038 C 
ENDBRANCH  16  17
ENDBRANCH   5  15
BRANCH   9  21
ATOM     21  C   LIG A   1      -6.983   0.609 127.574  0.00  0.00    +0.066 C 
BRANCH  21  22
ATOM     22  C   LIG A   1      -6.080   1.796 127.349  0.00  0.00    -0.023 C 
ATOM     23  C   LIG A   1      -6.401   3.033 126.917  0.00  0.00    -0.079 C 
ATOM     24  C   LIG A   1      -7.788   3.518 126.592  0.00  0.00    +0.038 C 
ATOM     25  C   LIG A   1      -5.330   4.075 126.716  0.00  0.00    +0.038 C 
ENDBRANCH  21  22
ENDBRANCH   9  21
TORSDOF 5
ENDMDL
