MODEL 1
REMARK VINA RESULT:      -5.5      0.000      0.000
REMARK  Name = NuBBE_265
REMARK  11 active torsions:
REMARK  status: ('A' for Active; 'I' for Inactive)
REMARK    1  A    between atoms: C_1  and  C_2
REMARK    2  A    between atoms: C_2  and  C_3
REMARK    3  A    between atoms: C_2  and  C_6
REMARK    4  A    between atoms: C_3  and  O_4
REMARK    5  A    between atoms: C_6  and  C_7
REMARK    6  A    between atoms: C_7  and  O_8
REMARK    7  A    between atoms: C_10  and  C_11
REMARK    8  A    between atoms: C_11  and  C_12
REMARK    9  A    between atoms: C_12  and  C_13
REMARK   10  A    between atoms: C_13  and  C_14
REMARK   11  A    between atoms: C_14  and  C_15
REMARK                            x       y       z     vdW  Elec       q    Type
REMARK                         _______ _______ _______ _____ _____    ______ ____
ROOT
ATOM      1  C   LIG A   1      -8.643   1.086 123.438  0.00  0.00    +0.046 C 
ATOM      2  C   LIG A   1      -7.898   0.131 124.033  0.00  0.00    -0.016 C 
ENDROOT
BRANCH   1   4
ATOM      3  C   LIG A   1      -8.764   3.086 121.810  0.00  0.00    +0.024 C 
ATOM      4  C   LIG A   1      -8.074   2.447 123.022  0.00  0.00    +0.131 C 
BRANCH   4   5
ATOM      5  C   LIG A   1      -8.095   3.448 124.168  0.00  0.00    +0.312 C 
ATOM      6  O   LIG A   1      -8.927   3.544 125.070  0.00  0.00    -0.250 OA
BRANCH   5   7
ATOM      7  O   LIG A   1      -7.048   4.303 124.126  0.00  0.00    -0.480 OA
ATOM      8  H   LIG A   1      -6.283   3.746 123.871  0.00  0.00    +0.295 HD
ENDBRANCH   5   7
ENDBRANCH   4   5
ENDBRANCH   1   4
BRANCH   1   9
ATOM      9  C   LIG A   1     -10.088   0.868 123.174  0.00  0.00    +0.333 C 
ATOM     10  O   LIG A   1     -10.581   0.249 122.261  0.00  0.00    -0.245 OA
BRANCH   9  11
ATOM     11  O   LIG A   1     -10.890   1.460 124.084  0.00  0.00    -0.477 OA
ATOM     12  H   LIG A   1     -11.534   0.755 124.307  0.00  0.00    +0.295 HD
ENDBRANCH   9  11
ENDBRANCH   1   9
BRANCH   2  13
ATOM     13  C   LIG A   1      -8.271  -1.233 124.543  0.00  0.00    +0.028 C 
BRANCH  13  14
ATOM     14  C   LIG A   1      -7.851  -2.320 123.553  0.00  0.00    +0.004 C 
BRANCH  14  15
ATOM     15  C   LIG A   1      -6.734  -3.193 124.127  0.00  0.00    +0.000 C 
BRANCH  15  16
ATOM     16  C   LIG A   1      -5.387  -2.873 123.480  0.00  0.00    -0.003 C 
ATOM     17  C   LIG A   1      -4.421  -4.042 123.596  0.00  0.00    +0.004 C 
ENDBRANCH  15  16
ENDBRANCH  14  15
ENDBRANCH  13  14
ENDBRANCH   2  13
TORSDOF 9
ENDMDL
MODEL 2
REMARK VINA RESULT:      -5.5      2.232      3.256
REMARK  Name = NuBBE_265
REMARK  11 active torsions:
REMARK  status: ('A' for Active; 'I' for Inactive)
REMARK    1  A    between atoms: C_1  and  C_2
REMARK    2  A    between atoms: C_2  and  C_3
REMARK    3  A    between atoms: C_2  and  C_6
REMARK    4  A    between atoms: C_3  and  O_4
REMARK    5  A    between atoms: C_6  and  C_7
REMARK    6  A    between atoms: C_7  and  O_8
REMARK    7  A    between atoms: C_10  and  C_11
REMARK    8  A    between atoms: C_11  and  C_12
REMARK    9  A    between atoms: C_12  and  C_13
REMARK   10  A    between atoms: C_13  and  C_14
REMARK   11  A    between atoms: C_14  and  C_15
REMARK                            x       y       z     vdW  Elec       q    Type
REMARK                         _______ _______ _______ _____ _____    ______ ____
ROOT
ATOM      1  C   LIG A   1      -8.998  -0.835 124.884  0.00  0.00    +0.046 C 
ATOM      2  C   LIG A   1      -8.536  -0.896 123.617  0.00  0.00    -0.016 C 
ENDROOT
BRANCH   1   4
ATOM      3  C   LIG A   1      -8.506   1.124 126.490  0.00  0.00    +0.024 C 
ATOM      4  C   LIG A   1      -9.499   0.462 125.526  0.00  0.00    +0.131 C 
BRANCH   4   5
ATOM      5  C   LIG A   1      -9.912   1.492 124.484  0.00  0.00    +0.312 C 
ATOM      6  O   LIG A   1      -9.230   2.396 124.004  0.00  0.00    -0.250 OA
BRANCH   5   7
ATOM      7  O   LIG A   1     -11.195   1.335 124.084  0.00  0.00    -0.480 OA
ATOM      8  H   LIG A   1     -11.194   1.597 123.139  0.00  0.00    +0.295 HD
ENDBRANCH   5   7
ENDBRANCH   4   5
ENDBRANCH   1   4
BRANCH   1   9
ATOM      9  C   LIG A   1      -9.019  -2.047 125.743  0.00  0.00    +0.333 C 
ATOM     10  O   LIG A   1      -8.198  -2.378 126.564  0.00  0.00    -0.245 OA
BRANCH   9  11
ATOM     11  O   LIG A   1     -10.096  -2.833 125.527  0.00  0.00    -0.477 OA
ATOM     12  H   LIG A   1      -9.698  -3.694 125.279  0.00  0.00    +0.295 HD
ENDBRANCH   9  11
ENDBRANCH   1   9
BRANCH   2  13
ATOM     13  C   LIG A   1      -7.975  -2.045 122.827  0.00  0.00    +0.028 C 
BRANCH  13  14
ATOM     14  C   LIG A   1      -6.449  -1.969 122.759  0.00  0.00    +0.004 C 
BRANCH  14  15
ATOM     15  C   LIG A   1      -5.803  -2.741 123.910  0.00  0.00    +0.000 C 
BRANCH  15  16
ATOM     16  C   LIG A   1      -4.438  -3.299 123.512  0.00  0.00    -0.003 C 
ATOM     17  C   LIG A   1      -4.420  -4.819 123.559  0.00  0.00    +0.004 C 
ENDBRANCH  15  16
ENDBRANCH  14  15
ENDBRANCH  13  14
ENDBRANCH   2  13
TORSDOF 9
ENDMDL
MODEL 3
REMARK VINA RESULT:      -5.4      9.283     10.236
REMARK  Name = NuBBE_265
REMARK  11 active torsions:
REMARK  status: ('A' for Active; 'I' for Inactive)
REMARK    1  A    between atoms: C_1  and  C_2
REMARK    2  A    between atoms: C_2  and  C_3
REMARK    3  A    between atoms: C_2  and  C_6
REMARK    4  A    between atoms: C_3  and  O_4
REMARK    5  A    between atoms: C_6  and  C_7
REMARK    6  A    between atoms: C_7  and  O_8
REMARK    7  A    between atoms: C_10  and  C_11
REMARK    8  A    between atoms: C_11  and  C_12
REMARK    9  A    between atoms: C_12  and  C_13
REMARK   10  A    between atoms: C_13  and  C_14
REMARK   11  A    between atoms: C_14  and  C_15
REMARK                            x       y       z     vdW  Elec       q    Type
REMARK                         _______ _______ _______ _____ _____    ______ ____
ROOT
ATOM      1  C   LIG A   1     -10.936   7.474 129.616  0.00  0.00    +0.046 C 
ATOM      2  C   LIG A   1      -9.708   7.358 130.163  0.00  0.00    -0.016 C 
ENDROOT
BRANCH   1   4
ATOM      3  C   LIG A   1     -10.909   7.949 127.079  0.00  0.00    +0.024 C 
ATOM      4  C   LIG A   1     -11.253   8.457 128.484  0.00  0.00    +0.131 C 
BRANCH   4   5
ATOM      5  C   LIG A   1     -12.714   8.885 128.494  0.00  0.00    +0.312 C 
ATOM      6  O   LIG A   1     -13.674   8.303 127.991  0.00  0.00    -0.250 OA
BRANCH   5   7
ATOM      7  O   LIG A   1     -12.906  10.052 129.150  0.00  0.00    -0.480 OA
ATOM      8  H   LIG A   1     -13.394  10.617 128.514  0.00  0.00    +0.295 HD
ENDBRANCH   5   7
ENDBRANCH   4   5
ENDBRANCH   1   4
BRANCH   1   9
ATOM      9  C   LIG A   1     -12.070   6.653 130.113  0.00  0.00    +0.333 C 
ATOM     10  O   LIG A   1     -12.671   6.786 131.152  0.00  0.00    -0.245 OA
BRANCH   9  11
ATOM     11  O   LIG A   1     -12.413   5.655 129.271  0.00  0.00    -0.477 OA
ATOM     12  H   LIG A   1     -13.300   5.927 128.952  0.00  0.00    +0.295 HD
ENDBRANCH   9  11
ENDBRANCH   1   9
BRANCH   2  13
ATOM     13  C   LIG A   1      -9.209   6.494 131.288  0.00  0.00    +0.028 C 
BRANCH  13  14
ATOM     14  C   LIG A   1      -7.685   6.558 131.392  0.00  0.00    +0.004 C 
BRANCH  14  15
ATOM     15  C   LIG A   1      -7.185   5.860 132.658  0.00  0.00    +0.000 C 
BRANCH  15  16
ATOM     16  C   LIG A   1      -8.302   5.710 133.690  0.00  0.00    -0.003 C 
ATOM     17  C   LIG A   1      -8.293   4.327 134.324  0.00  0.00    +0.004 C 
ENDBRANCH  15  16
ENDBRANCH  14  15
ENDBRANCH  13  14
ENDBRANCH   2  13
TORSDOF 9
ENDMDL
MODEL 4
REMARK VINA RESULT:      -5.4      8.684     10.659
REMARK  Name = NuBBE_265
REMARK  11 active torsions:
REMARK  status: ('A' for Active; 'I' for Inactive)
REMARK    1  A    between atoms: C_1  and  C_2
REMARK    2  A    between atoms: C_2  and  C_3
REMARK    3  A    between atoms: C_2  and  C_6
REMARK    4  A    between atoms: C_3  and  O_4
REMARK    5  A    between atoms: C_6  and  C_7
REMARK    6  A    between atoms: C_7  and  O_8
REMARK    7  A    between atoms: C_10  and  C_11
REMARK    8  A    between atoms: C_11  and  C_12
REMARK    9  A    between atoms: C_12  and  C_13
REMARK   10  A    between atoms: C_13  and  C_14
REMARK   11  A    between atoms: C_14  and  C_15
REMARK                            x       y       z     vdW  Elec       q    Type
REMARK                         _______ _______ _______ _____ _____    ______ ____
ROOT
ATOM      1  C   LIG A   1     -10.768   6.161 131.264  0.00  0.00    +0.046 C 
ATOM      2  C   LIG A   1     -11.718   7.106 131.418  0.00  0.00    -0.016 C 
ENDROOT
BRANCH   1   4
ATOM      3  C   LIG A   1      -9.356   4.610 132.769  0.00  0.00    +0.024 C 
ATOM      4  C   LIG A   1      -9.571   6.022 132.211  0.00  0.00    +0.131 C 
BRANCH   4   5
ATOM      5  C   LIG A   1      -8.274   6.483 131.561  0.00  0.00    +0.312 C 
ATOM      6  O   LIG A   1      -8.137   7.267 130.623  0.00  0.00    -0.250 OA
BRANCH   5   7
ATOM      7  O   LIG A   1      -7.183   5.923 132.132  0.00  0.00    -0.480 OA
ATOM      8  H   LIG A   1      -6.478   6.598 132.036  0.00  0.00    +0.295 HD
ENDBRANCH   5   7
ENDBRANCH   4   5
ENDBRANCH   1   4
BRANCH   1   9
ATOM      9  C   LIG A   1     -10.825   5.203 130.130  0.00  0.00    +0.333 C 
ATOM     10  O   LIG A   1     -11.350   4.116 130.115  0.00  0.00    -0.245 OA
BRANCH   9  11
ATOM     11  O   LIG A   1     -10.192   5.650 129.024  0.00  0.00    -0.477 OA
ATOM     12  H   LIG A   1     -10.726   5.273 128.294  0.00  0.00    +0.295 HD
ENDBRANCH   9  11
ENDBRANCH   1   9
BRANCH   2  13
ATOM     13  C   LIG A   1     -12.931   7.426 130.589  0.00  0.00    +0.028 C 
BRANCH  13  14
ATOM     14  C   LIG A   1     -12.770   8.772 129.881  0.00  0.00    +0.004 C 
BRANCH  14  15
ATOM     15  C   LIG A   1     -13.290   8.708 128.444  0.00  0.00    +0.000 C 
BRANCH  15  16
ATOM     16  C   LIG A   1     -13.422   7.264 127.961  0.00  0.00    -0.003 C 
ATOM     17  C   LIG A   1     -12.559   7.004 126.736  0.00  0.00    +0.004 C 
ENDBRANCH  15  16
ENDBRANCH  14  15
ENDBRANCH  13  14
ENDBRANCH   2  13
TORSDOF 9
ENDMDL
MODEL 5
REMARK VINA RESULT:      -5.2      8.978     10.070
REMARK  Name = NuBBE_265
REMARK  11 active torsions:
REMARK  status: ('A' for Active; 'I' for Inactive)
REMARK    1  A    between atoms: C_1  and  C_2
REMARK    2  A    between atoms: C_2  and  C_3
REMARK    3  A    between atoms: C_2  and  C_6
REMARK    4  A    between atoms: C_3  and  O_4
REMARK    5  A    between atoms: C_6  and  C_7
REMARK    6  A    between atoms: C_7  and  O_8
REMARK    7  A    between atoms: C_10  and  C_11
REMARK    8  A    between atoms: C_11  and  C_12
REMARK    9  A    between atoms: C_12  and  C_13
REMARK   10  A    between atoms: C_13  and  C_14
REMARK   11  A    between atoms: C_14  and  C_15
REMARK                            x       y       z     vdW  Elec       q    Type
REMARK                         _______ _______ _______ _____ _____    ______ ____
ROOT
ATOM      1  C   LIG A   1     -11.752   6.976 129.579  0.00  0.00    +0.046 C 
ATOM      2  C   LIG A   1     -10.578   6.476 130.017  0.00  0.00    -0.016 C 
ENDROOT
BRANCH   1   4
ATOM      3  C   LIG A   1     -13.685   7.224 127.886  0.00  0.00    +0.024 C 
ATOM      4  C   LIG A   1     -12.212   6.867 128.121  0.00  0.00    +0.131 C 
BRANCH   4   5
ATOM      5  C   LIG A   1     -11.359   7.716 127.190  0.00  0.00    +0.312 C 
ATOM      6  O   LIG A   1     -10.889   7.398 126.098  0.00  0.00    -0.250 OA
BRANCH   5   7
ATOM      7  O   LIG A   1     -11.129   8.953 127.685  0.00  0.00    -0.480 OA
ATOM      8  H   LIG A   1     -11.211   9.550 126.910  0.00  0.00    +0.295 HD
ENDBRANCH   5   7
ENDBRANCH   4   5
ENDBRANCH   1   4
BRANCH   1   9
ATOM      9  C   LIG A   1     -12.665   7.693 130.506  0.00  0.00    +0.333 C 
ATOM     10  O   LIG A   1     -13.342   7.214 131.384  0.00  0.00    -0.245 OA
BRANCH   9  11
ATOM     11  O   LIG A   1     -12.709   9.024 130.286  0.00  0.00    -0.477 OA
ATOM     12  H   LIG A   1     -12.987   9.385 131.154  0.00  0.00    +0.295 HD
ENDBRANCH   9  11
ENDBRANCH   1   9
BRANCH   2  13
ATOM     13  C   LIG A   1      -9.938   6.512 131.377  0.00  0.00    +0.028 C 
BRANCH  13  14
ATOM     14  C   LIG A   1      -8.417   6.617 131.263  0.00  0.00    +0.004 C 
BRANCH  14  15
ATOM     15  C   LIG A   1      -7.723   5.927 132.439  0.00  0.00    +0.000 C 
BRANCH  15  16
ATOM     16  C   LIG A   1      -8.496   4.691 132.896  0.00  0.00    -0.003 C 
ATOM     17  C   LIG A   1      -8.296   4.425 134.381  0.00  0.00    +0.004 C 
ENDBRANCH  15  16
ENDBRANCH  14  15
ENDBRANCH  13  14
ENDBRANCH   2  13
TORSDOF 9
ENDMDL
MODEL 6
REMARK VINA RESULT:      -5.2      7.996      9.667
REMARK  Name = NuBBE_265
REMARK  11 active torsions:
REMARK  status: ('A' for Active; 'I' for Inactive)
REMARK    1  A    between atoms: C_1  and  C_2
REMARK    2  A    between atoms: C_2  and  C_3
REMARK    3  A    between atoms: C_2  and  C_6
REMARK    4  A    between atoms: C_3  and  O_4
REMARK    5  A    between atoms: C_6  and  C_7
REMARK    6  A    between atoms: C_7  and  O_8
REMARK    7  A    between atoms: C_10  and  C_11
REMARK    8  A    between atoms: C_11  and  C_12
REMARK    9  A    between atoms: C_12  and  C_13
REMARK   10  A    between atoms: C_13  and  C_14
REMARK   11  A    between atoms: C_14  and  C_15
REMARK                            x       y       z     vdW  Elec       q    Type
REMARK                         _______ _______ _______ _____ _____    ______ ____
ROOT
ATOM      1  C   LIG A   1     -10.018   6.429 129.995  0.00  0.00    +0.046 C 
ATOM      2  C   LIG A   1      -9.301   6.864 131.052  0.00  0.00    -0.016 C 
ENDROOT
BRANCH   1   4
ATOM      3  C   LIG A   1     -12.270   7.460 130.721  0.00  0.00    +0.024 C 
ATOM      4  C   LIG A   1     -11.340   7.074 129.564  0.00  0.00    +0.131 C 
BRANCH   4   5
ATOM      5  C   LIG A   1     -11.118   8.304 128.696  0.00  0.00    +0.312 C 
ATOM      6  O   LIG A   1     -10.142   8.566 127.994  0.00  0.00    -0.250 OA
BRANCH   5   7
ATOM      7  O   LIG A   1     -12.156   9.169 128.752  0.00  0.00    -0.480 OA
ATOM      8  H   LIG A   1     -12.080   9.701 127.932  0.00  0.00    +0.295 HD
ENDBRANCH   5   7
ENDBRANCH   4   5
ENDBRANCH   1   4
BRANCH   1   9
ATOM      9  C   LIG A   1      -9.562   5.263 129.195  0.00  0.00    +0.333 C 
ATOM     10  O   LIG A   1      -9.599   4.099 129.511  0.00  0.00    -0.245 OA
BRANCH   9  11
ATOM     11  O   LIG A   1      -9.048   5.609 127.996  0.00  0.00    -0.477 OA
ATOM     12  H   LIG A   1      -9.471   4.975 127.380  0.00  0.00    +0.295 HD
ENDBRANCH   9  11
ENDBRANCH   1   9
BRANCH   2  13
ATOM     13  C   LIG A   1      -8.019   6.353 131.649  0.00  0.00    +0.028 C 
BRANCH  13  14
ATOM     14  C   LIG A   1      -8.241   5.860 133.080  0.00  0.00    +0.004 C 
BRANCH  14  15
ATOM     15  C   LIG A   1      -9.419   4.888 133.156  0.00  0.00    +0.000 C 
BRANCH  15  16
ATOM     16  C   LIG A   1      -8.975   3.510 133.645  0.00  0.00    -0.003 C 
ATOM     17  C   LIG A   1      -9.416   2.411 132.690  0.00  0.00    +0.004 C 
ENDBRANCH  15  16
ENDBRANCH  14  15
ENDBRANCH  13  14
ENDBRANCH   2  13
TORSDOF 9
ENDMDL
MODEL 7
REMARK VINA RESULT:      -5.2      8.429     10.957
REMARK  Name = NuBBE_265
REMARK  11 active torsions:
REMARK  status: ('A' for Active; 'I' for Inactive)
REMARK    1  A    between atoms: C_1  and  C_2
REMARK    2  A    between atoms: C_2  and  C_3
REMARK    3  A    between atoms: C_2  and  C_6
REMARK    4  A    between atoms: C_3  and  O_4
REMARK    5  A    between atoms: C_6  and  C_7
REMARK    6  A    between atoms: C_7  and  O_8
REMARK    7  A    between atoms: C_10  and  C_11
REMARK    8  A    between atoms: C_11  and  C_12
REMARK    9  A    between atoms: C_12  and  C_13
REMARK   10  A    between atoms: C_13  and  C_14
REMARK   11  A    between atoms: C_14  and  C_15
REMARK                            x       y       z     vdW  Elec       q    Type
REMARK                         _______ _______ _______ _____ _____    ______ ____
ROOT
ATOM      1  C   LIG A   1     -10.428   6.079 130.718  0.00  0.00    +0.046 C 
ATOM      2  C   LIG A   1     -11.680   6.347 131.145  0.00  0.00    -0.016 C 
ENDROOT
BRANCH   1   4
ATOM      3  C   LIG A   1      -9.437   5.111 132.896  0.00  0.00    +0.024 C 
ATOM      4  C   LIG A   1      -9.536   5.016 131.368  0.00  0.00    +0.131 C 
BRANCH   4   5
ATOM      5  C   LIG A   1      -9.973   3.605 131.004  0.00  0.00    +0.312 C 
ATOM      6  O   LIG A   1     -10.024   2.618 131.737  0.00  0.00    -0.250 OA
BRANCH   5   7
ATOM      7  O   LIG A   1     -10.334   3.495 129.705  0.00  0.00    -0.480 OA
ATOM      8  H   LIG A   1      -9.615   3.943 129.210  0.00  0.00    +0.295 HD
ENDBRANCH   5   7
ENDBRANCH   4   5
ENDBRANCH   1   4
BRANCH   1   9
ATOM      9  C   LIG A   1      -9.832   6.837 129.588  0.00  0.00    +0.333 C 
ATOM     10  O   LIG A   1      -9.384   7.958 129.613  0.00  0.00    -0.245 OA
BRANCH   9  11
ATOM     11  O   LIG A   1      -9.831   6.148 128.427  0.00  0.00    -0.477 OA
ATOM     12  H   LIG A   1     -10.776   5.919 128.302  0.00  0.00    +0.295 HD
ENDBRANCH   9  11
ENDBRANCH   1   9
BRANCH   2  13
ATOM     13  C   LIG A   1     -12.685   7.360 130.672  0.00  0.00    +0.028 C 
BRANCH  13  14
ATOM     14  C   LIG A   1     -13.262   6.965 129.312  0.00  0.00    +0.004 C 
BRANCH  14  15
ATOM     15  C   LIG A   1     -13.284   8.155 128.352  0.00  0.00    +0.000 C 
BRANCH  15  16
ATOM     16  C   LIG A   1     -12.824   9.438 129.042  0.00  0.00    -0.003 C 
ATOM     17  C   LIG A   1     -13.874  10.534 128.938  0.00  0.00    +0.004 C 
ENDBRANCH  15  16
ENDBRANCH  14  15
ENDBRANCH  13  14
ENDBRANCH   2  13
TORSDOF 9
ENDMDL
MODEL 8
REMARK VINA RESULT:      -5.2      9.043     10.009
REMARK  Name = NuBBE_265
REMARK  11 active torsions:
REMARK  status: ('A' for Active; 'I' for Inactive)
REMARK    1  A    between atoms: C_1  and  C_2
REMARK    2  A    between atoms: C_2  and  C_3
REMARK    3  A    between atoms: C_2  and  C_6
REMARK    4  A    between atoms: C_3  and  O_4
REMARK    5  A    between atoms: C_6  and  C_7
REMARK    6  A    between atoms: C_7  and  O_8
REMARK    7  A    between atoms: C_10  and  C_11
REMARK    8  A    between atoms: C_11  and  C_12
REMARK    9  A    between atoms: C_12  and  C_13
REMARK   10  A    between atoms: C_13  and  C_14
REMARK   11  A    between atoms: C_14  and  C_15
REMARK                            x       y       z     vdW  Elec       q    Type
REMARK                         _______ _______ _______ _____ _____    ______ ____
ROOT
ATOM      1  C   LIG A   1     -10.700   7.354 129.809  0.00  0.00    +0.046 C 
ATOM      2  C   LIG A   1      -9.447   7.279 130.306  0.00  0.00    -0.016 C 
ENDROOT
BRANCH   1   4
ATOM      3  C   LIG A   1     -10.878   7.943 127.302  0.00  0.00    +0.024 C 
ATOM      4  C   LIG A   1     -11.116   8.383 128.752  0.00  0.00    +0.131 C 
BRANCH   4   5
ATOM      5  C   LIG A   1     -12.576   8.789 128.895  0.00  0.00    +0.312 C 
ATOM      6  O   LIG A   1     -13.498   8.579 128.108  0.00  0.00    -0.250 OA
BRANCH   5   7
ATOM      7  O   LIG A   1     -12.815   9.456 130.047  0.00  0.00    -0.480 OA
ATOM      8  H   LIG A   1     -12.225   9.033 130.706  0.00  0.00    +0.295 HD
ENDBRANCH   5   7
ENDBRANCH   4   5
ENDBRANCH   1   4
BRANCH   1   9
ATOM      9  C   LIG A   1     -11.765   6.439 130.293  0.00  0.00    +0.333 C 
ATOM     10  O   LIG A   1     -12.440   6.561 131.287  0.00  0.00    -0.245 OA
BRANCH   9  11
ATOM     11  O   LIG A   1     -11.944   5.363 129.498  0.00  0.00    -0.477 OA
ATOM     12  H   LIG A   1     -12.889   5.140 129.633  0.00  0.00    +0.295 HD
ENDBRANCH   9  11
ENDBRANCH   1   9
BRANCH   2  13
ATOM     13  C   LIG A   1      -8.857   6.381 131.357  0.00  0.00    +0.028 C 
BRANCH  13  14
ATOM     14  C   LIG A   1      -7.451   5.927 130.962  0.00  0.00    +0.004 C 
BRANCH  14  15
ATOM     15  C   LIG A   1      -6.441   7.068 131.098  0.00  0.00    +0.000 C 
BRANCH  15  16
ATOM     16  C   LIG A   1      -5.064   6.659 130.577  0.00  0.00    -0.003 C 
ATOM     17  C   LIG A   1      -3.955   7.454 131.250  0.00  0.00    +0.004 C 
ENDBRANCH  15  16
ENDBRANCH  14  15
ENDBRANCH  13  14
ENDBRANCH   2  13
TORSDOF 9
ENDMDL
MODEL 9
REMARK VINA RESULT:      -5.1      8.233      9.446
REMARK  Name = NuBBE_265
REMARK  11 active torsions:
REMARK  status: ('A' for Active; 'I' for Inactive)
REMARK    1  A    between atoms: C_1  and  C_2
REMARK    2  A    between atoms: C_2  and  C_3
REMARK    3  A    between atoms: C_2  and  C_6
REMARK    4  A    between atoms: C_3  and  O_4
REMARK    5  A    between atoms: C_6  and  C_7
REMARK    6  A    between atoms: C_7  and  O_8
REMARK    7  A    between atoms: C_10  and  C_11
REMARK    8  A    between atoms: C_11  and  C_12
REMARK    9  A    between atoms: C_12  and  C_13
REMARK   10  A    between atoms: C_13  and  C_14
REMARK   11  A    between atoms: C_14  and  C_15
REMARK                            x       y       z     vdW  Elec       q    Type
REMARK                         _______ _______ _______ _____ _____    ______ ____
ROOT
ATOM      1  C   LIG A   1     -11.074   5.837 129.910  0.00  0.00    +0.046 C 
ATOM      2  C   LIG A   1     -10.946   4.624 130.487  0.00  0.00    -0.016 C 
ENDROOT
BRANCH   1   4
ATOM      3  C   LIG A   1     -12.801   7.452 130.945  0.00  0.00    +0.024 C 
ATOM      4  C   LIG A   1     -12.422   6.551 129.763  0.00  0.00    +0.131 C 
BRANCH   4   5
ATOM      5  C   LIG A   1     -12.492   7.379 128.488  0.00  0.00    +0.312 C 
ATOM      6  O   LIG A   1     -12.562   8.603 128.386  0.00  0.00    -0.250 OA
BRANCH   5   7
ATOM      7  O   LIG A   1     -12.474   6.613 127.373  0.00  0.00    -0.480 OA
ATOM      8  H   LIG A   1     -11.781   7.016 126.807  0.00  0.00    +0.295 HD
ENDBRANCH   5   7
ENDBRANCH   4   5
ENDBRANCH   1   4
BRANCH   1   9
ATOM      9  C   LIG A   1      -9.890   6.543 129.355  0.00  0.00    +0.333 C 
ATOM     10  O   LIG A   1      -9.282   7.458 129.857  0.00  0.00    -0.245 OA
BRANCH   9  11
ATOM     11  O   LIG A   1      -9.507   6.073 128.150  0.00  0.00    -0.477 OA
ATOM     12  H   LIG A   1      -8.770   5.465 128.371  0.00  0.00    +0.295 HD
ENDBRANCH   9  11
ENDBRANCH   1   9
BRANCH   2  13
ATOM     13  C   LIG A   1      -9.737   3.753 130.691  0.00  0.00    +0.028 C 
BRANCH  13  14
ATOM     14  C   LIG A   1     -10.078   2.538 131.554  0.00  0.00    +0.004 C 
BRANCH  14  15
ATOM     15  C   LIG A   1      -9.159   2.447 132.773  0.00  0.00    +0.000 C 
BRANCH  15  16
ATOM     16  C   LIG A   1      -9.354   3.639 133.708  0.00  0.00    -0.003 C 
ATOM     17  C   LIG A   1      -8.038   4.080 134.331  0.00  0.00    +0.004 C 
ENDBRANCH  15  16
ENDBRANCH  14  15
ENDBRANCH  13  14
ENDBRANCH   2  13
TORSDOF 9
ENDMDL
