MODEL 1
REMARK VINA RESULT:      -6.9      0.000      0.000
REMARK  Name = NuBBE_336
REMARK  5 active torsions:
REMARK  status: ('A' for Active; 'I' for Inactive)
REMARK    1  A    between atoms: C_4  and  C_6
REMARK    2  A    between atoms: C_8  and  O_9
REMARK    3  A    between atoms: C_12  and  C_13
REMARK    4  A    between atoms: C_13  and  O_14
REMARK    5  A    between atoms: O_14  and  C_15
REMARK                            x       y       z     vdW  Elec       q    Type
REMARK                         _______ _______ _______ _____ _____    ______ ____
ROOT
ATOM      1  O   LIG A   1     -10.509   7.078 125.980  0.00  0.00    -0.251 OA
ATOM      2  C   LIG A   1     -10.859   7.379 127.117  0.00  0.00    +0.308 C 
ATOM      3  O   LIG A   1     -11.991   8.084 127.324  0.00  0.00    -0.461 OA
ATOM      4  C   LIG A   1     -12.148   8.887 128.499  0.00  0.00    +0.183 C 
ATOM      5  C   LIG A   1     -13.588   9.394 128.510  0.00  0.00    +0.052 C 
ATOM      6  C   LIG A   1     -11.751   8.174 129.789  0.00  0.00    +0.106 C 
ATOM      7  C   LIG A   1     -12.707   7.066 130.261  0.00  0.00    +0.311 C 
ATOM      8  O   LIG A   1     -12.291   6.510 131.513  0.00  0.00    -0.470 OA
ATOM      9  C   LIG A   1     -10.945   6.307 131.654  0.00  0.00    +0.201 C 
ATOM     10  C   LIG A   1      -9.988   6.754 130.824  0.00  0.00    +0.075 C 
ATOM     11  C   LIG A   1     -10.326   7.622 129.631  0.00  0.00    +0.052 C 
ATOM     12  C   LIG A   1     -10.123   6.857 128.324  0.00  0.00    +0.129 C 
ENDROOT
BRANCH   7  13
ATOM     13  O   LIG A   1     -12.818   6.030 129.301  0.00  0.00    -0.357 OA
ATOM     14  H   LIG A   1     -12.078   6.167 128.687  0.00  0.00    +0.213 HD
ENDBRANCH   7  13
BRANCH  10  15
ATOM     15  C   LIG A   1      -8.557   6.472 131.107  0.00  0.00    +0.338 C 
ATOM     16  O   LIG A   1      -7.649   7.222 130.772  0.00  0.00    -0.245 OA
BRANCH  15  17
ATOM     17  O   LIG A   1      -8.415   5.292 131.758  0.00  0.00    -0.465 OA
ATOM     18  C   LIG A   1      -7.928   4.214 130.958  0.00  0.00    +0.280 C 
ENDBRANCH  15  17
ENDBRANCH  10  15
TORSDOF 3
ENDMDL
MODEL 2
REMARK VINA RESULT:      -6.2      1.299      4.662
REMARK  Name = NuBBE_336
REMARK  5 active torsions:
REMARK  status: ('A' for Active; 'I' for Inactive)
REMARK    1  A    between atoms: C_4  and  C_6
REMARK    2  A    between atoms: C_8  and  O_9
REMARK    3  A    between atoms: C_12  and  C_13
REMARK    4  A    between atoms: C_13  and  O_14
REMARK    5  A    between atoms: O_14  and  C_15
REMARK                            x       y       z     vdW  Elec       q    Type
REMARK                         _______ _______ _______ _____ _____    ______ ____
ROOT
ATOM      1  O   LIG A   1      -6.765   6.993 130.906  0.00  0.00    -0.251 OA
ATOM      2  C   LIG A   1      -7.906   6.544 130.848  0.00  0.00    +0.308 C 
ATOM      3  O   LIG A   1      -8.200   5.342 131.387  0.00  0.00    -0.461 OA
ATOM      4  C   LIG A   1      -9.304   4.571 130.900  0.00  0.00    +0.183 C 
ATOM      5  C   LIG A   1      -9.465   3.373 131.832  0.00  0.00    +0.052 C 
ATOM      6  C   LIG A   1     -10.589   5.378 130.728  0.00  0.00    +0.106 C 
ATOM      7  C   LIG A   1     -11.291   5.800 132.028  0.00  0.00    +0.311 C 
ATOM      8  O   LIG A   1     -12.521   6.484 131.764  0.00  0.00    -0.470 OA
ATOM      9  C   LIG A   1     -12.493   7.374 130.724  0.00  0.00    +0.201 C 
ATOM     10  C   LIG A   1     -11.500   7.512 129.830  0.00  0.00    +0.075 C 
ATOM     11  C   LIG A   1     -10.288   6.606 129.856  0.00  0.00    +0.052 C 
ATOM     12  C   LIG A   1      -9.044   7.370 130.308  0.00  0.00    +0.129 C 
ENDROOT
BRANCH   7  13
ATOM     13  O   LIG A   1     -10.459   6.623 132.826  0.00  0.00    -0.357 OA
ATOM     14  H   LIG A   1     -10.062   6.027 133.484  0.00  0.00    +0.213 HD
ENDBRANCH   7  13
BRANCH  10  15
ATOM     15  C   LIG A   1     -11.609   8.514 128.737  0.00  0.00    +0.338 C 
ATOM     16  O   LIG A   1     -12.475   9.378 128.707  0.00  0.00    -0.245 OA
BRANCH  15  17
ATOM     17  O   LIG A   1     -10.644   8.322 127.806  0.00  0.00    -0.465 OA
ATOM     18  C   LIG A   1     -11.092   7.745 126.580  0.00  0.00    +0.280 C 
ENDBRANCH  15  17
ENDBRANCH  10  15
TORSDOF 3
ENDMDL
MODEL 3
REMARK VINA RESULT:      -6.0      1.685      2.140
REMARK  Name = NuBBE_336
REMARK  5 active torsions:
REMARK  status: ('A' for Active; 'I' for Inactive)
REMARK    1  A    between atoms: C_4  and  C_6
REMARK    2  A    between atoms: C_8  and  O_9
REMARK    3  A    between atoms: C_12  and  C_13
REMARK    4  A    between atoms: C_13  and  O_14
REMARK    5  A    between atoms: O_14  and  C_15
REMARK                            x       y       z     vdW  Elec       q    Type
REMARK                         _______ _______ _______ _____ _____    ______ ____
ROOT
ATOM      1  O   LIG A   1      -8.370   4.781 127.494  0.00  0.00    -0.251 OA
ATOM      2  C   LIG A   1      -9.020   5.511 128.236  0.00  0.00    +0.308 C 
ATOM      3  O   LIG A   1      -9.857   6.440 127.726  0.00  0.00    -0.461 OA
ATOM      4  C   LIG A   1     -10.197   7.610 128.479  0.00  0.00    +0.183 C 
ATOM      5  C   LIG A   1     -11.285   8.346 127.702  0.00  0.00    +0.052 C 
ATOM      6  C   LIG A   1     -10.582   7.320 129.927  0.00  0.00    +0.106 C 
ATOM      7  C   LIG A   1     -11.944   6.635 130.131  0.00  0.00    +0.311 C 
ATOM      8  O   LIG A   1     -12.248   6.473 131.520  0.00  0.00    -0.470 OA
ATOM      9  C   LIG A   1     -11.203   6.086 132.315  0.00  0.00    +0.201 C 
ATOM     10  C   LIG A   1      -9.910   6.040 131.953  0.00  0.00    +0.075 C 
ATOM     11  C   LIG A   1      -9.463   6.495 130.581  0.00  0.00    +0.052 C 
ATOM     12  C   LIG A   1      -9.021   5.306 129.728  0.00  0.00    +0.129 C 
ENDROOT
BRANCH   7  13
ATOM     13  O   LIG A   1     -11.994   5.373 129.489  0.00  0.00    -0.357 OA
ATOM     14  H   LIG A   1     -11.427   5.461 128.704  0.00  0.00    +0.213 HD
ENDBRANCH   7  13
BRANCH  10  15
ATOM     15  C   LIG A   1      -8.873   5.613 132.928  0.00  0.00    +0.338 C 
ATOM     16  O   LIG A   1      -7.757   6.112 132.976  0.00  0.00    -0.245 OA
BRANCH  15  17
ATOM     17  O   LIG A   1      -9.332   4.611 133.716  0.00  0.00    -0.465 OA
ATOM     18  C   LIG A   1      -8.947   3.297 133.311  0.00  0.00    +0.280 C 
ENDBRANCH  15  17
ENDBRANCH  10  15
TORSDOF 3
ENDMDL
MODEL 4
REMARK VINA RESULT:      -5.9      2.055      3.439
REMARK  Name = NuBBE_336
REMARK  5 active torsions:
REMARK  status: ('A' for Active; 'I' for Inactive)
REMARK    1  A    between atoms: C_4  and  C_6
REMARK    2  A    between atoms: C_8  and  O_9
REMARK    3  A    between atoms: C_12  and  C_13
REMARK    4  A    between atoms: C_13  and  O_14
REMARK    5  A    between atoms: O_14  and  C_15
REMARK                            x       y       z     vdW  Elec       q    Type
REMARK                         _______ _______ _______ _____ _____    ______ ____
ROOT
ATOM      1  O   LIG A   1     -13.199   8.246 132.184  0.00  0.00    -0.251 OA
ATOM      2  C   LIG A   1     -12.750   7.603 131.239  0.00  0.00    +0.308 C 
ATOM      3  O   LIG A   1     -13.140   7.876 129.975  0.00  0.00    -0.461 OA
ATOM      4  C   LIG A   1     -13.080   6.869 128.958  0.00  0.00    +0.183 C 
ATOM      5  C   LIG A   1     -13.412   7.548 127.632  0.00  0.00    +0.052 C 
ATOM      6  C   LIG A   1     -11.761   6.102 128.929  0.00  0.00    +0.106 C 
ATOM      7  C   LIG A   1     -10.545   6.883 128.407  0.00  0.00    +0.311 C 
ATOM      8  O   LIG A   1      -9.376   6.060 128.347  0.00  0.00    -0.470 OA
ATOM      9  C   LIG A   1      -9.194   5.210 129.405  0.00  0.00    +0.201 C 
ATOM     10  C   LIG A   1     -10.092   4.945 130.368  0.00  0.00    +0.075 C 
ATOM     11  C   LIG A   1     -11.480   5.546 130.334  0.00  0.00    +0.052 C 
ATOM     12  C   LIG A   1     -11.651   6.593 131.435  0.00  0.00    +0.129 C 
ENDROOT
BRANCH   7  13
ATOM     13  O   LIG A   1     -10.276   8.022 129.205  0.00  0.00    -0.357 OA
ATOM     14  H   LIG A   1      -9.660   8.564 128.683  0.00  0.00    +0.213 HD
ENDBRANCH   7  13
BRANCH  10  15
ATOM     15  C   LIG A   1      -9.766   3.985 131.455  0.00  0.00    +0.338 C 
ATOM     16  O   LIG A   1      -9.095   4.286 132.432  0.00  0.00    -0.245 OA
BRANCH  15  17
ATOM     17  O   LIG A   1     -10.296   2.765 131.199  0.00  0.00    -0.465 OA
ATOM     18  C   LIG A   1      -9.767   1.698 131.986  0.00  0.00    +0.280 C 
ENDBRANCH  15  17
ENDBRANCH  10  15
TORSDOF 3
ENDMDL
MODEL 5
REMARK VINA RESULT:      -5.9      1.771      5.381
REMARK  Name = NuBBE_336
REMARK  5 active torsions:
REMARK  status: ('A' for Active; 'I' for Inactive)
REMARK    1  A    between atoms: C_4  and  C_6
REMARK    2  A    between atoms: C_8  and  O_9
REMARK    3  A    between atoms: C_12  and  C_13
REMARK    4  A    between atoms: C_13  and  O_14
REMARK    5  A    between atoms: O_14  and  C_15
REMARK                            x       y       z     vdW  Elec       q    Type
REMARK                         _______ _______ _______ _____ _____    ______ ____
ROOT
ATOM      1  O   LIG A   1      -9.854   2.237 131.410  0.00  0.00    -0.251 OA
ATOM      2  C   LIG A   1      -9.694   3.450 131.507  0.00  0.00    +0.308 C 
ATOM      3  O   LIG A   1      -8.705   3.954 132.274  0.00  0.00    -0.461 OA
ATOM      4  C   LIG A   1      -8.808   5.270 132.830  0.00  0.00    +0.183 C 
ATOM      5  C   LIG A   1      -7.465   5.592 133.479  0.00  0.00    +0.052 C 
ATOM      6  C   LIG A   1      -9.262   6.328 131.827  0.00  0.00    +0.106 C 
ATOM      7  C   LIG A   1      -8.229   6.721 130.758  0.00  0.00    +0.311 C 
ATOM      8  O   LIG A   1      -8.719   7.768 129.914  0.00  0.00    -0.470 OA
ATOM      9  C   LIG A   1     -10.032   7.664 129.539  0.00  0.00    +0.201 C 
ATOM     10  C   LIG A   1     -10.929   6.799 130.040  0.00  0.00    +0.075 C 
ATOM     11  C   LIG A   1     -10.566   5.856 131.167  0.00  0.00    +0.052 C 
ATOM     12  C   LIG A   1     -10.496   4.412 130.670  0.00  0.00    +0.129 C 
ENDROOT
BRANCH   7  13
ATOM     13  O   LIG A   1      -7.857   5.610 129.961  0.00  0.00    -0.357 OA
ATOM     14  H   LIG A   1      -7.627   5.982 129.092  0.00  0.00    +0.213 HD
ENDBRANCH   7  13
BRANCH  10  15
ATOM     15  C   LIG A   1     -12.332   6.805 129.550  0.00  0.00    +0.338 C 
ATOM     16  O   LIG A   1     -13.286   7.089 130.262  0.00  0.00    -0.245 OA
BRANCH  15  17
ATOM     17  O   LIG A   1     -12.391   6.448 128.244  0.00  0.00    -0.465 OA
ATOM     18  C   LIG A   1     -13.385   7.127 127.476  0.00  0.00    +0.280 C 
ENDBRANCH  15  17
ENDBRANCH  10  15
TORSDOF 3
ENDMDL
MODEL 6
REMARK VINA RESULT:      -5.7      7.091      8.865
REMARK  Name = NuBBE_336
REMARK  5 active torsions:
REMARK  status: ('A' for Active; 'I' for Inactive)
REMARK    1  A    between atoms: C_4  and  C_6
REMARK    2  A    between atoms: C_8  and  O_9
REMARK    3  A    between atoms: C_12  and  C_13
REMARK    4  A    between atoms: C_13  and  O_14
REMARK    5  A    between atoms: O_14  and  C_15
REMARK                            x       y       z     vdW  Elec       q    Type
REMARK                         _______ _______ _______ _____ _____    ______ ____
ROOT
ATOM      1  O   LIG A   1      -6.006   4.213 121.318  0.00  0.00    -0.251 OA
ATOM      2  C   LIG A   1      -6.236   3.720 122.419  0.00  0.00    +0.308 C 
ATOM      3  O   LIG A   1      -5.729   4.276 123.540  0.00  0.00    -0.461 OA
ATOM      4  C   LIG A   1      -5.516   3.487 124.716  0.00  0.00    +0.183 C 
ATOM      5  C   LIG A   1      -5.114   4.444 125.834  0.00  0.00    +0.052 C 
ATOM      6  C   LIG A   1      -6.700   2.596 125.082  0.00  0.00    +0.106 C 
ATOM      7  C   LIG A   1      -7.936   3.323 125.637  0.00  0.00    +0.311 C 
ATOM      8  O   LIG A   1      -8.962   2.400 126.019  0.00  0.00    -0.470 OA
ATOM      9  C   LIG A   1      -9.158   1.345 125.168  0.00  0.00    +0.201 C 
ATOM     10  C   LIG A   1      -8.363   1.001 124.142  0.00  0.00    +0.075 C 
ATOM     11  C   LIG A   1      -7.080   1.750 123.857  0.00  0.00    +0.052 C 
ATOM     12  C   LIG A   1      -7.200   2.574 122.575  0.00  0.00    +0.129 C 
ENDROOT
BRANCH   7  13
ATOM     13  O   LIG A   1      -8.462   4.246 124.700  0.00  0.00    -0.357 OA
ATOM     14  H   LIG A   1      -9.137   4.750 125.185  0.00  0.00    +0.213 HD
ENDBRANCH   7  13
BRANCH  10  15
ATOM     15  C   LIG A   1      -8.690  -0.183 123.305  0.00  0.00    +0.338 C 
ATOM     16  O   LIG A   1      -9.822  -0.433 122.915  0.00  0.00    -0.245 OA
BRANCH  15  17
ATOM     17  O   LIG A   1      -7.582  -0.924 123.060  0.00  0.00    -0.465 OA
ATOM     18  C   LIG A   1      -7.653  -2.281 123.499  0.00  0.00    +0.280 C 
ENDBRANCH  15  17
ENDBRANCH  10  15
TORSDOF 3
ENDMDL
MODEL 7
REMARK VINA RESULT:      -5.5      8.858     11.345
REMARK  Name = NuBBE_336
REMARK  5 active torsions:
REMARK  status: ('A' for Active; 'I' for Inactive)
REMARK    1  A    between atoms: C_4  and  C_6
REMARK    2  A    between atoms: C_8  and  O_9
REMARK    3  A    between atoms: C_12  and  C_13
REMARK    4  A    between atoms: C_13  and  O_14
REMARK    5  A    between atoms: O_14  and  C_15
REMARK                            x       y       z     vdW  Elec       q    Type
REMARK                         _______ _______ _______ _____ _____    ______ ____
ROOT
ATOM      1  O   LIG A   1      -5.393  -1.030 127.354  0.00  0.00    -0.251 OA
ATOM      2  C   LIG A   1      -5.776  -1.277 126.214  0.00  0.00    +0.308 C 
ATOM      3  O   LIG A   1      -5.305  -2.352 125.548  0.00  0.00    -0.461 OA
ATOM      4  C   LIG A   1      -5.293  -2.379 124.116  0.00  0.00    +0.183 C 
ATOM      5  C   LIG A   1      -4.877  -3.785 123.694  0.00  0.00    +0.052 C 
ATOM      6  C   LIG A   1      -6.604  -1.922 123.481  0.00  0.00    +0.106 C 
ATOM      7  C   LIG A   1      -7.787  -2.895 123.618  0.00  0.00    +0.311 C 
ATOM      8  O   LIG A   1      -8.946  -2.415 122.929  0.00  0.00    -0.470 OA
ATOM      9  C   LIG A   1      -9.194  -1.074 123.049  0.00  0.00    +0.201 C 
ATOM     10  C   LIG A   1      -8.360  -0.161 123.574  0.00  0.00    +0.075 C 
ATOM     11  C   LIG A   1      -6.975  -0.543 124.049  0.00  0.00    +0.052 C 
ATOM     12  C   LIG A   1      -6.882  -0.480 125.573  0.00  0.00    +0.129 C 
ENDROOT
BRANCH   7  13
ATOM     13  O   LIG A   1      -8.112  -3.132 124.976  0.00  0.00    -0.357 OA
ATOM     14  H   LIG A   1      -7.351  -2.804 125.484  0.00  0.00    +0.213 HD
ENDBRANCH   7  13
BRANCH  10  15
ATOM     15  C   LIG A   1      -8.753   1.271 123.628  0.00  0.00    +0.338 C 
ATOM     16  O   LIG A   1      -9.742   1.670 124.229  0.00  0.00    -0.245 OA
BRANCH  15  17
ATOM     17  O   LIG A   1      -7.888   2.039 122.923  0.00  0.00    -0.465 OA
ATOM     18  C   LIG A   1      -8.492   3.064 122.133  0.00  0.00    +0.280 C 
ENDBRANCH  15  17
ENDBRANCH  10  15
TORSDOF 3
ENDMDL
MODEL 8
REMARK VINA RESULT:      -5.4      8.665     10.417
REMARK  Name = NuBBE_336
REMARK  5 active torsions:
REMARK  status: ('A' for Active; 'I' for Inactive)
REMARK    1  A    between atoms: C_4  and  C_6
REMARK    2  A    between atoms: C_8  and  O_9
REMARK    3  A    between atoms: C_12  and  C_13
REMARK    4  A    between atoms: C_13  and  O_14
REMARK    5  A    between atoms: O_14  and  C_15
REMARK                            x       y       z     vdW  Elec       q    Type
REMARK                         _______ _______ _______ _____ _____    ______ ____
ROOT
ATOM      1  O   LIG A   1      -5.061  -3.056 123.690  0.00  0.00    -0.251 OA
ATOM      2  C   LIG A   1      -6.124  -2.447 123.777  0.00  0.00    +0.308 C 
ATOM      3  O   LIG A   1      -7.300  -3.106 123.716  0.00  0.00    -0.461 OA
ATOM      4  C   LIG A   1      -8.491  -2.438 123.282  0.00  0.00    +0.183 C 
ATOM      5  C   LIG A   1      -9.654  -3.402 123.502  0.00  0.00    +0.052 C 
ATOM      6  C   LIG A   1      -8.705  -1.076 123.937  0.00  0.00    +0.106 C 
ATOM      7  C   LIG A   1      -9.106  -1.103 125.420  0.00  0.00    +0.311 C 
ATOM      8  O   LIG A   1      -9.356   0.214 125.923  0.00  0.00    -0.470 OA
ATOM      9  C   LIG A   1      -8.484   1.183 125.505  0.00  0.00    +0.201 C 
ATOM     10  C   LIG A   1      -7.562   1.052 124.537  0.00  0.00    +0.075 C 
ATOM     11  C   LIG A   1      -7.440  -0.227 123.737  0.00  0.00    +0.052 C 
ATOM     12  C   LIG A   1      -6.156  -0.976 124.095  0.00  0.00    +0.129 C 
ENDROOT
BRANCH   7  13
ATOM     13  O   LIG A   1      -8.115  -1.729 126.216  0.00  0.00    -0.357 OA
ATOM     14  H   LIG A   1      -7.894  -2.553 125.752  0.00  0.00    +0.213 HD
ENDBRANCH   7  13
BRANCH  10  15
ATOM     15  C   LIG A   1      -6.687   2.197 124.174  0.00  0.00    +0.338 C 
ATOM     16  O   LIG A   1      -6.080   2.862 125.002  0.00  0.00    -0.245 OA
BRANCH  15  17
ATOM     17  O   LIG A   1      -6.676   2.392 122.833  0.00  0.00    -0.465 OA
ATOM     18  C   LIG A   1      -6.159   3.654 122.410  0.00  0.00    +0.280 C 
ENDBRANCH  15  17
ENDBRANCH  10  15
TORSDOF 3
ENDMDL
MODEL 9
REMARK VINA RESULT:      -5.3      6.576      8.243
REMARK  Name = NuBBE_336
REMARK  5 active torsions:
REMARK  status: ('A' for Active; 'I' for Inactive)
REMARK    1  A    between atoms: C_4  and  C_6
REMARK    2  A    between atoms: C_8  and  O_9
REMARK    3  A    between atoms: C_12  and  C_13
REMARK    4  A    between atoms: C_13  and  O_14
REMARK    5  A    between atoms: O_14  and  C_15
REMARK                            x       y       z     vdW  Elec       q    Type
REMARK                         _______ _______ _______ _____ _____    ______ ____
ROOT
ATOM      1  O   LIG A   1      -9.032   1.810 127.742  0.00  0.00    -0.251 OA
ATOM      2  C   LIG A   1      -8.359   1.876 126.717  0.00  0.00    +0.308 C 
ATOM      3  O   LIG A   1      -8.796   1.316 125.570  0.00  0.00    -0.461 OA
ATOM      4  C   LIG A   1      -7.871   0.907 124.556  0.00  0.00    +0.183 C 
ATOM      5  C   LIG A   1      -8.691   0.490 123.339  0.00  0.00    +0.052 C 
ATOM      6  C   LIG A   1      -6.807   1.953 124.236  0.00  0.00    +0.106 C 
ATOM      7  C   LIG A   1      -7.297   3.192 123.470  0.00  0.00    +0.311 C 
ATOM      8  O   LIG A   1      -6.218   4.077 123.153  0.00  0.00    -0.470 OA
ATOM      9  C   LIG A   1      -5.285   4.253 124.140  0.00  0.00    +0.201 C 
ATOM     10  C   LIG A   1      -5.189   3.536 125.272  0.00  0.00    +0.075 C 
ATOM     11  C   LIG A   1      -6.113   2.369 125.543  0.00  0.00    +0.052 C 
ATOM     12  C   LIG A   1      -7.100   2.701 126.663  0.00  0.00    +0.129 C 
ENDROOT
BRANCH   7  13
ATOM     13  O   LIG A   1      -8.284   3.900 124.201  0.00  0.00    -0.357 OA
ATOM     14  H   LIG A   1      -8.918   3.225 124.497  0.00  0.00    +0.213 HD
ENDBRANCH   7  13
BRANCH  10  15
ATOM     15  C   LIG A   1      -4.113   3.827 126.255  0.00  0.00    +0.338 C 
ATOM     16  O   LIG A   1      -4.022   4.893 126.849  0.00  0.00    -0.245 OA
BRANCH  15  17
ATOM     17  O   LIG A   1      -3.271   2.773 126.378  0.00  0.00    -0.465 OA
ATOM     18  C   LIG A   1      -1.904   3.113 126.609  0.00  0.00    +0.280 C 
ENDBRANCH  15  17
ENDBRANCH  10  15
TORSDOF 3
ENDMDL
