MODEL 1
REMARK VINA RESULT:      -5.2      0.000      0.000
REMARK  Name = NuBBE_2226
REMARK  7 active torsions:
REMARK  status: ('A' for Active; 'I' for Inactive)
REMARK    1  A    between atoms: C_1  and  C_3
REMARK    2  A    between atoms: C_4  and  O_5
REMARK    3  A    between atoms: O_5  and  C_6
REMARK    4  A    between atoms: C_8  and  O_13
REMARK    5  A    between atoms: C_9  and  O_11
REMARK    6  A    between atoms: O_11  and  C_12
REMARK    7  A    between atoms: O_13  and  C_14
REMARK                            x       y       z     vdW  Elec       q    Type
REMARK                         _______ _______ _______ _____ _____    ______ ____
ROOT
ATOM      1  C   LIG A   1      -7.913   3.890 120.296  0.00  0.00    +0.020 A 
ATOM      2  C   LIG A   1      -6.527   3.999 120.518  0.00  0.00    +0.131 A 
ATOM      3  C   LIG A   1      -6.003   3.681 121.778  0.00  0.00    +0.095 A 
ATOM      4  C   LIG A   1      -6.833   3.235 122.821  0.00  0.00    +0.165 A 
ATOM      5  C   LIG A   1      -8.212   3.127 122.605  0.00  0.00    +0.162 A 
ATOM      6  C   LIG A   1      -8.736   3.472 121.354  0.00  0.00    +0.060 A 
ENDROOT
BRANCH   1   7
ATOM      7  C   LIG A   1      -8.511   4.273 119.002  0.00  0.00    +0.004 C 
ATOM      8  C   LIG A   1      -9.830   4.425 118.785  0.00  0.00    +0.009 C 
ENDBRANCH   1   7
BRANCH   2   9
ATOM      9  O   LIG A   1      -5.770   4.470 119.472  0.00  0.00    -0.494 OA
ATOM     10  C   LIG A   1      -5.205   5.766 119.620  0.00  0.00    +0.277 C 
ENDBRANCH   2   9
BRANCH   5  11
ATOM     11  O   LIG A   1      -9.036   2.806 123.652  0.00  0.00    -0.491 OA
ATOM     12  C   LIG A   1      -9.774   1.597 123.503  0.00  0.00    +0.277 C 
ENDBRANCH   5  11
BRANCH   4  13
ATOM     13  O   LIG A   1      -6.166   3.016 124.001  0.00  0.00    -0.491 OA
ATOM     14  C   LIG A   1      -5.806   4.164 124.762  0.00  0.00    +0.277 C 
ENDBRANCH   4  13
TORSDOF 4
ENDMDL
MODEL 2
REMARK VINA RESULT:      -5.0      1.464      3.465
REMARK  Name = NuBBE_2226
REMARK  7 active torsions:
REMARK  status: ('A' for Active; 'I' for Inactive)
REMARK    1  A    between atoms: C_1  and  C_3
REMARK    2  A    between atoms: C_4  and  O_5
REMARK    3  A    between atoms: O_5  and  C_6
REMARK    4  A    between atoms: C_8  and  O_13
REMARK    5  A    between atoms: C_9  and  O_11
REMARK    6  A    between atoms: O_11  and  C_12
REMARK    7  A    between atoms: O_13  and  C_14
REMARK                            x       y       z     vdW  Elec       q    Type
REMARK                         _______ _______ _______ _____ _____    ______ ____
ROOT
ATOM      1  C   LIG A   1      -6.478   3.758 121.586  0.00  0.00    +0.020 A 
ATOM      2  C   LIG A   1      -7.720   3.704 120.926  0.00  0.00    +0.131 A 
ATOM      3  C   LIG A   1      -8.810   3.087 121.555  0.00  0.00    +0.095 A 
ATOM      4  C   LIG A   1      -8.692   2.539 122.844  0.00  0.00    +0.165 A 
ATOM      5  C   LIG A   1      -7.458   2.590 123.504  0.00  0.00    +0.162 A 
ATOM      6  C   LIG A   1      -6.365   3.181 122.861  0.00  0.00    +0.060 A 
ENDROOT
BRANCH   1   7
ATOM      7  C   LIG A   1      -5.292   4.345 120.933  0.00  0.00    +0.004 C 
ATOM      8  C   LIG A   1      -4.302   4.987 121.580  0.00  0.00    +0.009 C 
ENDBRANCH   1   7
BRANCH   2   9
ATOM      9  O   LIG A   1      -7.767   4.227 119.656  0.00  0.00    -0.494 OA
ATOM     10  C   LIG A   1      -9.046   4.305 119.039  0.00  0.00    +0.277 C 
ENDBRANCH   2   9
BRANCH   5  11
ATOM     11  O   LIG A   1      -7.311   1.955 124.709  0.00  0.00    -0.491 OA
ATOM     12  C   LIG A   1      -6.800   0.627 124.644  0.00  0.00    +0.277 C 
ENDBRANCH   5  11
BRANCH   4  13
ATOM     13  O   LIG A   1      -9.839   1.931 123.291  0.00  0.00    -0.491 OA
ATOM     14  C   LIG A   1     -10.198   0.699 122.676  0.00  0.00    +0.277 C 
ENDBRANCH   4  13
TORSDOF 4
ENDMDL
MODEL 3
REMARK VINA RESULT:      -5.0      5.547      7.555
REMARK  Name = NuBBE_2226
REMARK  7 active torsions:
REMARK  status: ('A' for Active; 'I' for Inactive)
REMARK    1  A    between atoms: C_1  and  C_3
REMARK    2  A    between atoms: C_4  and  O_5
REMARK    3  A    between atoms: O_5  and  C_6
REMARK    4  A    between atoms: C_8  and  O_13
REMARK    5  A    between atoms: C_9  and  O_11
REMARK    6  A    between atoms: O_11  and  C_12
REMARK    7  A    between atoms: O_13  and  C_14
REMARK                            x       y       z     vdW  Elec       q    Type
REMARK                         _______ _______ _______ _____ _____    ______ ____
ROOT
ATOM      1  C   LIG A   1      -6.315  -2.633 124.217  0.00  0.00    +0.020 A 
ATOM      2  C   LIG A   1      -6.395  -2.189 125.551  0.00  0.00    +0.131 A 
ATOM      3  C   LIG A   1      -7.585  -1.610 126.014  0.00  0.00    +0.095 A 
ATOM      4  C   LIG A   1      -8.707  -1.483 125.178  0.00  0.00    +0.165 A 
ATOM      5  C   LIG A   1      -8.631  -1.922 123.851  0.00  0.00    +0.162 A 
ATOM      6  C   LIG A   1      -7.432  -2.474 123.383  0.00  0.00    +0.060 A 
ENDROOT
BRANCH   1   7
ATOM      7  C   LIG A   1      -5.062  -3.193 123.675  0.00  0.00    +0.004 C 
ATOM      8  C   LIG A   1      -4.704  -4.488 123.756  0.00  0.00    +0.009 C 
ENDBRANCH   1   7
BRANCH   2   9
ATOM      9  O   LIG A   1      -5.257  -2.310 126.311  0.00  0.00    -0.494 OA
ATOM     10  C   LIG A   1      -5.391  -2.088 127.710  0.00  0.00    +0.277 C 
ENDBRANCH   2   9
BRANCH   5  11
ATOM     11  O   LIG A   1      -9.681  -1.694 123.003  0.00  0.00    -0.491 OA
ATOM     12  C   LIG A   1      -9.717  -0.402 122.404  0.00  0.00    +0.277 C 
ENDBRANCH   5  11
BRANCH   4  13
ATOM     13  O   LIG A   1      -9.769  -0.850 125.774  0.00  0.00    -0.491 OA
ATOM     14  C   LIG A   1      -9.695   0.567 125.889  0.00  0.00    +0.277 C 
ENDBRANCH   4  13
TORSDOF 4
ENDMDL
MODEL 4
REMARK VINA RESULT:      -4.9      7.563      8.647
REMARK  Name = NuBBE_2226
REMARK  7 active torsions:
REMARK  status: ('A' for Active; 'I' for Inactive)
REMARK    1  A    between atoms: C_1  and  C_3
REMARK    2  A    between atoms: C_4  and  O_5
REMARK    3  A    between atoms: O_5  and  C_6
REMARK    4  A    between atoms: C_8  and  O_13
REMARK    5  A    between atoms: C_9  and  O_11
REMARK    6  A    between atoms: O_11  and  C_12
REMARK    7  A    between atoms: O_13  and  C_14
REMARK                            x       y       z     vdW  Elec       q    Type
REMARK                         _______ _______ _______ _____ _____    ______ ____
ROOT
ATOM      1  C   LIG A   1      -6.059  -2.764 124.889  0.00  0.00    +0.020 A 
ATOM      2  C   LIG A   1      -7.420  -3.076 125.069  0.00  0.00    +0.131 A 
ATOM      3  C   LIG A   1      -8.030  -2.812 126.302  0.00  0.00    +0.095 A 
ATOM      4  C   LIG A   1      -7.316  -2.220 127.358  0.00  0.00    +0.165 A 
ATOM      5  C   LIG A   1      -5.962  -1.909 127.184  0.00  0.00    +0.162 A 
ATOM      6  C   LIG A   1      -5.347  -2.200 125.960  0.00  0.00    +0.060 A 
ENDROOT
BRANCH   1   7
ATOM      7  C   LIG A   1      -5.363  -3.082 123.627  0.00  0.00    +0.004 C 
ATOM      8  C   LIG A   1      -4.434  -4.045 123.488  0.00  0.00    +0.009 C 
ENDBRANCH   1   7
BRANCH   2   9
ATOM      9  O   LIG A   1      -8.058  -3.682 124.014  0.00  0.00    -0.494 OA
ATOM     10  C   LIG A   1      -9.343  -3.181 123.665  0.00  0.00    +0.277 C 
ENDBRANCH   2   9
BRANCH   5  11
ATOM     11  O   LIG A   1      -5.235  -1.441 128.246  0.00  0.00    -0.491 OA
ATOM     12  C   LIG A   1      -4.520  -2.428 128.983  0.00  0.00    +0.277 C 
ENDBRANCH   5  11
BRANCH   4  13
ATOM     13  O   LIG A   1      -8.051  -2.077 128.508  0.00  0.00    -0.491 OA
ATOM     14  C   LIG A   1      -8.240  -3.242 129.303  0.00  0.00    +0.277 C 
ENDBRANCH   4  13
TORSDOF 4
ENDMDL
MODEL 5
REMARK VINA RESULT:      -4.9      9.161     11.148
REMARK  Name = NuBBE_2226
REMARK  7 active torsions:
REMARK  status: ('A' for Active; 'I' for Inactive)
REMARK    1  A    between atoms: C_1  and  C_3
REMARK    2  A    between atoms: C_4  and  O_5
REMARK    3  A    between atoms: O_5  and  C_6
REMARK    4  A    between atoms: C_8  and  O_13
REMARK    5  A    between atoms: C_9  and  O_11
REMARK    6  A    between atoms: O_11  and  C_12
REMARK    7  A    between atoms: O_13  and  C_14
REMARK                            x       y       z     vdW  Elec       q    Type
REMARK                         _______ _______ _______ _____ _____    ______ ____
ROOT
ATOM      1  C   LIG A   1      -8.789   6.026 132.756  0.00  0.00    +0.020 A 
ATOM      2  C   LIG A   1      -7.868   6.417 131.766  0.00  0.00    +0.131 A 
ATOM      3  C   LIG A   1      -8.333   6.761 130.489  0.00  0.00    +0.095 A 
ATOM      4  C   LIG A   1      -9.705   6.743 130.184  0.00  0.00    +0.165 A 
ATOM      5  C   LIG A   1     -10.624   6.353 131.165  0.00  0.00    +0.162 A 
ATOM      6  C   LIG A   1     -10.154   5.983 132.431  0.00  0.00    +0.060 A 
ENDROOT
BRANCH   1   7
ATOM      7  C   LIG A   1      -8.335   5.599 134.094  0.00  0.00    +0.004 C 
ATOM      8  C   LIG A   1      -8.297   4.322 134.517  0.00  0.00    +0.009 C 
ENDBRANCH   1   7
BRANCH   2   9
ATOM      9  O   LIG A   1      -6.539   6.385 132.112  0.00  0.00    -0.494 OA
ATOM     10  C   LIG A   1      -5.610   6.858 131.144  0.00  0.00    +0.277 C 
ENDBRANCH   2   9
BRANCH   5  11
ATOM     11  O   LIG A   1     -11.947   6.222 130.837  0.00  0.00    -0.491 OA
ATOM     12  C   LIG A   1     -12.790   7.295 131.246  0.00  0.00    +0.277 C 
ENDBRANCH   5  11
BRANCH   4  13
ATOM     13  O   LIG A   1      -9.982   7.058 128.877  0.00  0.00    -0.491 OA
ATOM     14  C   LIG A   1     -10.387   8.396 128.607  0.00  0.00    +0.277 C 
ENDBRANCH   4  13
TORSDOF 4
ENDMDL
MODEL 6
REMARK VINA RESULT:      -4.8      2.600      4.625
REMARK  Name = NuBBE_2226
REMARK  7 active torsions:
REMARK  status: ('A' for Active; 'I' for Inactive)
REMARK    1  A    between atoms: C_1  and  C_3
REMARK    2  A    between atoms: C_4  and  O_5
REMARK    3  A    between atoms: O_5  and  C_6
REMARK    4  A    between atoms: C_8  and  O_13
REMARK    5  A    between atoms: C_9  and  O_11
REMARK    6  A    between atoms: O_11  and  C_12
REMARK    7  A    between atoms: O_13  and  C_14
REMARK                            x       y       z     vdW  Elec       q    Type
REMARK                         _______ _______ _______ _____ _____    ______ ____
ROOT
ATOM      1  C   LIG A   1      -6.639   3.588 123.199  0.00  0.00    +0.020 A 
ATOM      2  C   LIG A   1      -7.924   3.202 123.627  0.00  0.00    +0.131 A 
ATOM      3  C   LIG A   1      -8.394   3.637 124.873  0.00  0.00    +0.095 A 
ATOM      4  C   LIG A   1      -7.616   4.470 125.696  0.00  0.00    +0.165 A 
ATOM      5  C   LIG A   1      -6.338   4.855 125.274  0.00  0.00    +0.162 A 
ATOM      6  C   LIG A   1      -5.859   4.395 124.042  0.00  0.00    +0.060 A 
ENDROOT
BRANCH   1   7
ATOM      7  C   LIG A   1      -6.083   3.101 121.921  0.00  0.00    +0.004 C 
ATOM      8  C   LIG A   1      -5.373   3.854 121.061  0.00  0.00    +0.009 C 
ENDBRANCH   1   7
BRANCH   2   9
ATOM      9  O   LIG A   1      -8.625   2.362 122.796  0.00  0.00    -0.494 OA
ATOM     10  C   LIG A   1      -9.677   1.607 123.383  0.00  0.00    +0.277 C 
ENDBRANCH   2   9
BRANCH   5  11
ATOM     11  O   LIG A   1      -5.534   5.568 126.123  0.00  0.00    -0.491 OA
ATOM     12  C   LIG A   1      -4.543   4.811 126.812  0.00  0.00    +0.277 C 
ENDBRANCH   5  11
BRANCH   4  13
ATOM     13  O   LIG A   1      -8.207   4.761 126.900  0.00  0.00    -0.491 OA
ATOM     14  C   LIG A   1      -7.906   3.899 127.993  0.00  0.00    +0.277 C 
ENDBRANCH   4  13
TORSDOF 4
ENDMDL
MODEL 7
REMARK VINA RESULT:      -4.6      5.998      7.410
REMARK  Name = NuBBE_2226
REMARK  7 active torsions:
REMARK  status: ('A' for Active; 'I' for Inactive)
REMARK    1  A    between atoms: C_1  and  C_3
REMARK    2  A    between atoms: C_4  and  O_5
REMARK    3  A    between atoms: O_5  and  C_6
REMARK    4  A    between atoms: C_8  and  O_13
REMARK    5  A    between atoms: C_9  and  O_11
REMARK    6  A    between atoms: O_11  and  C_12
REMARK    7  A    between atoms: O_13  and  C_14
REMARK                            x       y       z     vdW  Elec       q    Type
REMARK                         _______ _______ _______ _____ _____    ______ ____
ROOT
ATOM      1  C   LIG A   1      -5.931  -2.210 124.267  0.00  0.00    +0.020 A 
ATOM      2  C   LIG A   1      -7.337  -2.265 124.322  0.00  0.00    +0.131 A 
ATOM      3  C   LIG A   1      -8.025  -1.426 125.210  0.00  0.00    +0.095 A 
ATOM      4  C   LIG A   1      -7.339  -0.515 126.031  0.00  0.00    +0.165 A 
ATOM      5  C   LIG A   1      -5.941  -0.458 125.980  0.00  0.00    +0.162 A 
ATOM      6  C   LIG A   1      -5.255  -1.317 125.113  0.00  0.00    +0.060 A 
ENDROOT
BRANCH   1   7
ATOM      7  C   LIG A   1      -5.166  -3.118 123.390  0.00  0.00    +0.004 C 
ATOM      8  C   LIG A   1      -4.478  -4.193 123.817  0.00  0.00    +0.009 C 
ENDBRANCH   1   7
BRANCH   2   9
ATOM      9  O   LIG A   1      -7.950  -3.196 123.520  0.00  0.00    -0.494 OA
ATOM     10  C   LIG A   1      -9.371  -3.178 123.483  0.00  0.00    +0.277 C 
ENDBRANCH   2   9
BRANCH   5  11
ATOM     11  O   LIG A   1      -5.266   0.344 126.861  0.00  0.00    -0.491 OA
ATOM     12  C   LIG A   1      -4.904   1.630 126.367  0.00  0.00    +0.277 C 
ENDBRANCH   5  11
BRANCH   4  13
ATOM     13  O   LIG A   1      -8.160   0.192 126.873  0.00  0.00    -0.491 OA
ATOM     14  C   LIG A   1      -9.206   0.948 126.272  0.00  0.00    +0.277 C 
ENDBRANCH   4  13
TORSDOF 4
ENDMDL
MODEL 8
REMARK VINA RESULT:      -4.5      4.554      7.359
REMARK  Name = NuBBE_2226
REMARK  7 active torsions:
REMARK  status: ('A' for Active; 'I' for Inactive)
REMARK    1  A    between atoms: C_1  and  C_3
REMARK    2  A    between atoms: C_4  and  O_5
REMARK    3  A    between atoms: O_5  and  C_6
REMARK    4  A    between atoms: C_8  and  O_13
REMARK    5  A    between atoms: C_9  and  O_11
REMARK    6  A    between atoms: O_11  and  C_12
REMARK    7  A    between atoms: O_13  and  C_14
REMARK                            x       y       z     vdW  Elec       q    Type
REMARK                         _______ _______ _______ _____ _____    ______ ____
ROOT
ATOM      1  C   LIG A   1      -6.649  -2.307 124.247  0.00  0.00    +0.020 A 
ATOM      2  C   LIG A   1      -7.955  -2.590 124.690  0.00  0.00    +0.131 A 
ATOM      3  C   LIG A   1      -8.973  -1.652 124.476  0.00  0.00    +0.095 A 
ATOM      4  C   LIG A   1      -8.721  -0.441 123.809  0.00  0.00    +0.165 A 
ATOM      5  C   LIG A   1      -7.424  -0.155 123.368  0.00  0.00    +0.162 A 
ATOM      6  C   LIG A   1      -6.402  -1.081 123.608  0.00  0.00    +0.060 A 
ENDROOT
BRANCH   1   7
ATOM      7  C   LIG A   1      -5.536  -3.242 124.505  0.00  0.00    +0.004 C 
ATOM      8  C   LIG A   1      -4.635  -3.630 123.585  0.00  0.00    +0.009 C 
ENDBRANCH   1   7
BRANCH   2   9
ATOM      9  O   LIG A   1      -8.135  -3.774 125.363  0.00  0.00    -0.494 OA
ATOM     10  C   LIG A   1      -8.719  -3.696 126.657  0.00  0.00    +0.277 C 
ENDBRANCH   2   9
BRANCH   5  11
ATOM     11  O   LIG A   1      -7.151   1.072 122.823  0.00  0.00    -0.491 OA
ATOM     12  C   LIG A   1      -6.734   2.074 123.745  0.00  0.00    +0.277 C 
ENDBRANCH   5  11
BRANCH   4  13
ATOM     13  O   LIG A   1      -9.817   0.382 123.729  0.00  0.00    -0.491 OA
ATOM     14  C   LIG A   1     -10.050   1.256 124.829  0.00  0.00    +0.277 C 
ENDBRANCH   4  13
TORSDOF 4
ENDMDL
MODEL 9
REMARK VINA RESULT:      -4.5      5.446      8.537
REMARK  Name = NuBBE_2226
REMARK  7 active torsions:
REMARK  status: ('A' for Active; 'I' for Inactive)
REMARK    1  A    between atoms: C_1  and  C_3
REMARK    2  A    between atoms: C_4  and  O_5
REMARK    3  A    between atoms: O_5  and  C_6
REMARK    4  A    between atoms: C_8  and  O_13
REMARK    5  A    between atoms: C_9  and  O_11
REMARK    6  A    between atoms: O_11  and  C_12
REMARK    7  A    between atoms: O_13  and  C_14
REMARK                            x       y       z     vdW  Elec       q    Type
REMARK                         _______ _______ _______ _____ _____    ______ ____
ROOT
ATOM      1  C   LIG A   1      -7.849  -2.191 127.741  0.00  0.00    +0.020 A 
ATOM      2  C   LIG A   1      -7.722  -0.795 127.608  0.00  0.00    +0.131 A 
ATOM      3  C   LIG A   1      -8.326  -0.149 126.521  0.00  0.00    +0.095 A 
ATOM      4  C   LIG A   1      -9.075  -0.865 125.571  0.00  0.00    +0.165 A 
ATOM      5  C   LIG A   1      -9.202  -2.254 125.699  0.00  0.00    +0.162 A 
ATOM      6  C   LIG A   1      -8.574  -2.900 126.770  0.00  0.00    +0.060 A 
ENDROOT
BRANCH   1   7
ATOM      7  C   LIG A   1      -7.177  -2.916 128.837  0.00  0.00    +0.004 C 
ATOM      8  C   LIG A   1      -7.730  -3.168 130.038  0.00  0.00    +0.009 C 
ENDBRANCH   1   7
BRANCH   2   9
ATOM      9  O   LIG A   1      -6.953  -0.152 128.548  0.00  0.00    -0.494 OA
ATOM     10  C   LIG A   1      -7.587   0.867 129.311  0.00  0.00    +0.277 C 
ENDBRANCH   2   9
BRANCH   5  11
ATOM     11  O   LIG A   1      -9.831  -2.967 124.714  0.00  0.00    -0.491 OA
ATOM     12  C   LIG A   1      -9.039  -3.258 123.566  0.00  0.00    +0.277 C 
ENDBRANCH   5  11
BRANCH   4  13
ATOM     13  O   LIG A   1      -9.555  -0.087 124.547  0.00  0.00    -0.491 OA
ATOM     14  C   LIG A   1      -9.740   1.298 124.820  0.00  0.00    +0.277 C 
ENDBRANCH   4  13
TORSDOF 4
ENDMDL
