MODEL 1
REMARK VINA RESULT:      -6.9      0.000      0.000
REMARK  Name = NuBBE_600
REMARK  2 active torsions:
REMARK  status: ('A' for Active; 'I' for Inactive)
REMARK    1  A    between atoms: C_1  and  O_2
REMARK    2  A    between atoms: O_2  and  C_3
REMARK                            x       y       z     vdW  Elec       q    Type
REMARK                         _______ _______ _______ _____ _____    ______ ____
ROOT
ATOM      1  C   LIG A   1      -8.055   5.779 132.936  0.00  0.00    +0.142 A 
ATOM      2  C   LIG A   1      -6.705   6.024 132.647  0.00  0.00    +0.082 A 
ATOM      3  C   LIG A   1      -6.429   6.682 131.457  0.00  0.00    +0.231 A 
ATOM      4  O   LIG A   1      -5.081   6.835 131.315  0.00  0.00    -0.445 OA
ATOM      5  C   LIG A   1      -4.498   6.291 132.414  0.00  0.00    +0.198 A 
ATOM      6  C   LIG A   1      -5.450   5.783 133.267  0.00  0.00    +0.055 A 
ATOM      7  N   LIG A   1      -7.311   7.125 130.549  0.00  0.00    -0.212 NA
ATOM      8  C   LIG A   1      -8.594   6.921 130.862  0.00  0.00    +0.082 A 
ATOM      9  C   LIG A   1      -9.542   7.391 129.962  0.00  0.00    +0.078 A 
ATOM     10  C   LIG A   1     -10.883   7.219 130.233  0.00  0.00    +0.168 A 
ATOM     11  C   LIG A   1     -11.311   6.593 131.373  0.00  0.00    +0.167 A 
ATOM     12  O   LIG A   1     -12.665   6.526 131.453  0.00  0.00    -0.453 OA
ATOM     13  C   LIG A   1     -13.043   7.191 130.229  0.00  0.00    +0.466 C 
ATOM     14  O   LIG A   1     -11.913   7.628 129.447  0.00  0.00    -0.453 OA
ATOM     15  C   LIG A   1     -10.419   6.105 132.298  0.00  0.00    +0.063 A 
ATOM     16  C   LIG A   1      -9.037   6.261 132.048  0.00  0.00    +0.046 A 
ENDROOT
BRANCH   1  18
ATOM     17  C   LIG A   1      -8.356   3.740 133.957  0.00  0.00    +0.277 C 
ATOM     18  O   LIG A   1      -8.429   5.158 134.110  0.00  0.00    -0.494 OA
ENDBRANCH   1  18
TORSDOF 1
ENDMDL
MODEL 2
REMARK VINA RESULT:      -6.7      1.724      5.609
REMARK  Name = NuBBE_600
REMARK  2 active torsions:
REMARK  status: ('A' for Active; 'I' for Inactive)
REMARK    1  A    between atoms: C_1  and  O_2
REMARK    2  A    between atoms: O_2  and  C_3
REMARK                            x       y       z     vdW  Elec       q    Type
REMARK                         _______ _______ _______ _____ _____    ______ ____
ROOT
ATOM      1  C   LIG A   1     -11.828   6.702 130.547  0.00  0.00    +0.142 A 
ATOM      2  C   LIG A   1     -12.080   6.812 129.173  0.00  0.00    +0.082 A 
ATOM      3  C   LIG A   1     -10.994   6.662 128.322  0.00  0.00    +0.231 A 
ATOM      4  O   LIG A   1     -11.397   6.806 127.027  0.00  0.00    -0.445 OA
ATOM      5  C   LIG A   1     -12.736   7.031 127.047  0.00  0.00    +0.198 A 
ATOM      6  C   LIG A   1     -13.207   7.040 128.339  0.00  0.00    +0.055 A 
ATOM      7  N   LIG A   1      -9.721   6.412 128.665  0.00  0.00    -0.212 NA
ATOM      8  C   LIG A   1      -9.507   6.268 129.976  0.00  0.00    +0.082 A 
ATOM      9  C   LIG A   1      -8.208   5.978 130.371  0.00  0.00    +0.078 A 
ATOM     10  C   LIG A   1      -7.926   5.809 131.711  0.00  0.00    +0.168 A 
ATOM     11  C   LIG A   1      -8.896   5.920 132.670  0.00  0.00    +0.167 A 
ATOM     12  O   LIG A   1      -8.416   5.717 133.923  0.00  0.00    -0.453 OA
ATOM     13  C   LIG A   1      -7.023   5.458 133.642  0.00  0.00    +0.466 C 
ATOM     14  O   LIG A   1      -6.706   5.522 132.237  0.00  0.00    -0.453 OA
ATOM     15  C   LIG A   1     -10.198   6.208 132.337  0.00  0.00    +0.063 A 
ATOM     16  C   LIG A   1     -10.521   6.392 130.974  0.00  0.00    +0.046 A 
ENDROOT
BRANCH   1  18
ATOM     17  C   LIG A   1     -13.112   8.181 131.754  0.00  0.00    +0.277 C 
ATOM     18  O   LIG A   1     -12.849   6.807 131.469  0.00  0.00    -0.494 OA
ENDBRANCH   1  18
TORSDOF 1
ENDMDL
MODEL 3
REMARK VINA RESULT:      -6.6      9.358     10.705
REMARK  Name = NuBBE_600
REMARK  2 active torsions:
REMARK  status: ('A' for Active; 'I' for Inactive)
REMARK    1  A    between atoms: C_1  and  O_2
REMARK    2  A    between atoms: O_2  and  C_3
REMARK                            x       y       z     vdW  Elec       q    Type
REMARK                         _______ _______ _______ _____ _____    ______ ____
ROOT
ATOM      1  C   LIG A   1      -6.910   2.680 123.918  0.00  0.00    +0.142 A 
ATOM      2  C   LIG A   1      -8.028   1.994 124.413  0.00  0.00    +0.082 A 
ATOM      3  C   LIG A   1      -9.150   1.952 123.596  0.00  0.00    +0.231 A 
ATOM      4  O   LIG A   1     -10.150   1.264 124.219  0.00  0.00    -0.445 OA
ATOM      5  C   LIG A   1      -9.667   0.855 125.421  0.00  0.00    +0.198 A 
ATOM      6  C   LIG A   1      -8.367   1.273 125.588  0.00  0.00    +0.055 A 
ATOM      7  N   LIG A   1      -9.286   2.487 122.374  0.00  0.00    -0.212 NA
ATOM      8  C   LIG A   1      -8.197   3.099 121.900  0.00  0.00    +0.082 A 
ATOM      9  C   LIG A   1      -8.286   3.640 120.625  0.00  0.00    +0.078 A 
ATOM     10  C   LIG A   1      -7.192   4.278 120.078  0.00  0.00    +0.168 A 
ATOM     11  C   LIG A   1      -6.012   4.393 120.760  0.00  0.00    +0.167 A 
ATOM     12  O   LIG A   1      -5.060   5.051 120.049  0.00  0.00    -0.453 OA
ATOM     13  C   LIG A   1      -5.779   5.333 118.829  0.00  0.00    +0.466 C 
ATOM     14  O   LIG A   1      -7.138   4.849 118.845  0.00  0.00    -0.453 OA
ATOM     15  C   LIG A   1      -5.866   3.879 122.027  0.00  0.00    +0.063 A 
ATOM     16  C   LIG A   1      -6.969   3.225 122.619  0.00  0.00    +0.046 A 
ENDROOT
BRANCH   1  18
ATOM     17  C   LIG A   1      -5.816   3.816 125.592  0.00  0.00    +0.277 C 
ATOM     18  O   LIG A   1      -5.740   2.750 124.644  0.00  0.00    -0.494 OA
ENDBRANCH   1  18
TORSDOF 1
ENDMDL
MODEL 4
REMARK VINA RESULT:      -6.5      1.701      2.901
REMARK  Name = NuBBE_600
REMARK  2 active torsions:
REMARK  status: ('A' for Active; 'I' for Inactive)
REMARK    1  A    between atoms: C_1  and  O_2
REMARK    2  A    between atoms: O_2  and  C_3
REMARK                            x       y       z     vdW  Elec       q    Type
REMARK                         _______ _______ _______ _____ _____    ______ ____
ROOT
ATOM      1  C   LIG A   1      -8.062   6.018 130.845  0.00  0.00    +0.142 A 
ATOM      2  C   LIG A   1      -7.679   5.845 132.183  0.00  0.00    +0.082 A 
ATOM      3  C   LIG A   1      -8.674   5.979 133.142  0.00  0.00    +0.231 A 
ATOM      4  O   LIG A   1      -8.145   5.794 134.386  0.00  0.00    -0.445 OA
ATOM      5  C   LIG A   1      -6.823   5.530 134.224  0.00  0.00    +0.198 A 
ATOM      6  C   LIG A   1      -6.485   5.544 132.891  0.00  0.00    +0.055 A 
ATOM      7  N   LIG A   1      -9.972   6.245 132.934  0.00  0.00    -0.212 NA
ATOM      8  C   LIG A   1     -10.327   6.364 131.652  0.00  0.00    +0.082 A 
ATOM      9  C   LIG A   1     -11.668   6.610 131.392  0.00  0.00    +0.078 A 
ATOM     10  C   LIG A   1     -12.098   6.735 130.087  0.00  0.00    +0.168 A 
ATOM     11  C   LIG A   1     -11.233   6.621 129.032  0.00  0.00    +0.167 A 
ATOM     12  O   LIG A   1     -11.852   6.773 127.833  0.00  0.00    -0.453 OA
ATOM     13  C   LIG A   1     -13.215   6.990 128.256  0.00  0.00    +0.466 C 
ATOM     14  O   LIG A   1     -13.375   6.973 129.689  0.00  0.00    -0.453 OA
ATOM     15  C   LIG A   1      -9.895   6.380 129.229  0.00  0.00    +0.063 A 
ATOM     16  C   LIG A   1      -9.421   6.253 130.553  0.00  0.00    +0.046 A 
ENDROOT
BRANCH   1  18
ATOM     17  C   LIG A   1      -6.932   4.490 129.550  0.00  0.00    +0.277 C 
ATOM     18  O   LIG A   1      -7.149   5.875 129.820  0.00  0.00    -0.494 OA
ENDBRANCH   1  18
TORSDOF 1
ENDMDL
MODEL 5
REMARK VINA RESULT:      -6.2      9.882     11.432
REMARK  Name = NuBBE_600
REMARK  2 active torsions:
REMARK  status: ('A' for Active; 'I' for Inactive)
REMARK    1  A    between atoms: C_1  and  O_2
REMARK    2  A    between atoms: O_2  and  C_3
REMARK                            x       y       z     vdW  Elec       q    Type
REMARK                         _______ _______ _______ _____ _____    ______ ____
ROOT
ATOM      1  C   LIG A   1      -6.706  -2.300 125.867  0.00  0.00    +0.142 A 
ATOM      2  C   LIG A   1      -7.739  -2.563 124.957  0.00  0.00    +0.082 A 
ATOM      3  C   LIG A   1      -8.915  -3.085 125.478  0.00  0.00    +0.231 A 
ATOM      4  O   LIG A   1      -9.813  -3.295 124.473  0.00  0.00    -0.445 OA
ATOM      5  C   LIG A   1      -9.222  -2.896 123.317  0.00  0.00    +0.198 A 
ATOM      6  C   LIG A   1      -7.949  -2.434 123.558  0.00  0.00    +0.055 A 
ATOM      7  N   LIG A   1      -9.184  -3.359 126.763  0.00  0.00    -0.212 NA
ATOM      8  C   LIG A   1      -8.204  -3.062 127.620  0.00  0.00    +0.082 A 
ATOM      9  C   LIG A   1      -8.452  -3.302 128.965  0.00  0.00    +0.078 A 
ATOM     10  C   LIG A   1      -7.482  -3.009 129.901  0.00  0.00    +0.168 A 
ATOM     11  C   LIG A   1      -6.271  -2.482 129.539  0.00  0.00    +0.167 A 
ATOM     12  O   LIG A   1      -5.459  -2.263 130.605  0.00  0.00    -0.453 OA
ATOM     13  C   LIG A   1      -6.305  -2.709 131.688  0.00  0.00    +0.466 C 
ATOM     14  O   LIG A   1      -7.590  -3.190 131.243  0.00  0.00    -0.453 OA
ATOM     15  C   LIG A   1      -5.969  -2.225 128.224  0.00  0.00    +0.063 A 
ATOM     16  C   LIG A   1      -6.938  -2.520 127.239  0.00  0.00    +0.046 A 
ENDROOT
BRANCH   1  18
ATOM     17  C   LIG A   1      -5.605  -0.328 125.431  0.00  0.00    +0.277 C 
ATOM     18  O   LIG A   1      -5.511  -1.753 125.447  0.00  0.00    -0.494 OA
ENDBRANCH   1  18
TORSDOF 1
ENDMDL
MODEL 6
REMARK VINA RESULT:      -6.1      2.455      2.851
REMARK  Name = NuBBE_600
REMARK  2 active torsions:
REMARK  status: ('A' for Active; 'I' for Inactive)
REMARK    1  A    between atoms: C_1  and  O_2
REMARK    2  A    between atoms: O_2  and  C_3
REMARK                            x       y       z     vdW  Elec       q    Type
REMARK                         _______ _______ _______ _____ _____    ______ ____
ROOT
ATOM      1  C   LIG A   1      -9.515   5.163 131.173  0.00  0.00    +0.142 A 
ATOM      2  C   LIG A   1      -8.503   4.384 130.596  0.00  0.00    +0.082 A 
ATOM      3  C   LIG A   1      -8.282   4.551 129.236  0.00  0.00    +0.231 A 
ATOM      4  O   LIG A   1      -7.282   3.720 128.824  0.00  0.00    -0.445 OA
ATOM      5  C   LIG A   1      -6.854   3.035 129.917  0.00  0.00    +0.198 A 
ATOM      6  C   LIG A   1      -7.567   3.408 131.032  0.00  0.00    +0.055 A 
ATOM      7  N   LIG A   1      -8.922   5.387 128.405  0.00  0.00    -0.212 NA
ATOM      8  C   LIG A   1      -9.852   6.153 128.981  0.00  0.00    +0.082 A 
ATOM      9  C   LIG A   1     -10.519   7.055 128.162  0.00  0.00    +0.078 A 
ATOM     10  C   LIG A   1     -11.484   7.879 128.699  0.00  0.00    +0.168 A 
ATOM     11  C   LIG A   1     -11.809   7.835 130.028  0.00  0.00    +0.167 A 
ATOM     12  O   LIG A   1     -12.780   8.725 130.358  0.00  0.00    -0.453 OA
ATOM     13  C   LIG A   1     -13.027   9.345 129.077  0.00  0.00    +0.466 C 
ATOM     14  O   LIG A   1     -12.210   8.805 128.018  0.00  0.00    -0.453 OA
ATOM     15  C   LIG A   1     -11.185   6.961 130.887  0.00  0.00    +0.063 A 
ATOM     16  C   LIG A   1     -10.194   6.099 130.367  0.00  0.00    +0.046 A 
ENDROOT
BRANCH   1  18
ATOM     17  C   LIG A   1      -8.807   5.819 133.261  0.00  0.00    +0.277 C 
ATOM     18  O   LIG A   1      -9.787   5.089 132.524  0.00  0.00    -0.494 OA
ENDBRANCH   1  18
TORSDOF 1
ENDMDL
MODEL 7
REMARK VINA RESULT:      -5.9      9.182      9.906
REMARK  Name = NuBBE_600
REMARK  2 active torsions:
REMARK  status: ('A' for Active; 'I' for Inactive)
REMARK    1  A    between atoms: C_1  and  O_2
REMARK    2  A    between atoms: O_2  and  C_3
REMARK                            x       y       z     vdW  Elec       q    Type
REMARK                         _______ _______ _______ _____ _____    ______ ____
ROOT
ATOM      1  C   LIG A   1      -8.977  -2.020 125.802  0.00  0.00    +0.142 A 
ATOM      2  C   LIG A   1      -8.545  -2.488 127.050  0.00  0.00    +0.082 A 
ATOM      3  C   LIG A   1      -7.742  -1.636 127.796  0.00  0.00    +0.231 A 
ATOM      4  O   LIG A   1      -7.397  -2.236 128.971  0.00  0.00    -0.445 OA
ATOM      5  C   LIG A   1      -7.986  -3.459 128.985  0.00  0.00    +0.198 A 
ATOM      6  C   LIG A   1      -8.707  -3.663 127.831  0.00  0.00    +0.055 A 
ATOM      7  N   LIG A   1      -7.339  -0.400 127.463  0.00  0.00    -0.212 NA
ATOM      8  C   LIG A   1      -7.796   0.046 126.290  0.00  0.00    +0.082 A 
ATOM      9  C   LIG A   1      -7.426   1.332 125.921  0.00  0.00    +0.078 A 
ATOM     10  C   LIG A   1      -7.873   1.853 124.725  0.00  0.00    +0.168 A 
ATOM     11  C   LIG A   1      -8.678   1.134 123.884  0.00  0.00    +0.167 A 
ATOM     12  O   LIG A   1      -9.009   1.824 122.762  0.00  0.00    -0.453 OA
ATOM     13  C   LIG A   1      -8.322   3.071 122.997  0.00  0.00    +0.466 C 
ATOM     14  O   LIG A   1      -7.593   3.092 124.242  0.00  0.00    -0.453 OA
ATOM     15  C   LIG A   1      -9.074  -0.145 124.195  0.00  0.00    +0.063 A 
ATOM     16  C   LIG A   1      -8.629  -0.711 125.411  0.00  0.00    +0.046 A 
ENDROOT
BRANCH   1  18
ATOM     17  C   LIG A   1      -9.019  -3.583 124.115  0.00  0.00    +0.277 C 
ATOM     18  O   LIG A   1      -9.802  -2.784 125.002  0.00  0.00    -0.494 OA
ENDBRANCH   1  18
TORSDOF 1
ENDMDL
MODEL 8
REMARK VINA RESULT:      -5.8      9.437     10.483
REMARK  Name = NuBBE_600
REMARK  2 active torsions:
REMARK  status: ('A' for Active; 'I' for Inactive)
REMARK    1  A    between atoms: C_1  and  O_2
REMARK    2  A    between atoms: O_2  and  C_3
REMARK                            x       y       z     vdW  Elec       q    Type
REMARK                         _______ _______ _______ _____ _____    ______ ____
ROOT
ATOM      1  C   LIG A   1      -6.860  -1.564 125.579  0.00  0.00    +0.142 A 
ATOM      2  C   LIG A   1      -7.878  -2.123 124.794  0.00  0.00    +0.082 A 
ATOM      3  C   LIG A   1      -8.540  -1.267 123.924  0.00  0.00    +0.231 A 
ATOM      4  O   LIG A   1      -9.503  -1.953 123.244  0.00  0.00    -0.445 OA
ATOM      5  C   LIG A   1      -9.449  -3.243 123.664  0.00  0.00    +0.198 A 
ATOM      6  C   LIG A   1      -8.465  -3.403 124.613  0.00  0.00    +0.055 A 
ATOM      7  N   LIG A   1      -8.308   0.041 123.738  0.00  0.00    -0.212 NA
ATOM      8  C   LIG A   1      -7.306   0.546 124.463  0.00  0.00    +0.082 A 
ATOM      9  C   LIG A   1      -7.014   1.891 124.278  0.00  0.00    +0.078 A 
ATOM     10  C   LIG A   1      -5.985   2.469 124.991  0.00  0.00    +0.168 A 
ATOM     11  C   LIG A   1      -5.236   1.750 125.884  0.00  0.00    +0.167 A 
ATOM     12  O   LIG A   1      -4.274   2.499 126.480  0.00  0.00    -0.453 OA
ATOM     13  C   LIG A   1      -4.498   3.780 125.852  0.00  0.00    +0.466 C 
ATOM     14  O   LIG A   1      -5.590   3.767 124.909  0.00  0.00    -0.453 OA
ATOM     15  C   LIG A   1      -5.481   0.416 126.110  0.00  0.00    +0.063 A 
ATOM     16  C   LIG A   1      -6.532  -0.205 125.399  0.00  0.00    +0.046 A 
ENDROOT
BRANCH   1  18
ATOM     17  C   LIG A   1      -6.817  -2.466 127.695  0.00  0.00    +0.277 C 
ATOM     18  O   LIG A   1      -6.126  -2.342 126.451  0.00  0.00    -0.494 OA
ENDBRANCH   1  18
TORSDOF 1
ENDMDL
MODEL 9
REMARK VINA RESULT:      -5.8      2.081      6.190
REMARK  Name = NuBBE_600
REMARK  2 active torsions:
REMARK  status: ('A' for Active; 'I' for Inactive)
REMARK    1  A    between atoms: C_1  and  O_2
REMARK    2  A    between atoms: O_2  and  C_3
REMARK                            x       y       z     vdW  Elec       q    Type
REMARK                         _______ _______ _______ _____ _____    ______ ____
ROOT
ATOM      1  C   LIG A   1      -6.791   5.723 132.872  0.00  0.00    +0.142 A 
ATOM      2  C   LIG A   1      -7.822   6.192 132.045  0.00  0.00    +0.082 A 
ATOM      3  C   LIG A   1      -7.449   6.980 130.965  0.00  0.00    +0.231 A 
ATOM      4  O   LIG A   1      -8.557   7.364 130.268  0.00  0.00    -0.445 OA
ATOM      5  C   LIG A   1      -9.632   6.814 130.889  0.00  0.00    +0.198 A 
ATOM      6  C   LIG A   1      -9.236   6.080 131.984  0.00  0.00    +0.055 A 
ATOM      7  N   LIG A   1      -6.205   7.338 130.610  0.00  0.00    -0.212 NA
ATOM      8  C   LIG A   1      -5.234   6.847 131.384  0.00  0.00    +0.082 A 
ATOM      9  C   LIG A   1      -3.930   7.170 131.035  0.00  0.00    +0.078 A 
ATOM     10  C   LIG A   1      -2.882   6.686 131.790  0.00  0.00    +0.168 A 
ATOM     11  C   LIG A   1      -3.092   5.890 132.884  0.00  0.00    +0.167 A 
ATOM     12  O   LIG A   1      -1.934   5.518 133.488  0.00  0.00    -0.453 OA
ATOM     13  C   LIG A   1      -0.964   6.170 132.641  0.00  0.00    +0.466 C 
ATOM     14  O   LIG A   1      -1.562   6.919 131.563  0.00  0.00    -0.453 OA
ATOM     15  C   LIG A   1      -4.361   5.540 133.279  0.00  0.00    +0.063 A 
ATOM     16  C   LIG A   1      -5.457   6.023 132.530  0.00  0.00    +0.046 A 
ENDROOT
BRANCH   1  18
ATOM     17  C   LIG A   1      -7.498   5.697 135.061  0.00  0.00    +0.277 C 
ATOM     18  O   LIG A   1      -7.061   4.909 133.953  0.00  0.00    -0.494 OA
ENDBRANCH   1  18
TORSDOF 1
ENDMDL
