MODEL 1
REMARK VINA RESULT:      -7.7      0.000      0.000
REMARK  Name = NuBBE_2370
REMARK  8 active torsions:
REMARK  status: ('A' for Active; 'I' for Inactive)
REMARK    1  A    between atoms: C_5  and  C_7
REMARK    2  A    between atoms: C_7  and  C_8
REMARK    3  A    between atoms: C_14  and  C_16
REMARK    4  A    between atoms: C_16  and  C_17
REMARK    5  A    between atoms: C_19  and  O_25
REMARK    6  A    between atoms: C_20  and  O_23
REMARK    7  A    between atoms: O_23  and  C_24
REMARK    8  A    between atoms: O_25  and  C_26
REMARK                            x       y       z     vdW  Elec       q    Type
REMARK                         _______ _______ _______ _____ _____    ______ ____
ROOT
ATOM      1  C   LIG A   1      -6.977   2.624 124.426  0.00  0.00    +0.109 C 
ATOM      2  C   LIG A   1      -8.202   3.499 124.370  0.00  0.00    +0.311 C 
ATOM      3  O   LIG A   1      -8.645   4.143 125.300  0.00  0.00    -0.251 OA
ATOM      4  O   LIG A   1      -8.741   3.490 123.117  0.00  0.00    -0.464 OA
ATOM      5  C   LIG A   1      -7.908   2.725 122.250  0.00  0.00    +0.236 C 
ATOM      6  C   LIG A   1      -7.141   1.782 123.158  0.00  0.00    +0.045 C 
ENDROOT
BRANCH   1   7
ATOM      7  C   LIG A   1      -5.728   3.523 124.462  0.00  0.00    +0.050 C 
BRANCH   7  12
ATOM      8  C   LIG A   1      -3.918   2.557 127.687  0.00  0.00    +0.050 A 
ATOM      9  C   LIG A   1      -3.905   3.765 128.380  0.00  0.00    +0.162 A 
ATOM     10  C   LIG A   1      -4.446   4.906 127.788  0.00  0.00    +0.162 A 
ATOM     11  C   LIG A   1      -4.968   4.850 126.498  0.00  0.00    +0.053 A 
ATOM     12  C   LIG A   1      -5.053   3.629 125.814  0.00  0.00    -0.043 A 
ATOM     13  C   LIG A   1      -4.486   2.489 126.409  0.00  0.00    +0.007 A 
ATOM     14  O   LIG A   1      -4.521   6.122 128.418  0.00  0.00    -0.485 OA
ATOM     15  C   LIG A   1      -4.348   5.975 129.830  0.00  0.00    +0.270 C 
ATOM     16  C   LIG A   1      -3.146   5.091 130.121  0.00  0.00    +0.270 C 
ATOM     17  O   LIG A   1      -3.367   3.759 129.641  0.00  0.00    -0.485 OA
ENDBRANCH   7  12
ENDBRANCH   1   7
BRANCH   6  18
ATOM     18  C   LIG A   1      -7.942   0.494 123.465  0.00  0.00    +0.042 C 
BRANCH  18  19
ATOM     19  C   LIG A   1      -7.057  -0.697 123.739  0.00  0.00    -0.043 A 
ATOM     20  C   LIG A   1      -6.708  -1.029 125.054  0.00  0.00    +0.053 A 
ATOM     21  C   LIG A   1      -5.840  -2.091 125.327  0.00  0.00    +0.162 A 
ATOM     22  C   LIG A   1      -5.374  -2.886 124.265  0.00  0.00    +0.162 A 
ATOM     23  C   LIG A   1      -5.702  -2.542 122.948  0.00  0.00    +0.050 A 
ATOM     24  C   LIG A   1      -6.542  -1.459 122.686  0.00  0.00    +0.007 A 
BRANCH  22  25
ATOM     25  O   LIG A   1      -4.572  -3.958 124.575  0.00  0.00    -0.491 OA
ATOM     26  C   LIG A   1      -4.204  -4.772 123.464  0.00  0.00    +0.277 C 
ENDBRANCH  22  25
BRANCH  21  27
ATOM     27  O   LIG A   1      -5.466  -2.439 126.602  0.00  0.00    -0.491 OA
ATOM     28  C   LIG A   1      -5.401  -1.370 127.544  0.00  0.00    +0.277 C 
ENDBRANCH  21  27
ENDBRANCH  18  19
ENDBRANCH   6  18
TORSDOF 6
ENDMDL
MODEL 2
REMARK VINA RESULT:      -7.7      4.610      9.222
REMARK  Name = NuBBE_2370
REMARK  8 active torsions:
REMARK  status: ('A' for Active; 'I' for Inactive)
REMARK    1  A    between atoms: C_5  and  C_7
REMARK    2  A    between atoms: C_7  and  C_8
REMARK    3  A    between atoms: C_14  and  C_16
REMARK    4  A    between atoms: C_16  and  C_17
REMARK    5  A    between atoms: C_19  and  O_25
REMARK    6  A    between atoms: C_20  and  O_23
REMARK    7  A    between atoms: O_23  and  C_24
REMARK    8  A    between atoms: O_25  and  C_26
REMARK                            x       y       z     vdW  Elec       q    Type
REMARK                         _______ _______ _______ _____ _____    ______ ____
ROOT
ATOM      1  C   LIG A   1      -7.249  -2.820 131.269  0.00  0.00    +0.109 C 
ATOM      2  C   LIG A   1      -6.373  -3.162 132.445  0.00  0.00    +0.311 C 
ATOM      3  O   LIG A   1      -6.387  -4.217 133.046  0.00  0.00    -0.251 OA
ATOM      4  O   LIG A   1      -5.536  -2.125 132.738  0.00  0.00    -0.464 OA
ATOM      5  C   LIG A   1      -5.705  -1.094 131.768  0.00  0.00    +0.236 C 
ATOM      6  C   LIG A   1      -7.099  -1.298 131.204  0.00  0.00    +0.045 C 
ENDROOT
BRANCH   1   7
ATOM      7  C   LIG A   1      -6.740  -3.585 130.034  0.00  0.00    +0.050 C 
BRANCH   7  12
ATOM      8  C   LIG A   1      -9.332  -3.616 127.226  0.00  0.00    +0.050 A 
ATOM      9  C   LIG A   1      -8.744  -2.775 126.285  0.00  0.00    +0.162 A 
ATOM     10  C   LIG A   1      -7.525  -2.161 126.574  0.00  0.00    +0.162 A 
ATOM     11  C   LIG A   1      -6.911  -2.361 127.808  0.00  0.00    +0.053 A 
ATOM     12  C   LIG A   1      -7.453  -3.259 128.739  0.00  0.00    -0.043 A 
ATOM     13  C   LIG A   1      -8.692  -3.855 128.448  0.00  0.00    +0.007 A 
ATOM     14  O   LIG A   1      -6.852  -1.360 125.687  0.00  0.00    -0.485 OA
ATOM     15  C   LIG A   1      -7.340  -1.552 124.356  0.00  0.00    +0.270 C 
ATOM     16  C   LIG A   1      -8.859  -1.513 124.346  0.00  0.00    +0.270 C 
ATOM     17  O   LIG A   1      -9.402  -2.609 125.093  0.00  0.00    -0.485 OA
ENDBRANCH   7  12
ENDBRANCH   1   7
BRANCH   6  18
ATOM     18  C   LIG A   1      -8.182  -0.612 132.071  0.00  0.00    +0.042 C 
BRANCH  18  19
ATOM     19  C   LIG A   1      -8.712   0.659 131.452  0.00  0.00    -0.043 A 
ATOM     20  C   LIG A   1      -8.414   0.972 130.120  0.00  0.00    +0.053 A 
ATOM     21  C   LIG A   1      -8.843   2.172 129.545  0.00  0.00    +0.162 A 
ATOM     22  C   LIG A   1      -9.654   3.041 130.296  0.00  0.00    +0.162 A 
ATOM     23  C   LIG A   1      -9.933   2.741 131.635  0.00  0.00    +0.050 A 
ATOM     24  C   LIG A   1      -9.470   1.556 132.208  0.00  0.00    +0.007 A 
BRANCH  22  25
ATOM     25  O   LIG A   1     -10.107   4.182 129.680  0.00  0.00    -0.491 OA
ATOM     26  C   LIG A   1     -11.165   4.852 130.362  0.00  0.00    +0.277 C 
ENDBRANCH  22  25
BRANCH  21  27
ATOM     27  O   LIG A   1      -8.560   2.518 128.246  0.00  0.00    -0.491 OA
ATOM     28  C   LIG A   1      -8.672   1.471 127.285  0.00  0.00    +0.277 C 
ENDBRANCH  21  27
ENDBRANCH  18  19
ENDBRANCH   6  18
TORSDOF 6
ENDMDL
MODEL 3
REMARK VINA RESULT:      -7.6      4.024      9.163
REMARK  Name = NuBBE_2370
REMARK  8 active torsions:
REMARK  status: ('A' for Active; 'I' for Inactive)
REMARK    1  A    between atoms: C_5  and  C_7
REMARK    2  A    between atoms: C_7  and  C_8
REMARK    3  A    between atoms: C_14  and  C_16
REMARK    4  A    between atoms: C_16  and  C_17
REMARK    5  A    between atoms: C_19  and  O_25
REMARK    6  A    between atoms: C_20  and  O_23
REMARK    7  A    between atoms: O_23  and  C_24
REMARK    8  A    between atoms: O_25  and  C_26
REMARK                            x       y       z     vdW  Elec       q    Type
REMARK                         _______ _______ _______ _____ _____    ______ ____
ROOT
ATOM      1  C   LIG A   1      -2.729   6.011 130.743  0.00  0.00    +0.109 C 
ATOM      2  C   LIG A   1      -1.668   6.604 131.633  0.00  0.00    +0.311 C 
ATOM      3  O   LIG A   1      -0.613   6.073 131.914  0.00  0.00    -0.251 OA
ATOM      4  O   LIG A   1      -2.044   7.840 132.071  0.00  0.00    -0.464 OA
ATOM      5  C   LIG A   1      -3.281   8.200 131.461  0.00  0.00    +0.236 C 
ATOM      6  C   LIG A   1      -3.938   6.887 131.080  0.00  0.00    +0.045 C 
ENDROOT
BRANCH   1   7
ATOM      7  C   LIG A   1      -2.249   6.085 129.283  0.00  0.00    +0.050 C 
BRANCH   7  12
ATOM      8  C   LIG A   1      -3.274   3.102 127.126  0.00  0.00    +0.050 A 
ATOM      9  C   LIG A   1      -4.350   3.622 126.412  0.00  0.00    +0.162 A 
ATOM     10  C   LIG A   1      -4.774   4.929 126.657  0.00  0.00    +0.162 A 
ATOM     11  C   LIG A   1      -4.147   5.701 127.632  0.00  0.00    +0.053 A 
ATOM     12  C   LIG A   1      -3.019   5.219 128.309  0.00  0.00    -0.043 A 
ATOM     13  C   LIG A   1      -2.612   3.895 128.072  0.00  0.00    +0.007 A 
ATOM     14  O   LIG A   1      -5.790   5.537 125.965  0.00  0.00    -0.485 OA
ATOM     15  C   LIG A   1      -6.074   4.832 124.753  0.00  0.00    +0.270 C 
ATOM     16  C   LIG A   1      -6.187   3.341 125.029  0.00  0.00    +0.270 C 
ATOM     17  O   LIG A   1      -4.932   2.810 125.473  0.00  0.00    -0.485 OA
ENDBRANCH   7  12
ENDBRANCH   1   7
BRANCH   6  18
ATOM     18  C   LIG A   1      -4.738   6.275 132.256  0.00  0.00    +0.042 C 
BRANCH  18  19
ATOM     19  C   LIG A   1      -6.230   6.320 132.039  0.00  0.00    -0.043 A 
ATOM     20  C   LIG A   1      -7.085   5.581 132.866  0.00  0.00    +0.053 A 
ATOM     21  C   LIG A   1      -8.466   5.559 132.646  0.00  0.00    +0.162 A 
ATOM     22  C   LIG A   1      -9.010   6.357 131.623  0.00  0.00    +0.162 A 
ATOM     23  C   LIG A   1      -8.154   7.078 130.780  0.00  0.00    +0.050 A 
ATOM     24  C   LIG A   1      -6.775   7.064 130.989  0.00  0.00    +0.007 A 
BRANCH  22  25
ATOM     25  O   LIG A   1     -10.375   6.359 131.473  0.00  0.00    -0.491 OA
ATOM     26  C   LIG A   1     -10.835   6.714 130.172  0.00  0.00    +0.277 C 
ENDBRANCH  22  25
BRANCH  21  27
ATOM     27  O   LIG A   1      -9.334   4.838 133.428  0.00  0.00    -0.491 OA
ATOM     28  C   LIG A   1      -8.927   3.509 133.745  0.00  0.00    +0.277 C 
ENDBRANCH  21  27
ENDBRANCH  18  19
ENDBRANCH   6  18
TORSDOF 6
ENDMDL
MODEL 4
REMARK VINA RESULT:      -7.6      4.932      6.911
REMARK  Name = NuBBE_2370
REMARK  8 active torsions:
REMARK  status: ('A' for Active; 'I' for Inactive)
REMARK    1  A    between atoms: C_5  and  C_7
REMARK    2  A    between atoms: C_7  and  C_8
REMARK    3  A    between atoms: C_14  and  C_16
REMARK    4  A    between atoms: C_16  and  C_17
REMARK    5  A    between atoms: C_19  and  O_25
REMARK    6  A    between atoms: C_20  and  O_23
REMARK    7  A    between atoms: O_23  and  C_24
REMARK    8  A    between atoms: O_25  and  C_26
REMARK                            x       y       z     vdW  Elec       q    Type
REMARK                         _______ _______ _______ _____ _____    ______ ____
ROOT
ATOM      1  C   LIG A   1      -7.871  -0.039 131.211  0.00  0.00    +0.109 C 
ATOM      2  C   LIG A   1      -6.770  -0.178 132.229  0.00  0.00    +0.311 C 
ATOM      3  O   LIG A   1      -6.163   0.745 132.734  0.00  0.00    -0.251 OA
ATOM      4  O   LIG A   1      -6.556  -1.491 132.530  0.00  0.00    -0.464 OA
ATOM      5  C   LIG A   1      -7.515  -2.294 131.846  0.00  0.00    +0.236 C 
ATOM      6  C   LIG A   1      -7.959  -1.463 130.656  0.00  0.00    +0.045 C 
ENDROOT
BRANCH   1   7
ATOM      7  C   LIG A   1      -9.139   0.470 131.919  0.00  0.00    +0.050 C 
BRANCH   7  12
ATOM      8  C   LIG A   1      -9.278   4.067 133.201  0.00  0.00    +0.050 A 
ATOM      9  C   LIG A   1      -9.705   4.758 132.070  0.00  0.00    +0.162 A 
ATOM     10  C   LIG A   1      -9.910   4.066 130.876  0.00  0.00    +0.162 A 
ATOM     11  C   LIG A   1      -9.659   2.698 130.802  0.00  0.00    +0.053 A 
ATOM     12  C   LIG A   1      -9.297   1.976 131.948  0.00  0.00    -0.043 A 
ATOM     13  C   LIG A   1      -9.073   2.684 133.141  0.00  0.00    +0.007 A 
ATOM     14  O   LIG A   1     -10.378   4.657 129.730  0.00  0.00    -0.485 OA
ATOM     15  C   LIG A   1     -10.977   5.924 130.018  0.00  0.00    +0.270 C 
ATOM     16  C   LIG A   1     -10.069   6.738 130.924  0.00  0.00    +0.270 C 
ATOM     17  O   LIG A   1      -9.925   6.105 132.202  0.00  0.00    -0.485 OA
ENDBRANCH   7  12
ENDBRANCH   1   7
BRANCH   6  18
ATOM     18  C   LIG A   1      -7.009  -1.630 129.445  0.00  0.00    +0.042 C 
BRANCH  18  19
ATOM     19  C   LIG A   1      -7.743  -1.898 128.154  0.00  0.00    -0.043 A 
ATOM     20  C   LIG A   1      -7.900  -0.878 127.208  0.00  0.00    +0.053 A 
ATOM     21  C   LIG A   1      -8.629  -1.087 126.033  0.00  0.00    +0.162 A 
ATOM     22  C   LIG A   1      -9.144  -2.367 125.764  0.00  0.00    +0.162 A 
ATOM     23  C   LIG A   1      -9.009  -3.382 126.720  0.00  0.00    +0.050 A 
ATOM     24  C   LIG A   1      -8.309  -3.151 127.904  0.00  0.00    +0.007 A 
BRANCH  22  25
ATOM     25  O   LIG A   1      -9.802  -2.552 124.572  0.00  0.00    -0.491 OA
ATOM     26  C   LIG A   1      -9.110  -3.360 123.623  0.00  0.00    +0.277 C 
ENDBRANCH  22  25
BRANCH  21  27
ATOM     27  O   LIG A   1      -8.814  -0.108 125.088  0.00  0.00    -0.491 OA
ATOM     28  C   LIG A   1      -7.811   0.904 125.036  0.00  0.00    +0.277 C 
ENDBRANCH  21  27
ENDBRANCH  18  19
ENDBRANCH   6  18
TORSDOF 6
ENDMDL
MODEL 5
REMARK VINA RESULT:      -7.5      6.251     10.297
REMARK  Name = NuBBE_2370
REMARK  8 active torsions:
REMARK  status: ('A' for Active; 'I' for Inactive)
REMARK    1  A    between atoms: C_5  and  C_7
REMARK    2  A    between atoms: C_7  and  C_8
REMARK    3  A    between atoms: C_14  and  C_16
REMARK    4  A    between atoms: C_16  and  C_17
REMARK    5  A    between atoms: C_19  and  O_25
REMARK    6  A    between atoms: C_20  and  O_23
REMARK    7  A    between atoms: O_23  and  C_24
REMARK    8  A    between atoms: O_25  and  C_26
REMARK                            x       y       z     vdW  Elec       q    Type
REMARK                         _______ _______ _______ _____ _____    ______ ____
ROOT
ATOM      1  C   LIG A   1      -6.998   5.670 134.455  0.00  0.00    +0.109 C 
ATOM      2  C   LIG A   1      -6.959   5.818 135.953  0.00  0.00    +0.311 C 
ATOM      3  O   LIG A   1      -7.550   6.668 136.588  0.00  0.00    -0.251 OA
ATOM      4  O   LIG A   1      -6.181   4.846 136.512  0.00  0.00    -0.464 OA
ATOM      5  C   LIG A   1      -5.738   3.953 135.493  0.00  0.00    +0.236 C 
ATOM      6  C   LIG A   1      -5.799   4.752 134.204  0.00  0.00    +0.045 C 
ENDROOT
BRANCH   1   7
ATOM      7  C   LIG A   1      -8.365   5.091 134.049  0.00  0.00    +0.050 C 
BRANCH   7  12
ATOM      8  C   LIG A   1      -8.752   6.969 130.744  0.00  0.00    +0.050 A 
ATOM      9  C   LIG A   1     -10.137   7.034 130.612  0.00  0.00    +0.162 A 
ATOM     10  C   LIG A   1     -10.950   6.432 131.573  0.00  0.00    +0.162 A 
ATOM     11  C   LIG A   1     -10.384   5.743 132.643  0.00  0.00    +0.053 A 
ATOM     12  C   LIG A   1      -8.995   5.728 132.829  0.00  0.00    -0.043 A 
ATOM     13  C   LIG A   1      -8.183   6.318 131.845  0.00  0.00    +0.007 A 
ATOM     14  O   LIG A   1     -12.320   6.491 131.548  0.00  0.00    -0.485 OA
ATOM     15  C   LIG A   1     -12.770   7.534 130.678  0.00  0.00    +0.270 C 
ATOM     16  C   LIG A   1     -12.032   7.462 129.351  0.00  0.00    +0.270 C 
ATOM     17  O   LIG A   1     -10.633   7.717 129.532  0.00  0.00    -0.485 OA
ENDBRANCH   7  12
ENDBRANCH   1   7
BRANCH   6  18
ATOM     18  C   LIG A   1      -4.516   5.589 133.980  0.00  0.00    +0.042 C 
BRANCH  18  19
ATOM     19  C   LIG A   1      -4.349   6.036 132.548  0.00  0.00    -0.043 A 
ATOM     20  C   LIG A   1      -4.838   5.244 131.501  0.00  0.00    +0.053 A 
ATOM     21  C   LIG A   1      -4.641   5.609 130.165  0.00  0.00    +0.162 A 
ATOM     22  C   LIG A   1      -4.009   6.830 129.874  0.00  0.00    +0.162 A 
ATOM     23  C   LIG A   1      -3.497   7.611 130.918  0.00  0.00    +0.050 A 
ATOM     24  C   LIG A   1      -3.670   7.219 132.246  0.00  0.00    +0.007 A 
BRANCH  22  25
ATOM     25  O   LIG A   1      -3.886   7.185 128.553  0.00  0.00    -0.491 OA
ATOM     26  C   LIG A   1      -2.572   7.051 128.015  0.00  0.00    +0.277 C 
ENDBRANCH  22  25
BRANCH  21  27
ATOM     27  O   LIG A   1      -5.096   4.853 129.113  0.00  0.00    -0.491 OA
ATOM     28  C   LIG A   1      -6.404   4.304 129.261  0.00  0.00    +0.277 C 
ENDBRANCH  21  27
ENDBRANCH  18  19
ENDBRANCH   6  18
TORSDOF 6
ENDMDL
MODEL 6
REMARK VINA RESULT:      -7.5      3.445      7.888
REMARK  Name = NuBBE_2370
REMARK  8 active torsions:
REMARK  status: ('A' for Active; 'I' for Inactive)
REMARK    1  A    between atoms: C_5  and  C_7
REMARK    2  A    between atoms: C_7  and  C_8
REMARK    3  A    between atoms: C_14  and  C_16
REMARK    4  A    between atoms: C_16  and  C_17
REMARK    5  A    between atoms: C_19  and  O_25
REMARK    6  A    between atoms: C_20  and  O_23
REMARK    7  A    between atoms: O_23  and  C_24
REMARK    8  A    between atoms: O_25  and  C_26
REMARK                            x       y       z     vdW  Elec       q    Type
REMARK                         _______ _______ _______ _____ _____    ______ ____
ROOT
ATOM      1  C   LIG A   1      -7.219  -2.341 128.620  0.00  0.00    +0.109 C 
ATOM      2  C   LIG A   1      -6.835  -3.009 129.914  0.00  0.00    +0.311 C 
ATOM      3  O   LIG A   1      -7.599  -3.269 130.821  0.00  0.00    -0.251 OA
ATOM      4  O   LIG A   1      -5.503  -3.305 129.924  0.00  0.00    -0.464 OA
ATOM      5  C   LIG A   1      -4.935  -2.967 128.662  0.00  0.00    +0.236 C 
ATOM      6  C   LIG A   1      -5.854  -1.910 128.078  0.00  0.00    +0.045 C 
ENDROOT
BRANCH   1   7
ATOM      7  C   LIG A   1      -7.985  -3.352 127.749  0.00  0.00    +0.050 C 
BRANCH   7  12
ATOM      8  C   LIG A   1      -8.383  -3.198 123.951  0.00  0.00    +0.050 A 
ATOM      9  C   LIG A   1      -8.908  -1.921 123.771  0.00  0.00    +0.162 A 
ATOM     10  C   LIG A   1      -9.174  -1.121 124.882  0.00  0.00    +0.162 A 
ATOM     11  C   LIG A   1      -8.947  -1.604 126.168  0.00  0.00    +0.053 A 
ATOM     12  C   LIG A   1      -8.353  -2.858 126.366  0.00  0.00    -0.043 A 
ATOM     13  C   LIG A   1      -8.109  -3.666 125.242  0.00  0.00    +0.007 A 
ATOM     14  O   LIG A   1      -9.642   0.166 124.793  0.00  0.00    -0.485 OA
ATOM     15  C   LIG A   1      -9.450   0.688 123.475  0.00  0.00    +0.270 C 
ATOM     16  C   LIG A   1      -9.922  -0.319 122.440  0.00  0.00    +0.270 C 
ATOM     17  O   LIG A   1      -9.119  -1.506 122.481  0.00  0.00    -0.485 OA
ENDBRANCH   7  12
ENDBRANCH   1   7
BRANCH   6  18
ATOM     18  C   LIG A   1      -5.497  -0.490 128.579  0.00  0.00    +0.042 C 
BRANCH  18  19
ATOM     19  C   LIG A   1      -6.284   0.594 127.884  0.00  0.00    -0.043 A 
ATOM     20  C   LIG A   1      -7.321   1.253 128.556  0.00  0.00    +0.053 A 
ATOM     21  C   LIG A   1      -8.103   2.218 127.912  0.00  0.00    +0.162 A 
ATOM     22  C   LIG A   1      -7.790   2.585 126.592  0.00  0.00    +0.162 A 
ATOM     23  C   LIG A   1      -6.769   1.910 125.910  0.00  0.00    +0.050 A 
ATOM     24  C   LIG A   1      -6.018   0.925 126.553  0.00  0.00    +0.007 A 
BRANCH  22  25
ATOM     25  O   LIG A   1      -8.540   3.578 126.011  0.00  0.00    -0.491 OA
ATOM     26  C   LIG A   1      -7.809   4.746 125.645  0.00  0.00    +0.277 C 
ENDBRANCH  22  25
BRANCH  21  27
ATOM     27  O   LIG A   1      -9.134   2.877 128.535  0.00  0.00    -0.491 OA
ATOM     28  C   LIG A   1      -9.026   3.003 129.951  0.00  0.00    +0.277 C 
ENDBRANCH  21  27
ENDBRANCH  18  19
ENDBRANCH   6  18
TORSDOF 6
ENDMDL
MODEL 7
REMARK VINA RESULT:      -7.4      3.201      6.205
REMARK  Name = NuBBE_2370
REMARK  8 active torsions:
REMARK  status: ('A' for Active; 'I' for Inactive)
REMARK    1  A    between atoms: C_5  and  C_7
REMARK    2  A    between atoms: C_7  and  C_8
REMARK    3  A    between atoms: C_14  and  C_16
REMARK    4  A    between atoms: C_16  and  C_17
REMARK    5  A    between atoms: C_19  and  O_25
REMARK    6  A    between atoms: C_20  and  O_23
REMARK    7  A    between atoms: O_23  and  C_24
REMARK    8  A    between atoms: O_25  and  C_26
REMARK                            x       y       z     vdW  Elec       q    Type
REMARK                         _______ _______ _______ _____ _____    ______ ____
ROOT
ATOM      1  C   LIG A   1      -4.833   4.780 127.885  0.00  0.00    +0.109 C 
ATOM      2  C   LIG A   1      -3.798   5.861 128.045  0.00  0.00    +0.311 C 
ATOM      3  O   LIG A   1      -4.024   6.999 128.406  0.00  0.00    -0.251 OA
ATOM      4  O   LIG A   1      -2.555   5.384 127.749  0.00  0.00    -0.464 OA
ATOM      5  C   LIG A   1      -2.638   3.987 127.476  0.00  0.00    +0.236 C 
ATOM      6  C   LIG A   1      -4.074   3.747 127.048  0.00  0.00    +0.045 C 
ENDROOT
BRANCH   1   7
ATOM      7  C   LIG A   1      -5.270   4.302 129.281  0.00  0.00    +0.050 C 
BRANCH   7  12
ATOM      8  C   LIG A   1      -7.481   6.580 131.409  0.00  0.00    +0.050 A 
ATOM      9  C   LIG A   1      -8.757   6.205 130.998  0.00  0.00    +0.162 A 
ATOM     10  C   LIG A   1      -8.905   5.243 129.999  0.00  0.00    +0.162 A 
ATOM     11  C   LIG A   1      -7.785   4.680 129.392  0.00  0.00    +0.053 A 
ATOM     12  C   LIG A   1      -6.495   4.992 129.842  0.00  0.00    -0.043 A 
ATOM     13  C   LIG A   1      -6.355   5.979 130.834  0.00  0.00    +0.007 A 
ATOM     14  O   LIG A   1     -10.123   4.779 129.570  0.00  0.00    -0.485 OA
ATOM     15  C   LIG A   1     -11.151   5.101 130.511  0.00  0.00    +0.270 C 
ATOM     16  C   LIG A   1     -11.045   6.560 130.922  0.00  0.00    +0.270 C 
ATOM     17  O   LIG A   1      -9.820   6.803 131.626  0.00  0.00    -0.485 OA
ENDBRANCH   7  12
ENDBRANCH   1   7
BRANCH   6  18
ATOM     18  C   LIG A   1      -4.282   4.018 125.538  0.00  0.00    +0.042 C 
BRANCH  18  19
ATOM     19  C   LIG A   1      -5.454   3.263 124.961  0.00  0.00    -0.043 A 
ATOM     20  C   LIG A   1      -6.003   3.648 123.731  0.00  0.00    +0.053 A 
ATOM     21  C   LIG A   1      -7.127   3.001 123.206  0.00  0.00    +0.162 A 
ATOM     22  C   LIG A   1      -7.664   1.896 123.890  0.00  0.00    +0.162 A 
ATOM     23  C   LIG A   1      -7.131   1.525 125.131  0.00  0.00    +0.050 A 
ATOM     24  C   LIG A   1      -6.030   2.200 125.661  0.00  0.00    +0.007 A 
BRANCH  22  25
ATOM     25  O   LIG A   1      -8.729   1.247 123.316  0.00  0.00    -0.491 OA
ATOM     26  C   LIG A   1      -9.976   1.434 123.982  0.00  0.00    +0.277 C 
ENDBRANCH  22  25
BRANCH  21  27
ATOM     27  O   LIG A   1      -7.700   3.357 122.010  0.00  0.00    -0.491 OA
ATOM     28  C   LIG A   1      -6.796   3.752 120.981  0.00  0.00    +0.277 C 
ENDBRANCH  21  27
ENDBRANCH  18  19
ENDBRANCH   6  18
TORSDOF 6
ENDMDL
MODEL 8
REMARK VINA RESULT:      -7.4      4.321      7.931
REMARK  Name = NuBBE_2370
REMARK  8 active torsions:
REMARK  status: ('A' for Active; 'I' for Inactive)
REMARK    1  A    between atoms: C_5  and  C_7
REMARK    2  A    between atoms: C_7  and  C_8
REMARK    3  A    between atoms: C_14  and  C_16
REMARK    4  A    between atoms: C_16  and  C_17
REMARK    5  A    between atoms: C_19  and  O_25
REMARK    6  A    between atoms: C_20  and  O_23
REMARK    7  A    between atoms: O_23  and  C_24
REMARK    8  A    between atoms: O_25  and  C_26
REMARK                            x       y       z     vdW  Elec       q    Type
REMARK                         _______ _______ _______ _____ _____    ______ ____
ROOT
ATOM      1  C   LIG A   1      -4.606   6.077 131.282  0.00  0.00    +0.109 C 
ATOM      2  C   LIG A   1      -3.216   6.455 131.721  0.00  0.00    +0.311 C 
ATOM      3  O   LIG A   1      -2.851   7.580 131.996  0.00  0.00    -0.251 OA
ATOM      4  O   LIG A   1      -2.418   5.351 131.791  0.00  0.00    -0.464 OA
ATOM      5  C   LIG A   1      -3.194   4.188 131.513  0.00  0.00    +0.236 C 
ATOM      6  C   LIG A   1      -4.377   4.680 130.699  0.00  0.00    +0.045 C 
ENDROOT
BRANCH   1   7
ATOM      7  C   LIG A   1      -5.544   6.135 132.500  0.00  0.00    +0.050 C 
BRANCH   7  12
ATOM      8  C   LIG A   1      -9.342   5.753 132.685  0.00  0.00    +0.050 A 
ATOM      9  C   LIG A   1      -9.751   6.402 131.524  0.00  0.00    +0.162 A 
ATOM     10  C   LIG A   1      -8.801   7.002 130.697  0.00  0.00    +0.162 A 
ATOM     11  C   LIG A   1      -7.453   6.982 131.044  0.00  0.00    +0.053 A 
ATOM     12  C   LIG A   1      -7.016   6.274 132.172  0.00  0.00    -0.043 A 
ATOM     13  C   LIG A   1      -7.982   5.691 133.010  0.00  0.00    +0.007 A 
ATOM     14  O   LIG A   1      -9.111   7.617 129.511  0.00  0.00    -0.485 OA
ATOM     15  C   LIG A   1     -10.413   7.231 129.061  0.00  0.00    +0.270 C 
ATOM     16  C   LIG A   1     -11.411   7.332 130.202  0.00  0.00    +0.270 C 
ATOM     17  O   LIG A   1     -11.093   6.398 131.241  0.00  0.00    -0.485 OA
ENDBRANCH   7  12
ENDBRANCH   1   7
BRANCH   6  18
ATOM     18  C   LIG A   1      -4.042   4.773 129.190  0.00  0.00    +0.042 C 
BRANCH  18  19
ATOM     19  C   LIG A   1      -5.252   4.587 128.307  0.00  0.00    -0.043 A 
ATOM     20  C   LIG A   1      -6.514   4.378 128.877  0.00  0.00    +0.053 A 
ATOM     21  C   LIG A   1      -7.639   4.143 128.079  0.00  0.00    +0.162 A 
ATOM     22  C   LIG A   1      -7.509   4.195 126.679  0.00  0.00    +0.162 A 
ATOM     23  C   LIG A   1      -6.244   4.379 126.108  0.00  0.00    +0.050 A 
ATOM     24  C   LIG A   1      -5.124   4.579 126.916  0.00  0.00    +0.007 A 
BRANCH  22  25
ATOM     25  O   LIG A   1      -8.645   4.019 125.927  0.00  0.00    -0.491 OA
ATOM     26  C   LIG A   1      -8.552   3.008 124.927  0.00  0.00    +0.277 C 
ENDBRANCH  22  25
BRANCH  21  27
ATOM     27  O   LIG A   1      -8.890   3.924 128.601  0.00  0.00    -0.491 OA
ATOM     28  C   LIG A   1      -8.951   3.039 129.717  0.00  0.00    +0.277 C 
ENDBRANCH  21  27
ENDBRANCH  18  19
ENDBRANCH   6  18
TORSDOF 6
ENDMDL
MODEL 9
REMARK VINA RESULT:      -7.3      5.703      8.823
REMARK  Name = NuBBE_2370
REMARK  8 active torsions:
REMARK  status: ('A' for Active; 'I' for Inactive)
REMARK    1  A    between atoms: C_5  and  C_7
REMARK    2  A    between atoms: C_7  and  C_8
REMARK    3  A    between atoms: C_14  and  C_16
REMARK    4  A    between atoms: C_16  and  C_17
REMARK    5  A    between atoms: C_19  and  O_25
REMARK    6  A    between atoms: C_20  and  O_23
REMARK    7  A    between atoms: O_23  and  C_24
REMARK    8  A    between atoms: O_25  and  C_26
REMARK                            x       y       z     vdW  Elec       q    Type
REMARK                         _______ _______ _______ _____ _____    ______ ____
ROOT
ATOM      1  C   LIG A   1     -10.488   5.114 130.190  0.00  0.00    +0.109 C 
ATOM      2  C   LIG A   1     -11.693   5.972 129.909  0.00  0.00    +0.311 C 
ATOM      3  O   LIG A   1     -12.312   5.988 128.865  0.00  0.00    -0.251 OA
ATOM      4  O   LIG A   1     -12.013   6.723 131.002  0.00  0.00    -0.464 OA
ATOM      5  C   LIG A   1     -11.153   6.373 132.084  0.00  0.00    +0.236 C 
ATOM      6  C   LIG A   1      -9.910   5.790 131.436  0.00  0.00    +0.045 C 
ENDROOT
BRANCH   1   7
ATOM      7  C   LIG A   1     -10.951   3.659 130.386  0.00  0.00    +0.050 C 
BRANCH   7  12
ATOM      8  C   LIG A   1      -8.905   0.991 132.203  0.00  0.00    +0.050 A 
ATOM      9  C   LIG A   1      -7.761   0.921 131.412  0.00  0.00    +0.162 A 
ATOM     10  C   LIG A   1      -7.666   1.708 130.264  0.00  0.00    +0.162 A 
ATOM     11  C   LIG A   1      -8.721   2.537 129.890  0.00  0.00    +0.053 A 
ATOM     12  C   LIG A   1      -9.849   2.673 130.710  0.00  0.00    -0.043 A 
ATOM     13  C   LIG A   1      -9.945   1.860 131.853  0.00  0.00    +0.007 A 
ATOM     14  O   LIG A   1      -6.557   1.739 129.458  0.00  0.00    -0.485 OA
ATOM     15  C   LIG A   1      -5.421   1.193 130.134  0.00  0.00    +0.270 C 
ATOM     16  C   LIG A   1      -5.788  -0.125 130.795  0.00  0.00    +0.270 C 
ATOM     17  O   LIG A   1      -6.762   0.078 131.827  0.00  0.00    -0.485 OA
ENDBRANCH   7  12
ENDBRANCH   1   7
BRANCH   6  18
ATOM     18  C   LIG A   1      -8.897   6.889 131.033  0.00  0.00    +0.042 C 
BRANCH  18  19
ATOM     19  C   LIG A   1      -7.466   6.497 131.303  0.00  0.00    -0.043 A 
ATOM     20  C   LIG A   1      -6.417   7.326 130.884  0.00  0.00    +0.053 A 
ATOM     21  C   LIG A   1      -5.082   6.953 131.070  0.00  0.00    +0.162 A 
ATOM     22  C   LIG A   1      -4.791   5.762 131.758  0.00  0.00    +0.162 A 
ATOM     23  C   LIG A   1      -5.838   4.921 132.156  0.00  0.00    +0.050 A 
ATOM     24  C   LIG A   1      -7.166   5.287 131.934  0.00  0.00    +0.007 A 
BRANCH  22  25
ATOM     25  O   LIG A   1      -3.470   5.457 131.976  0.00  0.00    -0.491 OA
ATOM     26  C   LIG A   1      -2.914   4.511 131.065  0.00  0.00    +0.277 C 
ENDBRANCH  22  25
BRANCH  21  27
ATOM     27  O   LIG A   1      -4.027   7.734 130.663  0.00  0.00    -0.491 OA
ATOM     28  C   LIG A   1      -3.823   7.818 129.255  0.00  0.00    +0.277 C 
ENDBRANCH  21  27
ENDBRANCH  18  19
ENDBRANCH   6  18
TORSDOF 6
ENDMDL
