MODEL 1
REMARK VINA RESULT:      -6.3      0.000      0.000
REMARK  Name = NuBBE_673
REMARK  3 active torsions:
REMARK  status: ('A' for Active; 'I' for Inactive)
REMARK    1  A    between atoms: O_1  and  C_2
REMARK    2  A    between atoms: C_6  and  C_7
REMARK    3  A    between atoms: C_11  and  O_12
REMARK                            x       y       z     vdW  Elec       q    Type
REMARK                         _______ _______ _______ _____ _____    ______ ____
ROOT
ATOM      1  C   LIG A   1      -9.769   5.846 128.910  0.00  0.00    +0.131 A 
ATOM      2  C   LIG A   1     -10.791   6.811 128.928  0.00  0.00    +0.107 A 
ATOM      3  C   LIG A   1     -11.581   6.981 130.082  0.00  0.00    +0.015 A 
ATOM      4  C   LIG A   1     -12.687   7.996 130.062  0.00  0.00    +0.084 C 
ATOM      5  C   LIG A   1     -12.386   9.087 129.042  0.00  0.00    +0.178 C 
ATOM      6  C   LIG A   1     -13.595   9.993 128.842  0.00  0.00    +0.052 C 
ATOM      7  O   LIG A   1     -12.064   8.515 127.764  0.00  0.00    -0.458 OA
ATOM      8  C   LIG A   1     -11.067   7.600 127.699  0.00  0.00    +0.343 C 
ATOM      9  O   LIG A   1     -10.449   7.381 126.664  0.00  0.00    -0.245 OA
ATOM     10  C   LIG A   1     -11.343   6.149 131.183  0.00  0.00    +0.121 A 
ATOM     11  C   LIG A   1     -10.326   5.193 131.158  0.00  0.00    +0.049 A 
ATOM     12  C   LIG A   1      -9.535   5.045 130.023  0.00  0.00    +0.050 A 
ENDROOT
BRANCH   1  13
ATOM     13  O   LIG A   1      -8.959   5.617 127.830  0.00  0.00    -0.506 OA
ATOM     14  H   LIG A   1      -8.057   5.954 128.035  0.00  0.00    +0.292 HD
ENDBRANCH   1  13
BRANCH  10  15
ATOM     15  O   LIG A   1     -12.076   6.199 132.334  0.00  0.00    -0.506 OA
ATOM     16  H   LIG A   1     -11.527   6.491 133.076  0.00  0.00    +0.292 HD
ENDBRANCH  10  15
TORSDOF 2
ENDMDL
MODEL 2
REMARK VINA RESULT:      -6.2      1.074      3.755
REMARK  Name = NuBBE_673
REMARK  3 active torsions:
REMARK  status: ('A' for Active; 'I' for Inactive)
REMARK    1  A    between atoms: O_1  and  C_2
REMARK    2  A    between atoms: C_6  and  C_7
REMARK    3  A    between atoms: C_11  and  O_12
REMARK                            x       y       z     vdW  Elec       q    Type
REMARK                         _______ _______ _______ _____ _____    ______ ____
ROOT
ATOM      1  C   LIG A   1     -11.417   8.090 128.146  0.00  0.00    +0.131 A 
ATOM      2  C   LIG A   1     -11.063   6.999 128.959  0.00  0.00    +0.107 A 
ATOM      3  C   LIG A   1     -11.661   6.839 130.224  0.00  0.00    +0.015 A 
ATOM      4  C   LIG A   1     -11.240   5.683 131.085  0.00  0.00    +0.084 C 
ATOM      5  C   LIG A   1     -10.706   4.547 130.222  0.00  0.00    +0.178 C 
ATOM      6  C   LIG A   1     -10.065   3.466 131.083  0.00  0.00    +0.052 C 
ATOM      7  O   LIG A   1      -9.701   5.025 129.315  0.00  0.00    -0.458 OA
ATOM      8  C   LIG A   1     -10.009   6.059 128.495  0.00  0.00    +0.343 C 
ATOM      9  O   LIG A   1      -9.416   6.255 127.441  0.00  0.00    -0.245 OA
ATOM     10  C   LIG A   1     -12.579   7.804 130.656  0.00  0.00    +0.121 A 
ATOM     11  C   LIG A   1     -12.926   8.884 129.844  0.00  0.00    +0.049 A 
ATOM     12  C   LIG A   1     -12.348   9.026 128.586  0.00  0.00    +0.050 A 
ENDROOT
BRANCH   1  13
ATOM     13  O   LIG A   1     -10.882   8.319 126.906  0.00  0.00    -0.506 OA
ATOM     14  H   LIG A   1     -11.208   7.625 126.289  0.00  0.00    +0.292 HD
ENDBRANCH   1  13
BRANCH  10  15
ATOM     15  O   LIG A   1     -13.185   7.770 131.879  0.00  0.00    -0.506 OA
ATOM     16  H   LIG A   1     -13.468   6.870 132.095  0.00  0.00    +0.292 HD
ENDBRANCH  10  15
TORSDOF 2
ENDMDL
MODEL 3
REMARK VINA RESULT:      -6.0      1.245      4.682
REMARK  Name = NuBBE_673
REMARK  3 active torsions:
REMARK  status: ('A' for Active; 'I' for Inactive)
REMARK    1  A    between atoms: O_1  and  C_2
REMARK    2  A    between atoms: C_6  and  C_7
REMARK    3  A    between atoms: C_11  and  O_12
REMARK                            x       y       z     vdW  Elec       q    Type
REMARK                         _______ _______ _______ _____ _____    ______ ____
ROOT
ATOM      1  C   LIG A   1     -12.269   8.396 129.268  0.00  0.00    +0.131 A 
ATOM      2  C   LIG A   1     -11.629   7.405 130.033  0.00  0.00    +0.107 A 
ATOM      3  C   LIG A   1     -10.605   6.625 129.461  0.00  0.00    +0.015 A 
ATOM      4  C   LIG A   1      -9.961   5.552 130.291  0.00  0.00    +0.084 C 
ATOM      5  C   LIG A   1     -10.082   5.883 131.773  0.00  0.00    +0.178 C 
ATOM      6  C   LIG A   1      -9.644   4.702 132.631  0.00  0.00    +0.052 C 
ATOM      7  O   LIG A   1     -11.444   6.182 132.118  0.00  0.00    -0.458 OA
ATOM      8  C   LIG A   1     -12.089   7.150 131.423  0.00  0.00    +0.343 C 
ATOM      9  O   LIG A   1     -13.047   7.756 131.886  0.00  0.00    -0.245 OA
ATOM     10  C   LIG A   1     -10.271   6.841 128.118  0.00  0.00    +0.121 A 
ATOM     11  C   LIG A   1     -10.910   7.826 127.366  0.00  0.00    +0.049 A 
ATOM     12  C   LIG A   1     -11.907   8.609 127.942  0.00  0.00    +0.050 A 
ENDROOT
BRANCH   1  13
ATOM     13  O   LIG A   1     -13.273   9.195 129.747  0.00  0.00    -0.506 OA
ATOM     14  H   LIG A   1     -13.884   9.412 129.006  0.00  0.00    +0.292 HD
ENDBRANCH   1  13
BRANCH  10  15
ATOM     15  O   LIG A   1      -9.326   6.114 127.454  0.00  0.00    -0.506 OA
ATOM     16  H   LIG A   1      -9.141   6.503 126.587  0.00  0.00    +0.292 HD
ENDBRANCH  10  15
TORSDOF 2
ENDMDL
MODEL 4
REMARK VINA RESULT:      -5.8      1.670      3.893
REMARK  Name = NuBBE_673
REMARK  3 active torsions:
REMARK  status: ('A' for Active; 'I' for Inactive)
REMARK    1  A    between atoms: O_1  and  C_2
REMARK    2  A    between atoms: C_6  and  C_7
REMARK    3  A    between atoms: C_11  and  O_12
REMARK                            x       y       z     vdW  Elec       q    Type
REMARK                         _______ _______ _______ _____ _____    ______ ____
ROOT
ATOM      1  C   LIG A   1     -12.398   7.265 131.237  0.00  0.00    +0.131 A 
ATOM      2  C   LIG A   1     -12.066   7.383 129.877  0.00  0.00    +0.107 A 
ATOM      3  C   LIG A   1     -12.305   8.592 129.195  0.00  0.00    +0.015 A 
ATOM      4  C   LIG A   1     -11.971   8.680 127.734  0.00  0.00    +0.084 C 
ATOM      5  C   LIG A   1     -10.878   7.680 127.379  0.00  0.00    +0.178 C 
ATOM      6  C   LIG A   1     -10.690   7.593 125.870  0.00  0.00    +0.052 C 
ATOM      7  O   LIG A   1     -11.220   6.365 127.845  0.00  0.00    -0.458 OA
ATOM      8  C   LIG A   1     -11.521   6.202 129.156  0.00  0.00    +0.343 C 
ATOM      9  O   LIG A   1     -11.409   5.122 129.722  0.00  0.00    -0.245 OA
ATOM     10  C   LIG A   1     -12.907   9.646 129.894  0.00  0.00    +0.121 A 
ATOM     11  C   LIG A   1     -13.233   9.521 131.245  0.00  0.00    +0.049 A 
ATOM     12  C   LIG A   1     -12.974   8.332 131.919  0.00  0.00    +0.050 A 
ENDROOT
BRANCH   1  13
ATOM     13  O   LIG A   1     -12.199   6.126 131.972  0.00  0.00    -0.506 OA
ATOM     14  H   LIG A   1     -12.762   5.409 131.600  0.00  0.00    +0.292 HD
ENDBRANCH   1  13
BRANCH  10  15
ATOM     15  O   LIG A   1     -13.222  10.844 129.321  0.00  0.00    -0.506 OA
ATOM     16  H   LIG A   1     -13.435  11.502 129.998  0.00  0.00    +0.292 HD
ENDBRANCH  10  15
TORSDOF 2
ENDMDL
MODEL 5
REMARK VINA RESULT:      -5.7     10.938     11.629
REMARK  Name = NuBBE_673
REMARK  3 active torsions:
REMARK  status: ('A' for Active; 'I' for Inactive)
REMARK    1  A    between atoms: O_1  and  C_2
REMARK    2  A    between atoms: C_6  and  C_7
REMARK    3  A    between atoms: C_11  and  O_12
REMARK                            x       y       z     vdW  Elec       q    Type
REMARK                         _______ _______ _______ _____ _____    ______ ____
ROOT
ATOM      1  C   LIG A   1      -6.389  -1.933 124.294  0.00  0.00    +0.131 A 
ATOM      2  C   LIG A   1      -7.235  -2.404 125.313  0.00  0.00    +0.107 A 
ATOM      3  C   LIG A   1      -8.535  -2.848 125.003  0.00  0.00    +0.015 A 
ATOM      4  C   LIG A   1      -9.428  -3.315 126.116  0.00  0.00    +0.084 C 
ATOM      5  C   LIG A   1      -8.596  -3.808 127.292  0.00  0.00    +0.178 C 
ATOM      6  C   LIG A   1      -9.474  -4.066 128.510  0.00  0.00    +0.052 C 
ATOM      7  O   LIG A   1      -7.617  -2.827 127.670  0.00  0.00    -0.458 OA
ATOM      8  C   LIG A   1      -6.765  -2.366 126.723  0.00  0.00    +0.343 C 
ATOM      9  O   LIG A   1      -5.675  -1.884 127.006  0.00  0.00    -0.245 OA
ATOM     10  C   LIG A   1      -8.965  -2.777 123.672  0.00  0.00    +0.121 A 
ATOM     11  C   LIG A   1      -8.120  -2.309 122.665  0.00  0.00    +0.049 A 
ATOM     12  C   LIG A   1      -6.829  -1.892 122.975  0.00  0.00    +0.050 A 
ENDROOT
BRANCH   1  13
ATOM     13  O   LIG A   1      -5.115  -1.482 124.512  0.00  0.00    -0.506 OA
ATOM     14  H   LIG A   1      -4.604  -1.562 123.674  0.00  0.00    +0.292 HD
ENDBRANCH   1  13
BRANCH  10  15
ATOM     15  O   LIG A   1     -10.217  -3.141 123.267  0.00  0.00    -0.506 OA
ATOM     16  H   LIG A   1     -10.609  -3.770 123.890  0.00  0.00    +0.292 HD
ENDBRANCH  10  15
TORSDOF 2
ENDMDL
MODEL 6
REMARK VINA RESULT:      -5.5      9.026     10.480
REMARK  Name = NuBBE_673
REMARK  3 active torsions:
REMARK  status: ('A' for Active; 'I' for Inactive)
REMARK    1  A    between atoms: O_1  and  C_2
REMARK    2  A    between atoms: C_6  and  C_7
REMARK    3  A    between atoms: C_11  and  O_12
REMARK                            x       y       z     vdW  Elec       q    Type
REMARK                         _______ _______ _______ _____ _____    ______ ____
ROOT
ATOM      1  C   LIG A   1      -9.076  -2.601 123.784  0.00  0.00    +0.131 A 
ATOM      2  C   LIG A   1      -8.515  -1.312 123.797  0.00  0.00    +0.107 A 
ATOM      3  C   LIG A   1      -7.317  -1.071 124.496  0.00  0.00    +0.015 A 
ATOM      4  C   LIG A   1      -6.757   0.322 124.519  0.00  0.00    +0.084 C 
ATOM      5  C   LIG A   1      -7.228   1.103 123.298  0.00  0.00    +0.178 C 
ATOM      6  C   LIG A   1      -6.863   2.577 123.422  0.00  0.00    +0.052 C 
ATOM      7  O   LIG A   1      -8.655   1.024 123.162  0.00  0.00    -0.458 OA
ATOM      8  C   LIG A   1      -9.234  -0.201 123.119  0.00  0.00    +0.343 C 
ATOM      9  O   LIG A   1     -10.326  -0.388 122.599  0.00  0.00    -0.245 OA
ATOM     10  C   LIG A   1      -6.727  -2.131 125.196  0.00  0.00    +0.121 A 
ATOM     11  C   LIG A   1      -7.289  -3.408 125.179  0.00  0.00    +0.049 A 
ATOM     12  C   LIG A   1      -8.462  -3.645 124.469  0.00  0.00    +0.050 A 
ENDROOT
BRANCH   1  13
ATOM     13  O   LIG A   1     -10.237  -2.919 123.131  0.00  0.00    -0.506 OA
ATOM     14  H   LIG A   1     -10.203  -2.538 122.224  0.00  0.00    +0.292 HD
ENDBRANCH   1  13
BRANCH  10  15
ATOM     15  O   LIG A   1      -5.590  -1.998 125.941  0.00  0.00    -0.506 OA
ATOM     16  H   LIG A   1      -5.806  -1.771 126.857  0.00  0.00    +0.292 HD
ENDBRANCH  10  15
TORSDOF 2
ENDMDL
MODEL 7
REMARK VINA RESULT:      -5.5      2.173      3.058
REMARK  Name = NuBBE_673
REMARK  3 active torsions:
REMARK  status: ('A' for Active; 'I' for Inactive)
REMARK    1  A    between atoms: O_1  and  C_2
REMARK    2  A    between atoms: C_6  and  C_7
REMARK    3  A    between atoms: C_11  and  O_12
REMARK                            x       y       z     vdW  Elec       q    Type
REMARK                         _______ _______ _______ _____ _____    ______ ____
ROOT
ATOM      1  C   LIG A   1      -7.382   5.465 130.433  0.00  0.00    +0.131 A 
ATOM      2  C   LIG A   1      -8.747   5.799 130.475  0.00  0.00    +0.107 A 
ATOM      3  C   LIG A   1      -9.363   6.099 131.705  0.00  0.00    +0.015 A 
ATOM      4  C   LIG A   1     -10.830   6.420 131.724  0.00  0.00    +0.084 C 
ATOM      5  C   LIG A   1     -11.270   6.966 130.371  0.00  0.00    +0.178 C 
ATOM      6  C   LIG A   1     -12.788   7.078 130.298  0.00  0.00    +0.052 C 
ATOM      7  O   LIG A   1     -10.853   6.094 129.309  0.00  0.00    -0.458 OA
ATOM      8  C   LIG A   1      -9.541   5.768 129.218  0.00  0.00    +0.343 C 
ATOM      9  O   LIG A   1      -9.030   5.408 128.165  0.00  0.00    -0.245 OA
ATOM     10  C   LIG A   1      -8.594   6.023 132.873  0.00  0.00    +0.121 A 
ATOM     11  C   LIG A   1      -7.240   5.692 132.824  0.00  0.00    +0.049 A 
ATOM     12  C   LIG A   1      -6.631   5.417 131.604  0.00  0.00    +0.050 A 
ENDROOT
BRANCH   1  13
ATOM     13  O   LIG A   1      -6.709   5.159 129.281  0.00  0.00    -0.506 OA
ATOM     14  H   LIG A   1      -7.229   5.492 128.514  0.00  0.00    +0.292 HD
ENDBRANCH   1  13
BRANCH  10  15
ATOM     15  O   LIG A   1      -9.100   6.251 134.121  0.00  0.00    -0.506 OA
ATOM     16  H   LIG A   1     -10.020   6.548 134.068  0.00  0.00    +0.292 HD
ENDBRANCH  10  15
TORSDOF 2
ENDMDL
MODEL 8
REMARK VINA RESULT:      -5.4     10.741     10.944
REMARK  Name = NuBBE_673
REMARK  3 active torsions:
REMARK  status: ('A' for Active; 'I' for Inactive)
REMARK    1  A    between atoms: O_1  and  C_2
REMARK    2  A    between atoms: C_6  and  C_7
REMARK    3  A    between atoms: C_11  and  O_12
REMARK                            x       y       z     vdW  Elec       q    Type
REMARK                         _______ _______ _______ _____ _____    ______ ____
ROOT
ATOM      1  C   LIG A   1      -6.156  -2.072 127.786  0.00  0.00    +0.131 A 
ATOM      2  C   LIG A   1      -6.946  -2.349 126.657  0.00  0.00    +0.107 A 
ATOM      3  C   LIG A   1      -8.151  -3.065 126.797  0.00  0.00    +0.015 A 
ATOM      4  C   LIG A   1      -8.959  -3.374 125.570  0.00  0.00    +0.084 C 
ATOM      5  C   LIG A   1      -8.673  -2.354 124.476  0.00  0.00    +0.178 C 
ATOM      6  C   LIG A   1      -9.301  -2.782 123.156  0.00  0.00    +0.052 C 
ATOM      7  O   LIG A   1      -7.259  -2.226 124.256  0.00  0.00    -0.458 OA
ATOM      8  C   LIG A   1      -6.464  -1.934 125.313  0.00  0.00    +0.343 C 
ATOM      9  O   LIG A   1      -5.369  -1.402 125.178  0.00  0.00    -0.245 OA
ATOM     10  C   LIG A   1      -8.515  -3.515 128.072  0.00  0.00    +0.121 A 
ATOM     11  C   LIG A   1      -7.726  -3.236 129.188  0.00  0.00    +0.049 A 
ATOM     12  C   LIG A   1      -6.548  -2.510 129.047  0.00  0.00    +0.050 A 
ENDROOT
BRANCH   1  13
ATOM     13  O   LIG A   1      -4.972  -1.384 127.735  0.00  0.00    -0.506 OA
ATOM     14  H   LIG A   1      -5.101  -0.575 127.190  0.00  0.00    +0.292 HD
ENDBRANCH   1  13
BRANCH  10  15
ATOM     15  O   LIG A   1      -9.638  -4.254 128.315  0.00  0.00    -0.506 OA
ATOM     16  H   LIG A   1      -9.938  -4.695 127.507  0.00  0.00    +0.292 HD
ENDBRANCH  10  15
TORSDOF 2
ENDMDL
MODEL 9
REMARK VINA RESULT:      -5.3      1.587      4.877
REMARK  Name = NuBBE_673
REMARK  3 active torsions:
REMARK  status: ('A' for Active; 'I' for Inactive)
REMARK    1  A    between atoms: O_1  and  C_2
REMARK    2  A    between atoms: C_6  and  C_7
REMARK    3  A    between atoms: C_11  and  O_12
REMARK                            x       y       z     vdW  Elec       q    Type
REMARK                         _______ _______ _______ _____ _____    ______ ____
ROOT
ATOM      1  C   LIG A   1     -12.678   7.565 130.603  0.00  0.00    +0.131 A 
ATOM      2  C   LIG A   1     -11.322   7.199 130.631  0.00  0.00    +0.107 A 
ATOM      3  C   LIG A   1     -10.460   7.603 129.592  0.00  0.00    +0.015 A 
ATOM      4  C   LIG A   1      -9.023   7.170 129.631  0.00  0.00    +0.084 C 
ATOM      5  C   LIG A   1      -8.591   6.895 131.066  0.00  0.00    +0.178 C 
ATOM      6  C   LIG A   1      -7.217   6.238 131.103  0.00  0.00    +0.052 C 
ATOM      7  O   LIG A   1      -9.511   6.003 131.713  0.00  0.00    -0.458 OA
ATOM      8  C   LIG A   1     -10.826   6.332 131.732  0.00  0.00    +0.343 C 
ATOM      9  O   LIG A   1     -11.595   5.896 132.579  0.00  0.00    -0.245 OA
ATOM     10  C   LIG A   1     -10.996   8.340 128.529  0.00  0.00    +0.121 A 
ATOM     11  C   LIG A   1     -12.344   8.700 128.508  0.00  0.00    +0.049 A 
ATOM     12  C   LIG A   1     -13.185   8.318 129.548  0.00  0.00    +0.050 A 
ENDROOT
BRANCH   1  13
ATOM     13  O   LIG A   1     -13.581   7.213 131.571  0.00  0.00    -0.506 OA
ATOM     14  H   LIG A   1     -13.673   6.233 131.574  0.00  0.00    +0.292 HD
ENDBRANCH   1  13
BRANCH  10  15
ATOM     15  O   LIG A   1     -10.262   8.745 127.451  0.00  0.00    -0.506 OA
ATOM     16  H   LIG A   1     -10.746   9.405 126.935  0.00  0.00    +0.292 HD
ENDBRANCH  10  15
TORSDOF 2
ENDMDL
