MODEL 1
REMARK VINA RESULT:      -7.3      0.000      0.000
REMARK  Name = NuBBE_2255
REMARK  7 active torsions:
REMARK  status: ('A' for Active; 'I' for Inactive)
REMARK    1  A    between atoms: O_1  and  C_2
REMARK    2  A    between atoms: O_1  and  C_3
REMARK    3  A    between atoms: C_7  and  C_13
REMARK    4  A    between atoms: C_8  and  O_11
REMARK    5  A    between atoms: O_11  and  C_12
REMARK    6  A    between atoms: C_20  and  O_22
REMARK    7  A    between atoms: O_22  and  C_23
REMARK                            x       y       z     vdW  Elec       q    Type
REMARK                         _______ _______ _______ _____ _____    ______ ____
ROOT
ATOM      1  C   LIG A   1      -7.616   0.553 126.187  0.00  0.00    +0.138 A 
ATOM      2  C   LIG A   1      -7.021   1.167 125.079  0.00  0.00    +0.109 A 
ATOM      3  C   LIG A   1      -7.299   0.729 123.790  0.00  0.00    +0.146 A 
ATOM      4  O   LIG A   1      -6.816   1.382 122.684  0.00  0.00    -0.451 OA
ATOM      5  C   LIG A   1      -6.426   2.715 122.840  0.00  0.00    +0.181 A 
ATOM      6  C   LIG A   1      -6.056   3.227 124.039  0.00  0.00    +0.211 A 
ATOM      7  C   LIG A   1      -6.051   2.261 125.180  0.00  0.00    +0.238 A 
ATOM      8  O   LIG A   1      -5.260   2.338 126.115  0.00  0.00    -0.283 OA
ATOM      9  C   LIG A   1      -8.101  -0.388 123.580  0.00  0.00    +0.092 A 
ATOM     10  C   LIG A   1      -8.673  -1.037 124.673  0.00  0.00    +0.127 A 
ATOM     11  C   LIG A   1      -8.448  -0.549 125.968  0.00  0.00    +0.092 A 
ENDROOT
BRANCH   5  12
ATOM     12  C   LIG A   1      -6.497   3.478 121.562  0.00  0.00    +0.021 A 
ATOM     13  C   LIG A   1      -7.721   3.560 120.870  0.00  0.00    +0.012 A 
ATOM     14  C   LIG A   1      -7.840   4.277 119.675  0.00  0.00    +0.001 A 
ATOM     15  C   LIG A   1      -6.733   4.928 119.142  0.00  0.00    +0.000 A 
ATOM     16  C   LIG A   1      -5.506   4.842 119.793  0.00  0.00    +0.001 A 
ATOM     17  C   LIG A   1      -5.388   4.113 120.984  0.00  0.00    +0.012 A 
ENDBRANCH   5  12
BRANCH   1  18
ATOM     18  O   LIG A   1      -7.454   1.144 127.409  0.00  0.00    -0.494 OA
ATOM     19  C   LIG A   1      -8.619   1.702 128.003  0.00  0.00    +0.277 C 
ENDBRANCH   1  18
BRANCH   6  20
ATOM     20  O   LIG A   1      -5.679   4.547 124.217  0.00  0.00    -0.488 OA
ATOM     21  C   LIG A   1      -6.497   5.288 125.118  0.00  0.00    +0.277 C 
ENDBRANCH   6  20
BRANCH  10  22
ATOM     22  O   LIG A   1      -9.490  -2.133 124.609  0.00  0.00    -0.495 OA
ATOM     23  C   LIG A   1      -9.310  -2.995 123.492  0.00  0.00    +0.277 C 
ENDBRANCH  10  22
TORSDOF 4
ENDMDL
MODEL 2
REMARK VINA RESULT:      -6.8      1.620      5.972
REMARK  Name = NuBBE_2255
REMARK  7 active torsions:
REMARK  status: ('A' for Active; 'I' for Inactive)
REMARK    1  A    between atoms: O_1  and  C_2
REMARK    2  A    between atoms: O_1  and  C_3
REMARK    3  A    between atoms: C_7  and  C_13
REMARK    4  A    between atoms: C_8  and  O_11
REMARK    5  A    between atoms: O_11  and  C_12
REMARK    6  A    between atoms: C_20  and  O_22
REMARK    7  A    between atoms: O_22  and  C_23
REMARK                            x       y       z     vdW  Elec       q    Type
REMARK                         _______ _______ _______ _____ _____    ______ ____
ROOT
ATOM      1  C   LIG A   1      -6.230   4.320 124.811  0.00  0.00    +0.138 A 
ATOM      2  C   LIG A   1      -7.135   3.254 124.759  0.00  0.00    +0.109 A 
ATOM      3  C   LIG A   1      -7.273   2.494 123.604  0.00  0.00    +0.146 A 
ATOM      4  O   LIG A   1      -8.071   1.379 123.562  0.00  0.00    -0.451 OA
ATOM      5  C   LIG A   1      -8.386   0.765 124.778  0.00  0.00    +0.181 A 
ATOM      6  C   LIG A   1      -8.364   1.434 125.956  0.00  0.00    +0.211 A 
ATOM      7  C   LIG A   1      -8.020   2.886 125.868  0.00  0.00    +0.238 A 
ATOM      8  O   LIG A   1      -8.483   3.728 126.633  0.00  0.00    -0.283 OA
ATOM      9  C   LIG A   1      -6.582   2.836 122.446  0.00  0.00    +0.092 A 
ATOM     10  C   LIG A   1      -5.703   3.918 122.466  0.00  0.00    +0.127 A 
ATOM     11  C   LIG A   1      -5.513   4.639 123.654  0.00  0.00    +0.092 A 
ENDROOT
BRANCH   5  12
ATOM     12  C   LIG A   1      -8.709  -0.681 124.613  0.00  0.00    +0.021 A 
ATOM     13  C   LIG A   1      -8.692  -1.254 123.326  0.00  0.00    +0.012 A 
ATOM     14  C   LIG A   1      -8.973  -2.609 123.124  0.00  0.00    +0.001 A 
ATOM     15  C   LIG A   1      -9.283  -3.424 124.207  0.00  0.00    +0.000 A 
ATOM     16  C   LIG A   1      -9.332  -2.877 125.486  0.00  0.00    +0.001 A 
ATOM     17  C   LIG A   1      -9.060  -1.517 125.684  0.00  0.00    +0.012 A 
ENDBRANCH   5  12
BRANCH   1  18
ATOM     18  O   LIG A   1      -6.002   4.908 126.025  0.00  0.00    -0.494 OA
ATOM     19  C   LIG A   1      -4.748   4.633 126.636  0.00  0.00    +0.277 C 
ENDBRANCH   1  18
BRANCH   6  20
ATOM     20  O   LIG A   1      -8.659   0.840 127.171  0.00  0.00    -0.488 OA
ATOM     21  C   LIG A   1      -7.564   0.755 128.079  0.00  0.00    +0.277 C 
ENDBRANCH   6  20
BRANCH  10  22
ATOM     22  O   LIG A   1      -4.952   4.353 121.407  0.00  0.00    -0.495 OA
ATOM     23  C   LIG A   1      -5.648   4.591 120.190  0.00  0.00    +0.277 C 
ENDBRANCH  10  22
TORSDOF 4
ENDMDL
MODEL 3
REMARK VINA RESULT:      -6.8      2.470      5.663
REMARK  Name = NuBBE_2255
REMARK  7 active torsions:
REMARK  status: ('A' for Active; 'I' for Inactive)
REMARK    1  A    between atoms: O_1  and  C_2
REMARK    2  A    between atoms: O_1  and  C_3
REMARK    3  A    between atoms: C_7  and  C_13
REMARK    4  A    between atoms: C_8  and  O_11
REMARK    5  A    between atoms: O_11  and  C_12
REMARK    6  A    between atoms: C_20  and  O_22
REMARK    7  A    between atoms: O_22  and  C_23
REMARK                            x       y       z     vdW  Elec       q    Type
REMARK                         _______ _______ _______ _____ _____    ______ ____
ROOT
ATOM      1  C   LIG A   1      -8.749   2.384 123.034  0.00  0.00    +0.138 A 
ATOM      2  C   LIG A   1      -7.600   2.403 123.833  0.00  0.00    +0.109 A 
ATOM      3  C   LIG A   1      -6.460   3.083 123.423  0.00  0.00    +0.146 A 
ATOM      4  O   LIG A   1      -5.361   3.209 124.234  0.00  0.00    -0.451 OA
ATOM      5  C   LIG A   1      -5.551   3.043 125.609  0.00  0.00    +0.181 A 
ATOM      6  C   LIG A   1      -6.584   2.329 126.117  0.00  0.00    +0.211 A 
ATOM      7  C   LIG A   1      -7.487   1.693 125.110  0.00  0.00    +0.238 A 
ATOM      8  O   LIG A   1      -8.059   0.625 125.308  0.00  0.00    -0.283 OA
ATOM      9  C   LIG A   1      -6.406   3.681 122.168  0.00  0.00    +0.092 A 
ATOM     10  C   LIG A   1      -7.528   3.642 121.341  0.00  0.00    +0.127 A 
ATOM     11  C   LIG A   1      -8.701   3.016 121.788  0.00  0.00    +0.092 A 
ENDROOT
BRANCH   5  12
ATOM     12  C   LIG A   1      -4.517   3.756 126.412  0.00  0.00    +0.021 A 
ATOM     13  C   LIG A   1      -4.792   5.043 126.913  0.00  0.00    +0.012 A 
ATOM     14  C   LIG A   1      -3.860   5.744 127.684  0.00  0.00    +0.001 A 
ATOM     15  C   LIG A   1      -2.625   5.172 127.970  0.00  0.00    +0.000 A 
ATOM     16  C   LIG A   1      -2.318   3.912 127.466  0.00  0.00    +0.001 A 
ATOM     17  C   LIG A   1      -3.250   3.217 126.685  0.00  0.00    +0.012 A 
ENDBRANCH   5  12
BRANCH   1  18
ATOM     18  O   LIG A   1      -9.893   1.863 123.572  0.00  0.00    -0.494 OA
ATOM     19  C   LIG A   1     -10.505   0.800 122.851  0.00  0.00    +0.277 C 
ENDBRANCH   1  18
BRANCH   6  20
ATOM     20  O   LIG A   1      -6.797   2.164 127.475  0.00  0.00    -0.488 OA
ATOM     21  C   LIG A   1      -7.854   2.950 128.017  0.00  0.00    +0.277 C 
ENDBRANCH   6  20
BRANCH  10  22
ATOM     22  O   LIG A   1      -7.617   4.199 120.094  0.00  0.00    -0.495 OA
ATOM     23  C   LIG A   1      -6.398   4.629 119.502  0.00  0.00    +0.277 C 
ENDBRANCH  10  22
TORSDOF 4
ENDMDL
MODEL 4
REMARK VINA RESULT:      -6.7      3.452      6.045
REMARK  Name = NuBBE_2255
REMARK  7 active torsions:
REMARK  status: ('A' for Active; 'I' for Inactive)
REMARK    1  A    between atoms: O_1  and  C_2
REMARK    2  A    between atoms: O_1  and  C_3
REMARK    3  A    between atoms: C_7  and  C_13
REMARK    4  A    between atoms: C_8  and  O_11
REMARK    5  A    between atoms: O_11  and  C_12
REMARK    6  A    between atoms: C_20  and  O_22
REMARK    7  A    between atoms: O_22  and  C_23
REMARK                            x       y       z     vdW  Elec       q    Type
REMARK                         _______ _______ _______ _____ _____    ______ ____
ROOT
ATOM      1  C   LIG A   1      -6.414   3.901 127.076  0.00  0.00    +0.138 A 
ATOM      2  C   LIG A   1      -6.830   2.889 126.204  0.00  0.00    +0.109 A 
ATOM      3  C   LIG A   1      -5.978   1.843 125.872  0.00  0.00    +0.146 A 
ATOM      4  O   LIG A   1      -6.397   0.783 125.108  0.00  0.00    -0.451 OA
ATOM      5  C   LIG A   1      -7.772   0.540 125.040  0.00  0.00    +0.181 A 
ATOM      6  C   LIG A   1      -8.692   1.509 125.264  0.00  0.00    +0.211 A 
ATOM      7  C   LIG A   1      -8.141   2.869 125.549  0.00  0.00    +0.238 A 
ATOM      8  O   LIG A   1      -8.714   3.903 125.217  0.00  0.00    -0.283 OA
ATOM      9  C   LIG A   1      -4.663   1.829 126.327  0.00  0.00    +0.092 A 
ATOM     10  C   LIG A   1      -4.218   2.848 127.168  0.00  0.00    +0.127 A 
ATOM     11  C   LIG A   1      -5.102   3.865 127.558  0.00  0.00    +0.092 A 
ENDROOT
BRANCH   5  12
ATOM     12  C   LIG A   1      -8.079  -0.885 124.727  0.00  0.00    +0.021 A 
ATOM     13  C   LIG A   1      -8.130  -1.830 125.770  0.00  0.00    +0.012 A 
ATOM     14  C   LIG A   1      -8.428  -3.174 125.527  0.00  0.00    +0.001 A 
ATOM     15  C   LIG A   1      -8.682  -3.606 124.229  0.00  0.00    +0.000 A 
ATOM     16  C   LIG A   1      -8.613  -2.698 123.178  0.00  0.00    +0.001 A 
ATOM     17  C   LIG A   1      -8.302  -1.354 123.424  0.00  0.00    +0.012 A 
ENDBRANCH   5  12
BRANCH   1  18
ATOM     18  O   LIG A   1      -7.352   4.796 127.511  0.00  0.00    -0.494 OA
ATOM     19  C   LIG A   1      -7.938   4.534 128.780  0.00  0.00    +0.277 C 
ENDBRANCH   1  18
BRANCH   6  20
ATOM     20  O   LIG A   1     -10.057   1.285 125.214  0.00  0.00    -0.488 OA
ATOM     21  C   LIG A   1     -10.640   1.418 123.920  0.00  0.00    +0.277 C 
ENDBRANCH   6  20
BRANCH  10  22
ATOM     22  O   LIG A   1      -2.960   2.950 127.697  0.00  0.00    -0.495 OA
ATOM     23  C   LIG A   1      -1.892   3.107 126.772  0.00  0.00    +0.277 C 
ENDBRANCH  10  22
TORSDOF 4
ENDMDL
MODEL 5
REMARK VINA RESULT:      -6.6      2.614      5.206
REMARK  Name = NuBBE_2255
REMARK  7 active torsions:
REMARK  status: ('A' for Active; 'I' for Inactive)
REMARK    1  A    between atoms: O_1  and  C_2
REMARK    2  A    between atoms: O_1  and  C_3
REMARK    3  A    between atoms: C_7  and  C_13
REMARK    4  A    between atoms: C_8  and  O_11
REMARK    5  A    between atoms: O_11  and  C_12
REMARK    6  A    between atoms: C_20  and  O_22
REMARK    7  A    between atoms: O_22  and  C_23
REMARK                            x       y       z     vdW  Elec       q    Type
REMARK                         _______ _______ _______ _____ _____    ______ ____
ROOT
ATOM      1  C   LIG A   1      -9.064  -2.180 126.162  0.00  0.00    +0.138 A 
ATOM      2  C   LIG A   1      -8.558  -0.888 126.347  0.00  0.00    +0.109 A 
ATOM      3  C   LIG A   1      -7.697  -0.605 127.399  0.00  0.00    +0.146 A 
ATOM      4  O   LIG A   1      -7.103   0.623 127.538  0.00  0.00    -0.451 OA
ATOM      5  C   LIG A   1      -7.015   1.430 126.399  0.00  0.00    +0.181 A 
ATOM      6  C   LIG A   1      -7.859   1.295 125.348  0.00  0.00    +0.211 A 
ATOM      7  C   LIG A   1      -8.919   0.253 125.500  0.00  0.00    +0.238 A 
ATOM      8  O   LIG A   1     -10.035   0.359 124.999  0.00  0.00    -0.283 OA
ATOM      9  C   LIG A   1      -7.392  -1.579 128.345  0.00  0.00    +0.092 A 
ATOM     10  C   LIG A   1      -7.914  -2.863 128.200  0.00  0.00    +0.127 A 
ATOM     11  C   LIG A   1      -8.727  -3.164 127.097  0.00  0.00    +0.092 A 
ENDROOT
BRANCH   5  12
ATOM     12  C   LIG A   1      -5.890   2.405 126.484  0.00  0.00    +0.021 A 
ATOM     13  C   LIG A   1      -4.563   1.935 126.497  0.00  0.00    +0.012 A 
ATOM     14  C   LIG A   1      -3.475   2.812 126.560  0.00  0.00    +0.001 A 
ATOM     15  C   LIG A   1      -3.692   4.184 126.613  0.00  0.00    +0.000 A 
ATOM     16  C   LIG A   1      -4.995   4.674 126.627  0.00  0.00    +0.001 A 
ATOM     17  C   LIG A   1      -6.082   3.792 126.575  0.00  0.00    +0.012 A 
ENDBRANCH   5  12
BRANCH   1  18
ATOM     18  O   LIG A   1      -9.751  -2.440 125.009  0.00  0.00    -0.494 OA
ATOM     19  C   LIG A   1      -9.108  -3.287 124.065  0.00  0.00    +0.277 C 
ENDBRANCH   1  18
BRANCH   6  20
ATOM     20  O   LIG A   1      -7.780   2.076 124.207  0.00  0.00    -0.488 OA
ATOM     21  C   LIG A   1      -7.123   1.459 123.103  0.00  0.00    +0.277 C 
ENDBRANCH   6  20
BRANCH  10  22
ATOM     22  O   LIG A   1      -7.685  -3.916 129.045  0.00  0.00    -0.495 OA
ATOM     23  C   LIG A   1      -6.680  -3.729 130.033  0.00  0.00    +0.277 C 
ENDBRANCH  10  22
TORSDOF 4
ENDMDL
MODEL 6
REMARK VINA RESULT:      -6.5      7.740      9.428
REMARK  Name = NuBBE_2255
REMARK  7 active torsions:
REMARK  status: ('A' for Active; 'I' for Inactive)
REMARK    1  A    between atoms: O_1  and  C_2
REMARK    2  A    between atoms: O_1  and  C_3
REMARK    3  A    between atoms: C_7  and  C_13
REMARK    4  A    between atoms: C_8  and  O_11
REMARK    5  A    between atoms: O_11  and  C_12
REMARK    6  A    between atoms: C_20  and  O_22
REMARK    7  A    between atoms: O_22  and  C_23
REMARK                            x       y       z     vdW  Elec       q    Type
REMARK                         _______ _______ _______ _____ _____    ______ ____
ROOT
ATOM      1  C   LIG A   1      -5.393   4.476 130.523  0.00  0.00    +0.138 A 
ATOM      2  C   LIG A   1      -6.684   4.988 130.697  0.00  0.00    +0.109 A 
ATOM      3  C   LIG A   1      -6.888   6.345 130.913  0.00  0.00    +0.146 A 
ATOM      4  O   LIG A   1      -8.146   6.886 130.978  0.00  0.00    -0.451 OA
ATOM      5  C   LIG A   1      -9.191   6.163 130.394  0.00  0.00    +0.181 A 
ATOM      6  C   LIG A   1      -9.132   4.822 130.211  0.00  0.00    +0.211 A 
ATOM      7  C   LIG A   1      -7.891   4.156 130.713  0.00  0.00    +0.238 A 
ATOM      8  O   LIG A   1      -7.882   3.012 131.158  0.00  0.00    -0.283 OA
ATOM      9  C   LIG A   1      -5.806   7.209 131.052  0.00  0.00    +0.092 A 
ATOM     10  C   LIG A   1      -4.511   6.713 130.918  0.00  0.00    +0.127 A 
ATOM     11  C   LIG A   1      -4.311   5.355 130.630  0.00  0.00    +0.092 A 
ENDROOT
BRANCH   5  12
ATOM     12  C   LIG A   1     -10.327   7.040 129.988  0.00  0.00    +0.021 A 
ATOM     13  C   LIG A   1     -10.212   7.834 128.831  0.00  0.00    +0.012 A 
ATOM     14  C   LIG A   1     -11.256   8.660 128.403  0.00  0.00    +0.001 A 
ATOM     15  C   LIG A   1     -12.442   8.712 129.127  0.00  0.00    +0.000 A 
ATOM     16  C   LIG A   1     -12.572   7.956 130.288  0.00  0.00    +0.001 A 
ATOM     17  C   LIG A   1     -11.520   7.139 130.720  0.00  0.00    +0.012 A 
ENDBRANCH   5  12
BRANCH   1  18
ATOM     18  O   LIG A   1      -5.269   3.173 130.129  0.00  0.00    -0.494 OA
ATOM     19  C   LIG A   1      -4.305   2.390 130.822  0.00  0.00    +0.277 C 
ENDBRANCH   1  18
BRANCH   6  20
ATOM     20  O   LIG A   1     -10.150   4.090 129.624  0.00  0.00    -0.488 OA
ATOM     21  C   LIG A   1     -11.054   3.478 130.540  0.00  0.00    +0.277 C 
ENDBRANCH   6  20
BRANCH  10  22
ATOM     22  O   LIG A   1      -3.362   7.452 131.016  0.00  0.00    -0.495 OA
ATOM     23  C   LIG A   1      -2.137   6.734 130.950  0.00  0.00    +0.277 C 
ENDBRANCH  10  22
TORSDOF 4
ENDMDL
MODEL 7
REMARK VINA RESULT:      -6.5      2.339      6.703
REMARK  Name = NuBBE_2255
REMARK  7 active torsions:
REMARK  status: ('A' for Active; 'I' for Inactive)
REMARK    1  A    between atoms: O_1  and  C_2
REMARK    2  A    between atoms: O_1  and  C_3
REMARK    3  A    between atoms: C_7  and  C_13
REMARK    4  A    between atoms: C_8  and  O_11
REMARK    5  A    between atoms: O_11  and  C_12
REMARK    6  A    between atoms: C_20  and  O_22
REMARK    7  A    between atoms: O_22  and  C_23
REMARK                            x       y       z     vdW  Elec       q    Type
REMARK                         _______ _______ _______ _____ _____    ______ ____
ROOT
ATOM      1  C   LIG A   1      -8.208   3.823 120.508  0.00  0.00    +0.138 A 
ATOM      2  C   LIG A   1      -7.812   3.277 121.734  0.00  0.00    +0.109 A 
ATOM      3  C   LIG A   1      -6.516   3.446 122.203  0.00  0.00    +0.146 A 
ATOM      4  O   LIG A   1      -6.134   3.016 123.448  0.00  0.00    -0.451 OA
ATOM      5  C   LIG A   1      -7.140   2.814 124.398  0.00  0.00    +0.181 A 
ATOM      6  C   LIG A   1      -8.424   2.559 124.051  0.00  0.00    +0.211 A 
ATOM      7  C   LIG A   1      -8.690   2.466 122.582  0.00  0.00    +0.238 A 
ATOM      8  O   LIG A   1      -9.547   1.726 122.106  0.00  0.00    -0.283 OA
ATOM      9  C   LIG A   1      -5.558   4.083 121.419  0.00  0.00    +0.092 A 
ATOM     10  C   LIG A   1      -5.922   4.602 120.178  0.00  0.00    +0.127 A 
ATOM     11  C   LIG A   1      -7.250   4.492 119.739  0.00  0.00    +0.092 A 
ENDROOT
BRANCH   5  12
ATOM     12  C   LIG A   1      -6.632   2.941 125.794  0.00  0.00    +0.021 A 
ATOM     13  C   LIG A   1      -5.926   1.870 126.376  0.00  0.00    +0.012 A 
ATOM     14  C   LIG A   1      -5.418   1.949 127.677  0.00  0.00    +0.001 A 
ATOM     15  C   LIG A   1      -5.607   3.104 128.427  0.00  0.00    +0.000 A 
ATOM     16  C   LIG A   1      -6.323   4.167 127.885  0.00  0.00    +0.001 A 
ATOM     17  C   LIG A   1      -6.840   4.080 126.586  0.00  0.00    +0.012 A 
ENDBRANCH   5  12
BRANCH   1  18
ATOM     18  O   LIG A   1      -9.537   3.785 120.190  0.00  0.00    -0.494 OA
ATOM     19  C   LIG A   1      -9.908   4.367 118.946  0.00  0.00    +0.277 C 
ENDBRANCH   1  18
BRANCH   6  20
ATOM     20  O   LIG A   1      -9.436   2.369 124.976  0.00  0.00    -0.488 OA
ATOM     21  C   LIG A   1      -9.599   1.025 125.420  0.00  0.00    +0.277 C 
ENDBRANCH   6  20
BRANCH  10  22
ATOM     22  O   LIG A   1      -5.089   5.262 119.316  0.00  0.00    -0.495 OA
ATOM     23  C   LIG A   1      -5.710   6.005 118.275  0.00  0.00    +0.277 C 
ENDBRANCH  10  22
TORSDOF 4
ENDMDL
MODEL 8
REMARK VINA RESULT:      -6.5      4.531      8.657
REMARK  Name = NuBBE_2255
REMARK  7 active torsions:
REMARK  status: ('A' for Active; 'I' for Inactive)
REMARK    1  A    between atoms: O_1  and  C_2
REMARK    2  A    between atoms: O_1  and  C_3
REMARK    3  A    between atoms: C_7  and  C_13
REMARK    4  A    between atoms: C_8  and  O_11
REMARK    5  A    between atoms: O_11  and  C_12
REMARK    6  A    between atoms: C_20  and  O_22
REMARK    7  A    between atoms: O_22  and  C_23
REMARK                            x       y       z     vdW  Elec       q    Type
REMARK                         _______ _______ _______ _____ _____    ______ ____
ROOT
ATOM      1  C   LIG A   1      -7.928  -0.807 126.217  0.00  0.00    +0.138 A 
ATOM      2  C   LIG A   1      -7.879  -1.261 127.540  0.00  0.00    +0.109 A 
ATOM      3  C   LIG A   1      -8.226  -2.569 127.855  0.00  0.00    +0.146 A 
ATOM      4  O   LIG A   1      -8.083  -3.070 129.124  0.00  0.00    -0.451 OA
ATOM      5  C   LIG A   1      -7.188  -2.418 129.978  0.00  0.00    +0.181 A 
ATOM      6  C   LIG A   1      -6.842  -1.119 129.811  0.00  0.00    +0.211 A 
ATOM      7  C   LIG A   1      -7.512  -0.412 128.677  0.00  0.00    +0.238 A 
ATOM      8  O   LIG A   1      -7.787   0.784 128.706  0.00  0.00    -0.283 OA
ATOM      9  C   LIG A   1      -8.719  -3.426 126.875  0.00  0.00    +0.092 A 
ATOM     10  C   LIG A   1      -8.811  -2.980 125.558  0.00  0.00    +0.127 A 
ATOM     11  C   LIG A   1      -8.392  -1.682 125.230  0.00  0.00    +0.092 A 
ENDROOT
BRANCH   5  12
ATOM     12  C   LIG A   1      -6.663  -3.321 131.042  0.00  0.00    +0.021 A 
ATOM     13  C   LIG A   1      -5.807  -4.382 130.691  0.00  0.00    +0.012 A 
ATOM     14  C   LIG A   1      -5.277  -5.246 131.655  0.00  0.00    +0.001 A 
ATOM     15  C   LIG A   1      -5.596  -5.068 132.997  0.00  0.00    +0.000 A 
ATOM     16  C   LIG A   1      -6.461  -4.043 133.368  0.00  0.00    +0.001 A 
ATOM     17  C   LIG A   1      -6.998  -3.186 132.398  0.00  0.00    +0.012 A 
ENDBRANCH   5  12
BRANCH   1  18
ATOM     18  O   LIG A   1      -7.397   0.424 125.943  0.00  0.00    -0.494 OA
ATOM     19  C   LIG A   1      -8.198   1.299 125.159  0.00  0.00    +0.277 C 
ENDBRANCH   1  18
BRANCH   6  20
ATOM     20  O   LIG A   1      -5.949  -0.459 130.638  0.00  0.00    -0.488 OA
ATOM     21  C   LIG A   1      -4.634  -0.314 130.107  0.00  0.00    +0.277 C 
ENDBRANCH   6  20
BRANCH  10  22
ATOM     22  O   LIG A   1      -9.261  -3.720 124.498  0.00  0.00    -0.495 OA
ATOM     23  C   LIG A   1      -9.344  -3.051 123.246  0.00  0.00    +0.277 C 
ENDBRANCH  10  22
TORSDOF 4
ENDMDL
MODEL 9
REMARK VINA RESULT:      -6.4      4.955      7.643
REMARK  Name = NuBBE_2255
REMARK  7 active torsions:
REMARK  status: ('A' for Active; 'I' for Inactive)
REMARK    1  A    between atoms: O_1  and  C_2
REMARK    2  A    between atoms: O_1  and  C_3
REMARK    3  A    between atoms: C_7  and  C_13
REMARK    4  A    between atoms: C_8  and  O_11
REMARK    5  A    between atoms: O_11  and  C_12
REMARK    6  A    between atoms: C_20  and  O_22
REMARK    7  A    between atoms: O_22  and  C_23
REMARK                            x       y       z     vdW  Elec       q    Type
REMARK                         _______ _______ _______ _____ _____    ______ ____
ROOT
ATOM      1  C   LIG A   1      -6.641   3.035 130.080  0.00  0.00    +0.138 A 
ATOM      2  C   LIG A   1      -7.403   4.175 129.801  0.00  0.00    +0.109 A 
ATOM      3  C   LIG A   1      -8.061   4.310 128.585  0.00  0.00    +0.146 A 
ATOM      4  O   LIG A   1      -8.901   5.364 128.330  0.00  0.00    -0.451 OA
ATOM      5  C   LIG A   1      -9.431   6.048 129.428  0.00  0.00    +0.181 A 
ATOM      6  C   LIG A   1      -8.828   6.051 130.640  0.00  0.00    +0.211 A 
ATOM      7  C   LIG A   1      -7.532   5.310 130.719  0.00  0.00    +0.238 A 
ATOM      8  O   LIG A   1      -6.614   5.650 131.460  0.00  0.00    -0.283 OA
ATOM      9  C   LIG A   1      -7.901   3.356 127.584  0.00  0.00    +0.092 A 
ATOM     10  C   LIG A   1      -7.116   2.231 127.829  0.00  0.00    +0.127 A 
ATOM     11  C   LIG A   1      -6.510   2.063 129.083  0.00  0.00    +0.092 A 
ENDROOT
BRANCH   5  12
ATOM     12  C   LIG A   1     -10.720   6.724 129.103  0.00  0.00    +0.021 A 
ATOM     13  C   LIG A   1     -10.704   8.001 128.511  0.00  0.00    +0.012 A 
ATOM     14  C   LIG A   1     -11.886   8.668 128.175  0.00  0.00    +0.001 A 
ATOM     15  C   LIG A   1     -13.116   8.070 128.427  0.00  0.00    +0.000 A 
ATOM     16  C   LIG A   1     -13.161   6.820 129.035  0.00  0.00    +0.001 A 
ATOM     17  C   LIG A   1     -11.974   6.160 129.381  0.00  0.00    +0.012 A 
ENDBRANCH   5  12
BRANCH   1  18
ATOM     18  O   LIG A   1      -6.175   2.873 131.355  0.00  0.00    -0.494 OA
ATOM     19  C   LIG A   1      -6.828   1.891 132.149  0.00  0.00    +0.277 C 
ENDBRANCH   1  18
BRANCH   6  20
ATOM     20  O   LIG A   1      -9.343   6.711 131.743  0.00  0.00    -0.488 OA
ATOM     21  C   LIG A   1     -10.015   5.875 132.682  0.00  0.00    +0.277 C 
ENDBRANCH   6  20
BRANCH  10  22
ATOM     22  O   LIG A   1      -6.886   1.213 126.943  0.00  0.00    -0.495 OA
ATOM     23  C   LIG A   1      -6.922  -0.107 127.468  0.00  0.00    +0.277 C 
ENDBRANCH  10  22
TORSDOF 4
ENDMDL
