MODEL 1
REMARK VINA RESULT:      -8.1      0.000      0.000
REMARK  Name = NuBBE_263
REMARK  11 active torsions:
REMARK  status: ('A' for Active; 'I' for Inactive)
REMARK    1  A    between atoms: C_1  and  O_2
REMARK    2  A    between atoms: O_2  and  C_3
REMARK    3  A    between atoms: C_5  and  C_6
REMARK    4  A    between atoms: C_6  and  C_7
REMARK    5  A    between atoms: C_9  and  O_11
REMARK    6  A    between atoms: C_12  and  C_13
REMARK    7  A    between atoms: C_15  and  C_17
REMARK    8  A    between atoms: C_19  and  O_20
REMARK    9  A    between atoms: O_20  and  C_21
REMARK   10  A    between atoms: C_22  and  O_23
REMARK   11  A    between atoms: O_23  and  C_24
REMARK                            x       y       z     vdW  Elec       q    Type
REMARK                         _______ _______ _______ _____ _____    ______ ____
ROOT
ATOM      1  C   LIG A   1      -9.044  -0.730 123.556  0.00  0.00    +0.159 C 
ATOM      2  C   LIG A   1      -8.050  -1.525 123.136  0.00  0.00    +0.032 C 
ATOM      3  C   LIG A   1      -6.977  -2.055 124.078  0.00  0.00    +0.026 C 
ATOM      4  C   LIG A   1      -6.662  -0.931 125.095  0.00  0.00    +0.136 C 
ATOM      5  C   LIG A   1      -7.582  -3.177 125.022  0.00  0.00    +0.007 C 
ATOM      6  C   LIG A   1      -8.638  -4.086 124.378  0.00  0.00    +0.009 C 
ATOM      7  C   LIG A   1      -8.167  -2.408 126.264  0.00  0.00    +0.036 C 
ATOM      8  C   LIG A   1      -7.949  -0.920 125.908  0.00  0.00    +0.100 C 
ATOM      9  C   LIG A   1      -9.110  -0.460 125.044  0.00  0.00    +0.203 C 
ATOM     10  O   LIG A   1     -10.116   0.023 125.586  0.00  0.00    -0.288 OA
ENDROOT
BRANCH   7  11
ATOM     11  C   LIG A   1      -7.515  -2.720 127.611  0.00  0.00    -0.040 A 
ATOM     12  C   LIG A   1      -6.144  -2.538 127.853  0.00  0.00    +0.053 A 
ATOM     13  C   LIG A   1      -5.583  -2.687 129.130  0.00  0.00    +0.162 A 
ATOM     14  C   LIG A   1      -6.399  -3.059 130.203  0.00  0.00    +0.162 A 
ATOM     15  C   LIG A   1      -7.762  -3.287 129.972  0.00  0.00    +0.050 A 
ATOM     16  C   LIG A   1      -8.312  -3.117 128.693  0.00  0.00    +0.008 A 
BRANCH  13  17
ATOM     17  O   LIG A   1      -4.223  -2.497 129.143  0.00  0.00    -0.491 OA
ATOM     18  C   LIG A   1      -3.398  -3.654 129.112  0.00  0.00    +0.277 C 
ENDBRANCH  13  17
BRANCH  14  19
ATOM     19  O   LIG A   1      -5.842  -3.124 131.449  0.00  0.00    -0.491 OA
ATOM     20  C   LIG A   1      -5.628  -4.413 132.002  0.00  0.00    +0.277 C 
ENDBRANCH  14  19
ENDBRANCH   7  11
BRANCH   1  22
ATOM     21  C   LIG A   1     -10.075   1.116 122.476  0.00  0.00    +0.277 C 
ATOM     22  O   LIG A   1     -10.005  -0.295 122.654  0.00  0.00    -0.492 OA
ENDBRANCH   1  22
BRANCH   4  23
ATOM     23  O   LIG A   1      -6.387   0.331 124.502  0.00  0.00    -0.390 OA
ATOM     24  H   LIG A   1      -6.325   0.996 125.208  0.00  0.00    +0.210 HD
ENDBRANCH   4  23
BRANCH   3  25
ATOM     25  C   LIG A   1      -5.704  -2.538 123.326  0.00  0.00    +0.040 C 
BRANCH  25  26
ATOM     26  C   LIG A   1      -4.841  -3.540 124.058  0.00  0.00    -0.034 C 
ATOM     27  C   LIG A   1      -4.513  -4.756 123.599  0.00  0.00    +0.004 C 
ENDBRANCH  25  26
ENDBRANCH   3  25
TORSDOF 7
ENDMDL
MODEL 2
REMARK VINA RESULT:      -7.9      3.135      6.178
REMARK  Name = NuBBE_263
REMARK  11 active torsions:
REMARK  status: ('A' for Active; 'I' for Inactive)
REMARK    1  A    between atoms: C_1  and  O_2
REMARK    2  A    between atoms: O_2  and  C_3
REMARK    3  A    between atoms: C_5  and  C_6
REMARK    4  A    between atoms: C_6  and  C_7
REMARK    5  A    between atoms: C_9  and  O_11
REMARK    6  A    between atoms: C_12  and  C_13
REMARK    7  A    between atoms: C_15  and  C_17
REMARK    8  A    between atoms: C_19  and  O_20
REMARK    9  A    between atoms: O_20  and  C_21
REMARK   10  A    between atoms: C_22  and  O_23
REMARK   11  A    between atoms: O_23  and  C_24
REMARK                            x       y       z     vdW  Elec       q    Type
REMARK                         _______ _______ _______ _____ _____    ______ ____
ROOT
ATOM      1  C   LIG A   1      -8.526  -2.728 125.460  0.00  0.00    +0.159 C 
ATOM      2  C   LIG A   1      -7.297  -3.030 125.017  0.00  0.00    +0.032 C 
ATOM      3  C   LIG A   1      -6.461  -2.048 124.208  0.00  0.00    +0.026 C 
ATOM      4  C   LIG A   1      -7.427  -1.278 123.276  0.00  0.00    +0.136 C 
ATOM      5  C   LIG A   1      -5.924  -0.884 125.142  0.00  0.00    +0.007 C 
ATOM      6  C   LIG A   1      -5.555  -1.300 126.573  0.00  0.00    +0.009 C 
ATOM      7  C   LIG A   1      -7.052   0.212 125.135  0.00  0.00    +0.036 C 
ATOM      8  C   LIG A   1      -8.179  -0.430 124.293  0.00  0.00    +0.100 C 
ATOM      9  C   LIG A   1      -9.010  -1.317 125.203  0.00  0.00    +0.203 C 
ATOM     10  O   LIG A   1      -9.993  -0.836 125.786  0.00  0.00    -0.288 OA
ENDROOT
BRANCH   7  11
ATOM     11  C   LIG A   1      -6.666   1.565 124.540  0.00  0.00    -0.040 A 
ATOM     12  C   LIG A   1      -5.866   2.496 125.221  0.00  0.00    +0.053 A 
ATOM     13  C   LIG A   1      -5.397   3.669 124.612  0.00  0.00    +0.162 A 
ATOM     14  C   LIG A   1      -5.754   3.950 123.289  0.00  0.00    +0.162 A 
ATOM     15  C   LIG A   1      -6.587   3.053 122.606  0.00  0.00    +0.050 A 
ATOM     16  C   LIG A   1      -7.034   1.875 123.223  0.00  0.00    +0.008 A 
BRANCH  13  17
ATOM     17  O   LIG A   1      -4.661   4.456 125.462  0.00  0.00    -0.491 OA
ATOM     18  C   LIG A   1      -3.785   3.803 126.371  0.00  0.00    +0.277 C 
ENDBRANCH  13  17
BRANCH  14  19
ATOM     19  O   LIG A   1      -5.223   5.059 122.696  0.00  0.00    -0.491 OA
ATOM     20  C   LIG A   1      -4.557   4.881 121.456  0.00  0.00    +0.277 C 
ENDBRANCH  14  19
ENDBRANCH   7  11
BRANCH   1  22
ATOM     21  C   LIG A   1      -8.853  -3.741 127.582  0.00  0.00    +0.277 C 
ATOM     22  O   LIG A   1      -9.233  -3.656 126.212  0.00  0.00    -0.492 OA
ENDBRANCH   1  22
BRANCH   4  23
ATOM     23  O   LIG A   1      -8.296  -2.110 122.521  0.00  0.00    -0.390 OA
ATOM     24  H   LIG A   1      -7.877  -2.981 122.419  0.00  0.00    +0.210 HD
ENDBRANCH   4  23
BRANCH   3  25
ATOM     25  C   LIG A   1      -5.317  -2.746 123.416  0.00  0.00    +0.040 C 
BRANCH  25  26
ATOM     26  C   LIG A   1      -4.949  -4.140 123.872  0.00  0.00    -0.034 C 
ATOM     27  C   LIG A   1      -3.829  -4.792 123.531  0.00  0.00    +0.004 C 
ENDBRANCH  25  26
ENDBRANCH   3  25
TORSDOF 7
ENDMDL
MODEL 3
REMARK VINA RESULT:      -7.9      0.982      1.797
REMARK  Name = NuBBE_263
REMARK  11 active torsions:
REMARK  status: ('A' for Active; 'I' for Inactive)
REMARK    1  A    between atoms: C_1  and  O_2
REMARK    2  A    between atoms: O_2  and  C_3
REMARK    3  A    between atoms: C_5  and  C_6
REMARK    4  A    between atoms: C_6  and  C_7
REMARK    5  A    between atoms: C_9  and  O_11
REMARK    6  A    between atoms: C_12  and  C_13
REMARK    7  A    between atoms: C_15  and  C_17
REMARK    8  A    between atoms: C_19  and  O_20
REMARK    9  A    between atoms: O_20  and  C_21
REMARK   10  A    between atoms: C_22  and  O_23
REMARK   11  A    between atoms: O_23  and  C_24
REMARK                            x       y       z     vdW  Elec       q    Type
REMARK                         _______ _______ _______ _____ _____    ______ ____
ROOT
ATOM      1  C   LIG A   1      -9.059  -0.952 123.599  0.00  0.00    +0.159 C 
ATOM      2  C   LIG A   1      -8.052  -1.701 123.129  0.00  0.00    +0.032 C 
ATOM      3  C   LIG A   1      -6.829  -2.043 123.970  0.00  0.00    +0.026 C 
ATOM      4  C   LIG A   1      -6.502  -0.800 124.832  0.00  0.00    +0.136 C 
ATOM      5  C   LIG A   1      -7.208  -3.110 125.080  0.00  0.00    +0.007 C 
ATOM      6  C   LIG A   1      -8.243  -4.164 124.661  0.00  0.00    +0.009 C 
ATOM      7  C   LIG A   1      -7.710  -2.271 126.313  0.00  0.00    +0.036 C 
ATOM      8  C   LIG A   1      -7.678  -0.813 125.799  0.00  0.00    +0.100 C 
ATOM      9  C   LIG A   1      -8.972  -0.540 125.053  0.00  0.00    +0.203 C 
ATOM     10  O   LIG A   1      -9.946  -0.089 125.674  0.00  0.00    -0.288 OA
ENDROOT
BRANCH   7  11
ATOM     11  C   LIG A   1      -6.875  -2.390 127.587  0.00  0.00    -0.040 A 
ATOM     12  C   LIG A   1      -7.445  -2.582 128.855  0.00  0.00    +0.053 A 
ATOM     13  C   LIG A   1      -6.668  -2.837 129.995  0.00  0.00    +0.162 A 
ATOM     14  C   LIG A   1      -5.274  -2.874 129.886  0.00  0.00    +0.162 A 
ATOM     15  C   LIG A   1      -4.685  -2.643 128.636  0.00  0.00    +0.050 A 
ATOM     16  C   LIG A   1      -5.475  -2.407 127.501  0.00  0.00    +0.008 A 
BRANCH  13  17
ATOM     17  O   LIG A   1      -7.419  -2.960 131.138  0.00  0.00    -0.491 OA
ATOM     18  C   LIG A   1      -7.576  -1.803 131.949  0.00  0.00    +0.277 C 
ENDBRANCH  13  17
BRANCH  14  19
ATOM     19  O   LIG A   1      -4.546  -3.198 130.995  0.00  0.00    -0.491 OA
ATOM     20  C   LIG A   1      -3.780  -2.167 131.598  0.00  0.00    +0.277 C 
ENDBRANCH  14  19
ENDBRANCH   7  11
BRANCH   1  22
ATOM     21  C   LIG A   1     -10.268   0.653 122.334  0.00  0.00    +0.277 C 
ATOM     22  O   LIG A   1     -10.158  -0.692 122.792  0.00  0.00    -0.492 OA
ENDBRANCH   1  22
BRANCH   4  23
ATOM     23  O   LIG A   1      -6.420   0.413 124.098  0.00  0.00    -0.390 OA
ATOM     24  H   LIG A   1      -7.319   0.767 123.986  0.00  0.00    +0.210 HD
ENDBRANCH   4  23
BRANCH   3  25
ATOM     25  C   LIG A   1      -5.615  -2.493 123.107  0.00  0.00    +0.040 C 
BRANCH  25  26
ATOM     26  C   LIG A   1      -4.586  -3.351 123.805  0.00  0.00    -0.034 C 
ATOM     27  C   LIG A   1      -4.327  -4.634 123.517  0.00  0.00    +0.004 C 
ENDBRANCH  25  26
ENDBRANCH   3  25
TORSDOF 7
ENDMDL
MODEL 4
REMARK VINA RESULT:      -7.5      1.619      2.145
REMARK  Name = NuBBE_263
REMARK  11 active torsions:
REMARK  status: ('A' for Active; 'I' for Inactive)
REMARK    1  A    between atoms: C_1  and  O_2
REMARK    2  A    between atoms: O_2  and  C_3
REMARK    3  A    between atoms: C_5  and  C_6
REMARK    4  A    between atoms: C_6  and  C_7
REMARK    5  A    between atoms: C_9  and  O_11
REMARK    6  A    between atoms: C_12  and  C_13
REMARK    7  A    between atoms: C_15  and  C_17
REMARK    8  A    between atoms: C_19  and  O_20
REMARK    9  A    between atoms: O_20  and  C_21
REMARK   10  A    between atoms: C_22  and  O_23
REMARK   11  A    between atoms: O_23  and  C_24
REMARK                            x       y       z     vdW  Elec       q    Type
REMARK                         _______ _______ _______ _____ _____    ______ ____
ROOT
ATOM      1  C   LIG A   1      -8.891  -0.680 124.001  0.00  0.00    +0.159 C 
ATOM      2  C   LIG A   1      -7.756  -1.367 123.810  0.00  0.00    +0.032 C 
ATOM      3  C   LIG A   1      -6.776  -1.648 124.941  0.00  0.00    +0.026 C 
ATOM      4  C   LIG A   1      -6.754  -0.398 125.853  0.00  0.00    +0.136 C 
ATOM      5  C   LIG A   1      -7.368  -2.746 125.920  0.00  0.00    +0.007 C 
ATOM      6  C   LIG A   1      -8.198  -3.852 125.251  0.00  0.00    +0.009 C 
ATOM      7  C   LIG A   1      -8.219  -1.949 126.977  0.00  0.00    +0.036 C 
ATOM      8  C   LIG A   1      -8.137  -0.487 126.482  0.00  0.00    +0.100 C 
ATOM      9  C   LIG A   1      -9.208  -0.279 125.425  0.00  0.00    +0.203 C 
ATOM     10  O   LIG A   1     -10.334   0.111 125.771  0.00  0.00    -0.288 OA
ENDROOT
BRANCH   7  11
ATOM     11  C   LIG A   1      -7.737  -2.035 128.424  0.00  0.00    -0.040 A 
ATOM     12  C   LIG A   1      -7.801  -0.951 129.314  0.00  0.00    +0.053 A 
ATOM     13  C   LIG A   1      -7.494  -1.081 130.676  0.00  0.00    +0.162 A 
ATOM     14  C   LIG A   1      -7.079  -2.320 131.175  0.00  0.00    +0.162 A 
ATOM     15  C   LIG A   1      -6.968  -3.403 130.294  0.00  0.00    +0.050 A 
ATOM     16  C   LIG A   1      -7.295  -3.263 128.937  0.00  0.00    +0.008 A 
BRANCH  13  17
ATOM     17  O   LIG A   1      -7.588   0.105 131.361  0.00  0.00    -0.491 OA
ATOM     18  C   LIG A   1      -8.880   0.521 131.783  0.00  0.00    +0.277 C 
ENDBRANCH  13  17
BRANCH  14  19
ATOM     19  O   LIG A   1      -6.859  -2.437 132.518  0.00  0.00    -0.491 OA
ATOM     20  C   LIG A   1      -7.877  -3.044 133.296  0.00  0.00    +0.277 C 
ENDBRANCH  14  19
ENDBRANCH   7  11
BRANCH   1  22
ATOM     21  C   LIG A   1      -9.973   0.891 122.587  0.00  0.00    +0.277 C 
ATOM     22  O   LIG A   1      -9.757  -0.473 122.935  0.00  0.00    -0.492 OA
ENDBRANCH   1  22
BRANCH   4  23
ATOM     23  O   LIG A   1      -6.554   0.826 125.160  0.00  0.00    -0.390 OA
ATOM     24  H   LIG A   1      -5.925   0.671 124.436  0.00  0.00    +0.210 HD
ENDBRANCH   4  23
BRANCH   3  25
ATOM     25  C   LIG A   1      -5.356  -2.020 124.424  0.00  0.00    +0.040 C 
BRANCH  25  26
ATOM     26  C   LIG A   1      -5.282  -3.192 123.473  0.00  0.00    -0.034 C 
ATOM     27  C   LIG A   1      -4.419  -4.213 123.572  0.00  0.00    +0.004 C 
ENDBRANCH  25  26
ENDBRANCH   3  25
TORSDOF 7
ENDMDL
MODEL 5
REMARK VINA RESULT:      -7.0      3.398      5.387
REMARK  Name = NuBBE_263
REMARK  11 active torsions:
REMARK  status: ('A' for Active; 'I' for Inactive)
REMARK    1  A    between atoms: C_1  and  O_2
REMARK    2  A    between atoms: O_2  and  C_3
REMARK    3  A    between atoms: C_5  and  C_6
REMARK    4  A    between atoms: C_6  and  C_7
REMARK    5  A    between atoms: C_9  and  O_11
REMARK    6  A    between atoms: C_12  and  C_13
REMARK    7  A    between atoms: C_15  and  C_17
REMARK    8  A    between atoms: C_19  and  O_20
REMARK    9  A    between atoms: O_20  and  C_21
REMARK   10  A    between atoms: C_22  and  O_23
REMARK   11  A    between atoms: O_23  and  C_24
REMARK                            x       y       z     vdW  Elec       q    Type
REMARK                         _______ _______ _______ _____ _____    ______ ____
ROOT
ATOM      1  C   LIG A   1      -8.633  -2.121 124.669  0.00  0.00    +0.159 C 
ATOM      2  C   LIG A   1      -7.390  -2.623 124.678  0.00  0.00    +0.032 C 
ATOM      3  C   LIG A   1      -6.154  -1.734 124.679  0.00  0.00    +0.026 C 
ATOM      4  C   LIG A   1      -6.464  -0.512 123.781  0.00  0.00    +0.136 C 
ATOM      5  C   LIG A   1      -5.972  -1.048 126.098  0.00  0.00    +0.007 C 
ATOM      6  C   LIG A   1      -6.373  -1.908 127.305  0.00  0.00    +0.009 C 
ATOM      7  C   LIG A   1      -6.815   0.279 126.031  0.00  0.00    +0.036 C 
ATOM      8  C   LIG A   1      -7.488   0.214 124.641  0.00  0.00    +0.100 C 
ATOM      9  C   LIG A   1      -8.755  -0.615 124.761  0.00  0.00    +0.203 C 
ATOM     10  O   LIG A   1      -9.826  -0.051 125.033  0.00  0.00    -0.288 OA
ENDROOT
BRANCH   7  11
ATOM     11  C   LIG A   1      -6.025   1.580 126.166  0.00  0.00    -0.040 A 
ATOM     12  C   LIG A   1      -6.612   2.846 126.019  0.00  0.00    +0.053 A 
ATOM     13  C   LIG A   1      -5.914   4.032 126.288  0.00  0.00    +0.162 A 
ATOM     14  C   LIG A   1      -4.575   3.969 126.688  0.00  0.00    +0.162 A 
ATOM     15  C   LIG A   1      -3.959   2.715 126.799  0.00  0.00    +0.050 A 
ATOM     16  C   LIG A   1      -4.675   1.537 126.544  0.00  0.00    +0.008 A 
BRANCH  13  17
ATOM     17  O   LIG A   1      -6.660   5.159 126.049  0.00  0.00    -0.491 OA
ATOM     18  C   LIG A   1      -8.045   4.986 125.781  0.00  0.00    +0.277 C 
ENDBRANCH  13  17
BRANCH  14  19
ATOM     19  O   LIG A   1      -3.940   5.132 127.016  0.00  0.00    -0.491 OA
ATOM     20  C   LIG A   1      -3.908   5.495 128.387  0.00  0.00    +0.277 C 
ENDBRANCH  14  19
ENDBRANCH   7  11
BRANCH   1  22
ATOM     21  C   LIG A   1      -9.928  -3.728 123.494  0.00  0.00    +0.277 C 
ATOM     22  O   LIG A   1      -9.723  -2.981 124.690  0.00  0.00    -0.492 OA
ENDBRANCH   1  22
BRANCH   4  23
ATOM     23  O   LIG A   1      -6.977  -0.846 122.499  0.00  0.00    -0.390 OA
ATOM     24  H   LIG A   1      -6.230  -1.066 121.916  0.00  0.00    +0.210 HD
ENDBRANCH   4  23
BRANCH   3  25
ATOM     25  C   LIG A   1      -4.873  -2.489 124.218  0.00  0.00    +0.040 C 
BRANCH  25  26
ATOM     26  C   LIG A   1      -5.043  -3.959 123.912  0.00  0.00    -0.034 C 
ATOM     27  C   LIG A   1      -4.072  -4.774 123.477  0.00  0.00    +0.004 C 
ENDBRANCH  25  26
ENDBRANCH   3  25
TORSDOF 7
ENDMDL
MODEL 6
REMARK VINA RESULT:      -6.9      8.780     10.261
REMARK  Name = NuBBE_263
REMARK  11 active torsions:
REMARK  status: ('A' for Active; 'I' for Inactive)
REMARK    1  A    between atoms: C_1  and  O_2
REMARK    2  A    between atoms: O_2  and  C_3
REMARK    3  A    between atoms: C_5  and  C_6
REMARK    4  A    between atoms: C_6  and  C_7
REMARK    5  A    between atoms: C_9  and  O_11
REMARK    6  A    between atoms: C_12  and  C_13
REMARK    7  A    between atoms: C_15  and  C_17
REMARK    8  A    between atoms: C_19  and  O_20
REMARK    9  A    between atoms: O_20  and  C_21
REMARK   10  A    between atoms: C_22  and  O_23
REMARK   11  A    between atoms: O_23  and  C_24
REMARK                            x       y       z     vdW  Elec       q    Type
REMARK                         _______ _______ _______ _____ _____    ______ ____
ROOT
ATOM      1  C   LIG A   1     -11.050   5.882 129.912  0.00  0.00    +0.159 C 
ATOM      2  C   LIG A   1     -10.904   4.873 130.783  0.00  0.00    +0.032 C 
ATOM      3  C   LIG A   1      -9.537   4.395 131.252  0.00  0.00    +0.026 C 
ATOM      4  C   LIG A   1      -8.576   4.488 130.042  0.00  0.00    +0.136 C 
ATOM      5  C   LIG A   1      -8.898   5.451 132.248  0.00  0.00    +0.007 C 
ATOM      6  C   LIG A   1      -9.887   6.166 133.179  0.00  0.00    +0.009 C 
ATOM      7  C   LIG A   1      -8.127   6.474 131.334  0.00  0.00    +0.036 C 
ATOM      8  C   LIG A   1      -8.452   5.999 129.900  0.00  0.00    +0.100 C 
ATOM      9  C   LIG A   1      -9.786   6.597 129.488  0.00  0.00    +0.203 C 
ATOM     10  O   LIG A   1      -9.806   7.697 128.915  0.00  0.00    -0.288 OA
ENDROOT
BRANCH   7  11
ATOM     11  C   LIG A   1      -6.612   6.535 131.530  0.00  0.00    -0.040 A 
ATOM     12  C   LIG A   1      -5.763   7.257 130.676  0.00  0.00    +0.053 A 
ATOM     13  C   LIG A   1      -4.397   7.427 130.948  0.00  0.00    +0.162 A 
ATOM     14  C   LIG A   1      -3.841   6.837 132.088  0.00  0.00    +0.162 A 
ATOM     15  C   LIG A   1      -4.665   6.077 132.928  0.00  0.00    +0.050 A 
ATOM     16  C   LIG A   1      -6.033   5.931 132.654  0.00  0.00    +0.008 A 
BRANCH  13  17
ATOM     17  O   LIG A   1      -3.742   8.136 129.971  0.00  0.00    -0.491 OA
ATOM     18  C   LIG A   1      -3.484   7.474 128.740  0.00  0.00    +0.277 C 
ENDBRANCH  13  17
BRANCH  14  19
ATOM     19  O   LIG A   1      -2.527   7.081 132.368  0.00  0.00    -0.491 OA
ATOM     20  C   LIG A   1      -1.573   6.149 131.884  0.00  0.00    +0.277 C 
ENDBRANCH  14  19
ENDBRANCH   7  11
BRANCH   1  22
ATOM     21  C   LIG A   1     -12.969   7.175 130.447  0.00  0.00    +0.277 C 
ATOM     22  O   LIG A   1     -12.324   6.287 129.537  0.00  0.00    -0.492 OA
ENDBRANCH   1  22
BRANCH   4  23
ATOM     23  O   LIG A   1      -9.067   3.873 128.859  0.00  0.00    -0.390 OA
ATOM     24  H   LIG A   1      -8.520   3.092 128.668  0.00  0.00    +0.210 HD
ENDBRANCH   4  23
BRANCH   3  25
ATOM     25  C   LIG A   1      -9.578   2.962 131.857  0.00  0.00    +0.040 C 
BRANCH  25  26
ATOM     26  C   LIG A   1      -8.839   2.770 133.161  0.00  0.00    -0.034 C 
ATOM     27  C   LIG A   1      -7.636   2.194 133.289  0.00  0.00    +0.004 C 
ENDBRANCH  25  26
ENDBRANCH   3  25
TORSDOF 7
ENDMDL
MODEL 7
REMARK VINA RESULT:      -6.9      1.595      2.621
REMARK  Name = NuBBE_263
REMARK  11 active torsions:
REMARK  status: ('A' for Active; 'I' for Inactive)
REMARK    1  A    between atoms: C_1  and  O_2
REMARK    2  A    between atoms: O_2  and  C_3
REMARK    3  A    between atoms: C_5  and  C_6
REMARK    4  A    between atoms: C_6  and  C_7
REMARK    5  A    between atoms: C_9  and  O_11
REMARK    6  A    between atoms: C_12  and  C_13
REMARK    7  A    between atoms: C_15  and  C_17
REMARK    8  A    between atoms: C_19  and  O_20
REMARK    9  A    between atoms: O_20  and  C_21
REMARK   10  A    between atoms: C_22  and  O_23
REMARK   11  A    between atoms: O_23  and  C_24
REMARK                            x       y       z     vdW  Elec       q    Type
REMARK                         _______ _______ _______ _____ _____    ______ ____
ROOT
ATOM      1  C   LIG A   1      -8.886  -0.753 124.089  0.00  0.00    +0.159 C 
ATOM      2  C   LIG A   1      -7.806   0.038 124.160  0.00  0.00    +0.032 C 
ATOM      3  C   LIG A   1      -6.968   0.158 125.426  0.00  0.00    +0.026 C 
ATOM      4  C   LIG A   1      -7.941   0.103 126.629  0.00  0.00    +0.136 C 
ATOM      5  C   LIG A   1      -6.114  -1.161 125.647  0.00  0.00    +0.007 C 
ATOM      6  C   LIG A   1      -5.590  -1.831 124.369  0.00  0.00    +0.009 C 
ATOM      7  C   LIG A   1      -7.047  -2.130 126.464  0.00  0.00    +0.036 C 
ATOM      8  C   LIG A   1      -8.379  -1.353 126.568  0.00  0.00    +0.100 C 
ATOM      9  C   LIG A   1      -9.181  -1.606 125.303  0.00  0.00    +0.203 C 
ATOM     10  O   LIG A   1      -9.971  -2.562 125.267  0.00  0.00    -0.288 OA
ENDROOT
BRANCH   7  11
ATOM     11  C   LIG A   1      -6.556  -2.509 127.860  0.00  0.00    -0.040 A 
ATOM     12  C   LIG A   1      -5.203  -2.462 128.231  0.00  0.00    +0.053 A 
ATOM     13  C   LIG A   1      -4.780  -2.669 129.552  0.00  0.00    +0.162 A 
ATOM     14  C   LIG A   1      -5.725  -2.966 130.540  0.00  0.00    +0.162 A 
ATOM     15  C   LIG A   1      -7.075  -3.061 130.181  0.00  0.00    +0.050 A 
ATOM     16  C   LIG A   1      -7.485  -2.832 128.859  0.00  0.00    +0.008 A 
BRANCH  13  17
ATOM     17  O   LIG A   1      -3.416  -2.612 129.693  0.00  0.00    -0.491 OA
ATOM     18  C   LIG A   1      -2.650  -3.655 129.105  0.00  0.00    +0.277 C 
ENDBRANCH  13  17
BRANCH  14  19
ATOM     19  O   LIG A   1      -5.295  -3.090 131.830  0.00  0.00    -0.491 OA
ATOM     20  C   LIG A   1      -6.141  -3.780 132.737  0.00  0.00    +0.277 C 
ENDBRANCH  14  19
ENDBRANCH   7  11
BRANCH   1  22
ATOM     21  C   LIG A   1     -10.214   0.375 122.475  0.00  0.00    +0.277 C 
ATOM     22  O   LIG A   1      -9.598  -0.838 122.900  0.00  0.00    -0.492 OA
ENDBRANCH   1  22
BRANCH   4  23
ATOM     23  O   LIG A   1      -9.037   1.001 126.533  0.00  0.00    -0.390 OA
ATOM     24  H   LIG A   1      -8.938   1.683 127.219  0.00  0.00    +0.210 HD
ENDBRANCH   4  23
BRANCH   3  25
ATOM     25  C   LIG A   1      -6.088   1.441 125.443  0.00  0.00    +0.040 C 
BRANCH  25  26
ATOM     26  C   LIG A   1      -4.933   1.442 126.418  0.00  0.00    -0.034 C 
ATOM     27  C   LIG A   1      -4.005   2.404 126.514  0.00  0.00    +0.004 C 
ENDBRANCH  25  26
ENDBRANCH   3  25
TORSDOF 7
ENDMDL
MODEL 8
REMARK VINA RESULT:      -6.7      2.123      7.288
REMARK  Name = NuBBE_263
REMARK  11 active torsions:
REMARK  status: ('A' for Active; 'I' for Inactive)
REMARK    1  A    between atoms: C_1  and  O_2
REMARK    2  A    between atoms: O_2  and  C_3
REMARK    3  A    between atoms: C_5  and  C_6
REMARK    4  A    between atoms: C_6  and  C_7
REMARK    5  A    between atoms: C_9  and  O_11
REMARK    6  A    between atoms: C_12  and  C_13
REMARK    7  A    between atoms: C_15  and  C_17
REMARK    8  A    between atoms: C_19  and  O_20
REMARK    9  A    between atoms: O_20  and  C_21
REMARK   10  A    between atoms: C_22  and  O_23
REMARK   11  A    between atoms: O_23  and  C_24
REMARK                            x       y       z     vdW  Elec       q    Type
REMARK                         _______ _______ _______ _____ _____    ______ ____
ROOT
ATOM      1  C   LIG A   1      -3.879  -2.400 131.202  0.00  0.00    +0.159 C 
ATOM      2  C   LIG A   1      -4.916  -1.646 131.593  0.00  0.00    +0.032 C 
ATOM      3  C   LIG A   1      -5.886  -1.017 130.602  0.00  0.00    +0.026 C 
ATOM      4  C   LIG A   1      -5.061  -0.579 129.367  0.00  0.00    +0.136 C 
ATOM      5  C   LIG A   1      -6.829  -2.129 129.977  0.00  0.00    +0.007 C 
ATOM      6  C   LIG A   1      -7.239  -3.261 130.929  0.00  0.00    +0.009 C 
ATOM      7  C   LIG A   1      -6.050  -2.683 128.727  0.00  0.00    +0.036 C 
ATOM      8  C   LIG A   1      -4.699  -1.935 128.778  0.00  0.00    +0.100 C 
ATOM      9  C   LIG A   1      -3.772  -2.684 129.719  0.00  0.00    +0.203 C 
ATOM     10  O   LIG A   1      -3.036  -3.573 129.265  0.00  0.00    -0.288 OA
ENDROOT
BRANCH   7  11
ATOM     11  C   LIG A   1      -6.718  -2.458 127.371  0.00  0.00    -0.040 A 
ATOM     12  C   LIG A   1      -5.991  -2.324 126.177  0.00  0.00    +0.053 A 
ATOM     13  C   LIG A   1      -6.615  -2.266 124.922  0.00  0.00    +0.162 A 
ATOM     14  C   LIG A   1      -8.011  -2.309 124.843  0.00  0.00    +0.162 A 
ATOM     15  C   LIG A   1      -8.754  -2.399 126.026  0.00  0.00    +0.050 A 
ATOM     16  C   LIG A   1      -8.116  -2.476 127.273  0.00  0.00    +0.008 A 
BRANCH  13  17
ATOM     17  O   LIG A   1      -5.725  -2.101 123.889  0.00  0.00    -0.491 OA
ATOM     18  C   LIG A   1      -4.904  -3.209 123.546  0.00  0.00    +0.277 C 
ENDBRANCH  13  17
BRANCH  14  19
ATOM     19  O   LIG A   1      -8.589  -2.326 123.606  0.00  0.00    -0.491 OA
ATOM     20  C   LIG A   1      -9.606  -3.288 123.373  0.00  0.00    +0.277 C 
ENDBRANCH  14  19
ENDBRANCH   7  11
BRANCH   1  22
ATOM     21  C   LIG A   1      -3.612  -4.030 132.907  0.00  0.00    +0.277 C 
ATOM     22  O   LIG A   1      -3.041  -2.964 132.153  0.00  0.00    -0.492 OA
ENDBRANCH   1  22
BRANCH   4  23
ATOM     23  O   LIG A   1      -3.914   0.198 129.677  0.00  0.00    -0.390 OA
ATOM     24  H   LIG A   1      -3.542  -0.122 130.517  0.00  0.00    +0.210 HD
ENDBRANCH   4  23
BRANCH   3  25
ATOM     25  C   LIG A   1      -6.690   0.164 131.217  0.00  0.00    +0.040 C 
BRANCH  25  26
ATOM     26  C   LIG A   1      -8.166   0.203 130.891  0.00  0.00    -0.034 C 
ATOM     27  C   LIG A   1      -9.149   0.379 131.785  0.00  0.00    +0.004 C 
ENDBRANCH  25  26
ENDBRANCH   3  25
TORSDOF 7
ENDMDL
MODEL 9
REMARK VINA RESULT:      -6.7      2.244      7.247
REMARK  Name = NuBBE_263
REMARK  11 active torsions:
REMARK  status: ('A' for Active; 'I' for Inactive)
REMARK    1  A    between atoms: C_1  and  O_2
REMARK    2  A    between atoms: O_2  and  C_3
REMARK    3  A    between atoms: C_5  and  C_6
REMARK    4  A    between atoms: C_6  and  C_7
REMARK    5  A    between atoms: C_9  and  O_11
REMARK    6  A    between atoms: C_12  and  C_13
REMARK    7  A    between atoms: C_15  and  C_17
REMARK    8  A    between atoms: C_19  and  O_20
REMARK    9  A    between atoms: O_20  and  C_21
REMARK   10  A    between atoms: C_22  and  O_23
REMARK   11  A    between atoms: O_23  and  C_24
REMARK                            x       y       z     vdW  Elec       q    Type
REMARK                         _______ _______ _______ _____ _____    ______ ____
ROOT
ATOM      1  C   LIG A   1      -4.644  -3.470 131.836  0.00  0.00    +0.159 C 
ATOM      2  C   LIG A   1      -4.643  -2.130 131.788  0.00  0.00    +0.032 C 
ATOM      3  C   LIG A   1      -5.182  -1.358 130.592  0.00  0.00    +0.026 C 
ATOM      4  C   LIG A   1      -4.804  -2.156 129.320  0.00  0.00    +0.136 C 
ATOM      5  C   LIG A   1      -6.766  -1.436 130.557  0.00  0.00    +0.007 C 
ATOM      6  C   LIG A   1      -7.460  -1.427 131.927  0.00  0.00    +0.009 C 
ATOM      7  C   LIG A   1      -7.103  -2.744 129.751  0.00  0.00    +0.036 C 
ATOM      8  C   LIG A   1      -5.716  -3.366 129.469  0.00  0.00    +0.100 C 
ATOM      9  C   LIG A   1      -5.305  -4.187 130.678  0.00  0.00    +0.203 C 
ATOM     10  O   LIG A   1      -5.612  -5.388 130.729  0.00  0.00    -0.288 OA
ENDROOT
BRANCH   7  11
ATOM     11  C   LIG A   1      -7.859  -2.544 128.438  0.00  0.00    -0.040 A 
ATOM     12  C   LIG A   1      -7.752  -1.374 127.669  0.00  0.00    +0.053 A 
ATOM     13  C   LIG A   1      -8.333  -1.258 126.398  0.00  0.00    +0.162 A 
ATOM     14  C   LIG A   1      -9.072  -2.325 125.876  0.00  0.00    +0.162 A 
ATOM     15  C   LIG A   1      -9.225  -3.484 126.647  0.00  0.00    +0.050 A 
ATOM     16  C   LIG A   1      -8.624  -3.593 127.910  0.00  0.00    +0.008 A 
BRANCH  13  17
ATOM     17  O   LIG A   1      -8.139  -0.023 125.831  0.00  0.00    -0.491 OA
ATOM     18  C   LIG A   1      -6.946   0.179 125.085  0.00  0.00    +0.277 C 
ENDBRANCH  13  17
BRANCH  14  19
ATOM     19  O   LIG A   1      -9.563  -2.214 124.607  0.00  0.00    -0.491 OA
ATOM     20  C   LIG A   1      -8.999  -3.056 123.613  0.00  0.00    +0.277 C 
ENDBRANCH  14  19
ENDBRANCH   7  11
BRANCH   1  22
ATOM     21  C   LIG A   1      -5.051  -4.154 134.073  0.00  0.00    +0.277 C 
ATOM     22  O   LIG A   1      -4.158  -4.118 132.963  0.00  0.00    -0.492 OA
ENDBRANCH   1  22
BRANCH   4  23
ATOM     23  O   LIG A   1      -3.433  -2.520 129.246  0.00  0.00    -0.390 OA
ATOM     24  H   LIG A   1      -2.913  -1.862 129.737  0.00  0.00    +0.210 HD
ENDBRANCH   4  23
BRANCH   3  25
ATOM     25  C   LIG A   1      -4.661   0.107 130.539  0.00  0.00    +0.040 C 
BRANCH  25  26
ATOM     26  C   LIG A   1      -4.801   0.814 129.211  0.00  0.00    -0.034 C 
ATOM     27  C   LIG A   1      -5.805   1.636 128.877  0.00  0.00    +0.004 C 
ENDBRANCH  25  26
ENDBRANCH   3  25
TORSDOF 7
ENDMDL
