MODEL 1
REMARK VINA RESULT:      -7.5      0.000      0.000
REMARK  Name = NuBBE_1996
REMARK  5 active torsions:
REMARK  status: ('A' for Active; 'I' for Inactive)
REMARK    1  A    between atoms: O_1  and  C_2
REMARK    2  A    between atoms: C_4  and  O_5
REMARK    3  A    between atoms: C_9  and  C_11
REMARK    4  A    between atoms: C_14  and  O_15
REMARK    5  A    between atoms: C_21  and  C_22
REMARK                            x       y       z     vdW  Elec       q    Type
REMARK                         _______ _______ _______ _____ _____    ______ ____
ROOT
ATOM      1  C   LIG A   1      -6.213  -1.679 124.469  0.00  0.00    +0.127 A 
ATOM      2  C   LIG A   1      -7.095  -2.311 123.594  0.00  0.00    +0.092 A 
ATOM      3  C   LIG A   1      -8.231  -1.633 123.149  0.00  0.00    +0.134 A 
ATOM      4  C   LIG A   1      -8.477  -0.317 123.562  0.00  0.00    +0.101 A 
ATOM      5  C   LIG A   1      -9.695   0.438 123.166  0.00  0.00    +0.174 C 
ATOM      6  C   LIG A   1      -9.925   1.726 123.899  0.00  0.00    +0.129 C 
ATOM      7  C   LIG A   1      -8.592   2.441 124.060  0.00  0.00    +0.211 C 
ATOM      8  O   LIG A   1      -7.704   1.620 124.842  0.00  0.00    -0.483 OA
ATOM      9  O   LIG A   1     -10.516   0.030 122.353  0.00  0.00    -0.292 OA
ATOM     10  C   LIG A   1      -7.566   0.317 124.423  0.00  0.00    +0.142 A 
ATOM     11  C   LIG A   1      -6.442  -0.373 124.914  0.00  0.00    +0.034 A 
ATOM     12  C   LIG A   1      -5.463   0.306 125.836  0.00  0.00    +0.051 C 
ENDROOT
BRANCH   7  13
ATOM     13  C   LIG A   1      -7.943   2.988 122.788  0.00  0.00    -0.007 A 
ATOM     14  C   LIG A   1      -8.719   3.301 121.656  0.00  0.00    +0.011 A 
ATOM     15  C   LIG A   1      -8.136   3.838 120.504  0.00  0.00    +0.046 A 
ATOM     16  C   LIG A   1      -6.769   4.079 120.477  0.00  0.00    +0.117 A 
ATOM     17  C   LIG A   1      -5.981   3.801 121.583  0.00  0.00    +0.046 A 
ATOM     18  C   LIG A   1      -6.566   3.269 122.736  0.00  0.00    +0.011 A 
BRANCH  16  19
ATOM     19  O   LIG A   1      -6.160   4.603 119.375  0.00  0.00    -0.507 OA
ATOM     20  H   LIG A   1      -5.434   5.178 119.667  0.00  0.00    +0.292 HD
ENDBRANCH  16  19
ENDBRANCH   7  13
BRANCH   1  21
ATOM     21  O   LIG A   1      -5.098  -2.340 124.907  0.00  0.00    -0.506 OA
ATOM     22  H   LIG A   1      -4.631  -2.730 124.151  0.00  0.00    +0.292 HD
ENDBRANCH   1  21
BRANCH   3  23
ATOM     23  O   LIG A   1      -9.100  -2.282 122.319  0.00  0.00    -0.506 OA
ATOM     24  H   LIG A   1      -8.675  -2.498 121.475  0.00  0.00    +0.292 HD
ENDBRANCH   3  23
TORSDOF 4
ENDMDL
MODEL 2
REMARK VINA RESULT:      -7.4      2.447      6.148
REMARK  Name = NuBBE_1996
REMARK  5 active torsions:
REMARK  status: ('A' for Active; 'I' for Inactive)
REMARK    1  A    between atoms: O_1  and  C_2
REMARK    2  A    between atoms: C_4  and  O_5
REMARK    3  A    between atoms: C_9  and  C_11
REMARK    4  A    between atoms: C_14  and  O_15
REMARK    5  A    between atoms: C_21  and  C_22
REMARK                            x       y       z     vdW  Elec       q    Type
REMARK                         _______ _______ _______ _____ _____    ______ ____
ROOT
ATOM      1  C   LIG A   1      -8.438   2.628 124.045  0.00  0.00    +0.127 A 
ATOM      2  C   LIG A   1      -9.656   2.153 123.560  0.00  0.00    +0.092 A 
ATOM      3  C   LIG A   1      -9.799   0.796 123.268  0.00  0.00    +0.134 A 
ATOM      4  C   LIG A   1      -8.736  -0.091 123.479  0.00  0.00    +0.101 A 
ATOM      5  C   LIG A   1      -8.811  -1.536 123.137  0.00  0.00    +0.174 C 
ATOM      6  C   LIG A   1      -7.509  -2.281 123.185  0.00  0.00    +0.129 C 
ATOM      7  C   LIG A   1      -6.724  -1.815 124.401  0.00  0.00    +0.211 C 
ATOM      8  O   LIG A   1      -6.444  -0.408 124.275  0.00  0.00    -0.483 OA
ATOM      9  O   LIG A   1      -9.835  -2.098 122.767  0.00  0.00    -0.292 OA
ATOM     10  C   LIG A   1      -7.524   0.396 123.994  0.00  0.00    +0.142 A 
ATOM     11  C   LIG A   1      -7.352   1.770 124.248  0.00  0.00    +0.034 A 
ATOM     12  C   LIG A   1      -6.053   2.295 124.802  0.00  0.00    +0.051 C 
ENDROOT
BRANCH   7  13
ATOM     13  C   LIG A   1      -7.283  -2.197 125.772  0.00  0.00    -0.007 A 
ATOM     14  C   LIG A   1      -8.226  -3.233 125.907  0.00  0.00    +0.011 A 
ATOM     15  C   LIG A   1      -8.711  -3.613 127.162  0.00  0.00    +0.046 A 
ATOM     16  C   LIG A   1      -8.246  -2.967 128.300  0.00  0.00    +0.117 A 
ATOM     17  C   LIG A   1      -7.300  -1.959 128.202  0.00  0.00    +0.046 A 
ATOM     18  C   LIG A   1      -6.813  -1.583 126.947  0.00  0.00    +0.011 A 
BRANCH  16  19
ATOM     19  O   LIG A   1      -8.691  -3.308 129.543  0.00  0.00    -0.507 OA
ATOM     20  H   LIG A   1      -8.552  -2.553 130.138  0.00  0.00    +0.292 HD
ENDBRANCH  16  19
ENDBRANCH   7  13
BRANCH   1  21
ATOM     21  O   LIG A   1      -8.293   3.957 124.334  0.00  0.00    -0.506 OA
ATOM     22  H   LIG A   1      -9.078   4.444 124.038  0.00  0.00    +0.292 HD
ENDBRANCH   1  21
BRANCH   3  23
ATOM     23  O   LIG A   1     -10.989   0.356 122.761  0.00  0.00    -0.506 OA
ATOM     24  H   LIG A   1     -11.108   0.659 121.848  0.00  0.00    +0.292 HD
ENDBRANCH   3  23
TORSDOF 4
ENDMDL
MODEL 3
REMARK VINA RESULT:      -6.8      1.909      5.579
REMARK  Name = NuBBE_1996
REMARK  5 active torsions:
REMARK  status: ('A' for Active; 'I' for Inactive)
REMARK    1  A    between atoms: O_1  and  C_2
REMARK    2  A    between atoms: C_4  and  O_5
REMARK    3  A    between atoms: C_9  and  C_11
REMARK    4  A    between atoms: C_14  and  O_15
REMARK    5  A    between atoms: C_21  and  C_22
REMARK                            x       y       z     vdW  Elec       q    Type
REMARK                         _______ _______ _______ _____ _____    ______ ____
ROOT
ATOM      1  C   LIG A   1      -5.672   4.237 123.192  0.00  0.00    +0.127 A 
ATOM      2  C   LIG A   1      -5.665   4.347 124.582  0.00  0.00    +0.092 A 
ATOM      3  C   LIG A   1      -6.626   3.668 125.332  0.00  0.00    +0.134 A 
ATOM      4  C   LIG A   1      -7.583   2.864 124.698  0.00  0.00    +0.101 A 
ATOM      5  C   LIG A   1      -8.664   2.161 125.439  0.00  0.00    +0.174 C 
ATOM      6  C   LIG A   1      -9.745   1.562 124.589  0.00  0.00    +0.129 C 
ATOM      7  C   LIG A   1      -9.108   0.926 123.364  0.00  0.00    +0.211 C 
ATOM      8  O   LIG A   1      -8.432   1.940 122.598  0.00  0.00    -0.483 OA
ATOM      9  O   LIG A   1      -8.736   2.117 126.661  0.00  0.00    -0.292 OA
ATOM     10  C   LIG A   1      -7.562   2.742 123.300  0.00  0.00    +0.142 A 
ATOM     11  C   LIG A   1      -6.626   3.458 122.529  0.00  0.00    +0.034 A 
ATOM     12  C   LIG A   1      -6.601   3.327 121.029  0.00  0.00    +0.051 C 
ENDROOT
BRANCH   7  13
ATOM     13  C   LIG A   1      -8.253  -0.321 123.598  0.00  0.00    -0.007 A 
ATOM     14  C   LIG A   1      -8.708  -1.367 124.422  0.00  0.00    +0.011 A 
ATOM     15  C   LIG A   1      -7.947  -2.526 124.609  0.00  0.00    +0.046 A 
ATOM     16  C   LIG A   1      -6.726  -2.655 123.961  0.00  0.00    +0.117 A 
ATOM     17  C   LIG A   1      -6.260  -1.651 123.126  0.00  0.00    +0.046 A 
ATOM     18  C   LIG A   1      -7.023  -0.495 122.937  0.00  0.00    +0.011 A 
BRANCH  16  19
ATOM     19  O   LIG A   1      -5.953  -3.768 124.114  0.00  0.00    -0.507 OA
ATOM     20  H   LIG A   1      -5.579  -3.763 125.010  0.00  0.00    +0.292 HD
ENDBRANCH  16  19
ENDBRANCH   7  13
BRANCH   1  21
ATOM     21  O   LIG A   1      -4.732   4.900 122.452  0.00  0.00    -0.506 OA
ATOM     22  H   LIG A   1      -3.862   4.491 122.587  0.00  0.00    +0.292 HD
ENDBRANCH   1  21
BRANCH   3  23
ATOM     23  O   LIG A   1      -6.623   3.816 126.690  0.00  0.00    -0.506 OA
ATOM     24  H   LIG A   1      -6.980   3.026 127.124  0.00  0.00    +0.292 HD
ENDBRANCH   3  23
TORSDOF 4
ENDMDL
MODEL 4
REMARK VINA RESULT:      -6.6      8.727     11.401
REMARK  Name = NuBBE_1996
REMARK  5 active torsions:
REMARK  status: ('A' for Active; 'I' for Inactive)
REMARK    1  A    between atoms: O_1  and  C_2
REMARK    2  A    between atoms: C_4  and  O_5
REMARK    3  A    between atoms: C_9  and  C_11
REMARK    4  A    between atoms: C_14  and  O_15
REMARK    5  A    between atoms: C_21  and  C_22
REMARK                            x       y       z     vdW  Elec       q    Type
REMARK                         _______ _______ _______ _____ _____    ______ ____
ROOT
ATOM      1  C   LIG A   1      -9.763   7.148 130.419  0.00  0.00    +0.127 A 
ATOM      2  C   LIG A   1      -8.402   7.344 130.189  0.00  0.00    +0.092 A 
ATOM      3  C   LIG A   1      -7.468   6.810 131.078  0.00  0.00    +0.134 A 
ATOM      4  C   LIG A   1      -7.891   6.063 132.186  0.00  0.00    +0.101 A 
ATOM      5  C   LIG A   1      -6.947   5.515 133.196  0.00  0.00    +0.174 C 
ATOM      6  C   LIG A   1      -7.580   4.970 134.443  0.00  0.00    +0.129 C 
ATOM      7  C   LIG A   1      -8.832   4.199 134.057  0.00  0.00    +0.211 C 
ATOM      8  O   LIG A   1      -9.765   5.094 133.423  0.00  0.00    -0.483 OA
ATOM      9  O   LIG A   1      -5.728   5.556 133.083  0.00  0.00    -0.292 OA
ATOM     10  C   LIG A   1      -9.263   5.851 132.390  0.00  0.00    +0.142 A 
ATOM     11  C   LIG A   1     -10.216   6.424 131.527  0.00  0.00    +0.034 A 
ATOM     12  C   LIG A   1     -11.689   6.195 131.744  0.00  0.00    +0.051 C 
ENDROOT
BRANCH   7  13
ATOM     13  C   LIG A   1      -8.631   2.894 133.286  0.00  0.00    -0.007 A 
ATOM     14  C   LIG A   1      -7.434   2.162 133.400  0.00  0.00    +0.011 A 
ATOM     15  C   LIG A   1      -7.259   0.949 132.727  0.00  0.00    +0.046 A 
ATOM     16  C   LIG A   1      -8.288   0.447 131.942  0.00  0.00    +0.117 A 
ATOM     17  C   LIG A   1      -9.488   1.133 131.827  0.00  0.00    +0.046 A 
ATOM     18  C   LIG A   1      -9.662   2.344 132.503  0.00  0.00    +0.011 A 
BRANCH  16  19
ATOM     19  O   LIG A   1      -8.161  -0.733 131.270  0.00  0.00    -0.507 OA
ATOM     20  H   LIG A   1      -7.417  -0.657 130.650  0.00  0.00    +0.292 HD
ENDBRANCH  16  19
ENDBRANCH   7  13
BRANCH   1  21
ATOM     21  O   LIG A   1     -10.682   7.669 129.550  0.00  0.00    -0.506 OA
ATOM     22  H   LIG A   1     -10.830   8.606 129.753  0.00  0.00    +0.292 HD
ENDBRANCH   1  21
BRANCH   3  23
ATOM     23  O   LIG A   1      -6.141   7.042 130.854  0.00  0.00    -0.506 OA
ATOM     24  H   LIG A   1      -5.798   6.451 130.166  0.00  0.00    +0.292 HD
ENDBRANCH   3  23
TORSDOF 4
ENDMDL
MODEL 5
REMARK VINA RESULT:      -6.5      1.682      2.068
REMARK  Name = NuBBE_1996
REMARK  5 active torsions:
REMARK  status: ('A' for Active; 'I' for Inactive)
REMARK    1  A    between atoms: O_1  and  C_2
REMARK    2  A    between atoms: C_4  and  O_5
REMARK    3  A    between atoms: C_9  and  C_11
REMARK    4  A    between atoms: C_14  and  O_15
REMARK    5  A    between atoms: C_21  and  C_22
REMARK                            x       y       z     vdW  Elec       q    Type
REMARK                         _______ _______ _______ _____ _____    ______ ____
ROOT
ATOM      1  C   LIG A   1      -7.325  -1.455 126.683  0.00  0.00    +0.127 A 
ATOM      2  C   LIG A   1      -7.540  -2.249 125.557  0.00  0.00    +0.092 A 
ATOM      3  C   LIG A   1      -8.307  -1.755 124.501  0.00  0.00    +0.134 A 
ATOM      4  C   LIG A   1      -8.843  -0.462 124.559  0.00  0.00    +0.101 A 
ATOM      5  C   LIG A   1      -9.712   0.099 123.491  0.00  0.00    +0.174 C 
ATOM      6  C   LIG A   1     -10.406   1.386 123.831  0.00  0.00    +0.129 C 
ATOM      7  C   LIG A   1      -9.434   2.279 124.586  0.00  0.00    +0.211 C 
ATOM      8  O   LIG A   1      -9.044   1.631 125.810  0.00  0.00    -0.483 OA
ATOM      9  O   LIG A   1      -9.928  -0.461 122.423  0.00  0.00    -0.292 OA
ATOM     10  C   LIG A   1      -8.597   0.336 125.688  0.00  0.00    +0.142 A 
ATOM     11  C   LIG A   1      -7.863  -0.168 126.779  0.00  0.00    +0.034 A 
ATOM     12  C   LIG A   1      -7.596   0.688 127.990  0.00  0.00    +0.051 C 
ENDROOT
BRANCH   7  13
ATOM     13  C   LIG A   1      -8.249   2.834 123.794  0.00  0.00    -0.007 A 
ATOM     14  C   LIG A   1      -7.033   3.145 124.433  0.00  0.00    +0.011 A 
ATOM     15  C   LIG A   1      -5.934   3.616 123.708  0.00  0.00    +0.046 A 
ATOM     16  C   LIG A   1      -6.036   3.769 122.331  0.00  0.00    +0.117 A 
ATOM     17  C   LIG A   1      -7.212   3.450 121.671  0.00  0.00    +0.046 A 
ATOM     18  C   LIG A   1      -8.309   2.975 122.396  0.00  0.00    +0.011 A 
BRANCH  16  19
ATOM     19  O   LIG A   1      -4.987   4.223 121.587  0.00  0.00    -0.507 OA
ATOM     20  H   LIG A   1      -5.241   4.198 120.649  0.00  0.00    +0.292 HD
ENDBRANCH  16  19
ENDBRANCH   7  13
BRANCH   1  21
ATOM     21  O   LIG A   1      -6.573  -1.935 127.720  0.00  0.00    -0.506 OA
ATOM     22  H   LIG A   1      -6.630  -2.903 127.746  0.00  0.00    +0.292 HD
ENDBRANCH   1  21
BRANCH   3  23
ATOM     23  O   LIG A   1      -8.534  -2.561 123.423  0.00  0.00    -0.506 OA
ATOM     24  H   LIG A   1      -7.778  -3.146 123.263  0.00  0.00    +0.292 HD
ENDBRANCH   3  23
TORSDOF 4
ENDMDL
MODEL 6
REMARK VINA RESULT:      -6.5      7.834     10.424
REMARK  Name = NuBBE_1996
REMARK  5 active torsions:
REMARK  status: ('A' for Active; 'I' for Inactive)
REMARK    1  A    between atoms: O_1  and  C_2
REMARK    2  A    between atoms: C_4  and  O_5
REMARK    3  A    between atoms: C_9  and  C_11
REMARK    4  A    between atoms: C_14  and  O_15
REMARK    5  A    between atoms: C_21  and  C_22
REMARK                            x       y       z     vdW  Elec       q    Type
REMARK                         _______ _______ _______ _____ _____    ______ ____
ROOT
ATOM      1  C   LIG A   1      -9.018   5.288 132.850  0.00  0.00    +0.127 A 
ATOM      2  C   LIG A   1      -9.180   6.203 131.811  0.00  0.00    +0.092 A 
ATOM      3  C   LIG A   1      -8.056   6.775 131.214  0.00  0.00    +0.134 A 
ATOM      4  C   LIG A   1      -6.770   6.421 131.640  0.00  0.00    +0.101 A 
ATOM      5  C   LIG A   1      -5.537   7.037 131.081  0.00  0.00    +0.174 C 
ATOM      6  C   LIG A   1      -4.269   6.735 131.825  0.00  0.00    +0.129 C 
ATOM      7  C   LIG A   1      -4.282   5.272 132.239  0.00  0.00    +0.211 C 
ATOM      8  O   LIG A   1      -5.397   5.037 133.119  0.00  0.00    -0.483 OA
ATOM      9  O   LIG A   1      -5.530   7.801 130.124  0.00  0.00    -0.292 OA
ATOM     10  C   LIG A   1      -6.620   5.478 132.670  0.00  0.00    +0.142 A 
ATOM     11  C   LIG A   1      -7.747   4.928 133.310  0.00  0.00    +0.034 A 
ATOM     12  C   LIG A   1      -7.588   3.915 134.413  0.00  0.00    +0.051 C 
ENDROOT
BRANCH   7  13
ATOM     13  C   LIG A   1      -4.170   4.235 131.120  0.00  0.00    -0.007 A 
ATOM     14  C   LIG A   1      -4.775   2.970 131.241  0.00  0.00    +0.011 A 
ATOM     15  C   LIG A   1      -4.708   2.033 130.204  0.00  0.00    +0.046 A 
ATOM     16  C   LIG A   1      -4.045   2.358 129.029  0.00  0.00    +0.117 A 
ATOM     17  C   LIG A   1      -3.457   3.604 128.871  0.00  0.00    +0.046 A 
ATOM     18  C   LIG A   1      -3.528   4.541 129.906  0.00  0.00    +0.011 A 
BRANCH  16  19
ATOM     19  O   LIG A   1      -3.958   1.475 127.993  0.00  0.00    -0.507 OA
ATOM     20  H   LIG A   1      -3.195   1.719 127.443  0.00  0.00    +0.292 HD
ENDBRANCH  16  19
ENDBRANCH   7  13
BRANCH   1  21
ATOM     21  O   LIG A   1     -10.117   4.722 133.437  0.00  0.00    -0.506 OA
ATOM     22  H   LIG A   1     -10.922   5.048 133.005  0.00  0.00    +0.292 HD
ENDBRANCH   1  21
BRANCH   3  23
ATOM     23  O   LIG A   1      -8.237   7.696 130.222  0.00  0.00    -0.506 OA
ATOM     24  H   LIG A   1      -9.121   8.090 130.273  0.00  0.00    +0.292 HD
ENDBRANCH   3  23
TORSDOF 4
ENDMDL
MODEL 7
REMARK VINA RESULT:      -6.3      4.386      6.727
REMARK  Name = NuBBE_1996
REMARK  5 active torsions:
REMARK  status: ('A' for Active; 'I' for Inactive)
REMARK    1  A    between atoms: O_1  and  C_2
REMARK    2  A    between atoms: C_4  and  O_5
REMARK    3  A    between atoms: C_9  and  C_11
REMARK    4  A    between atoms: C_14  and  O_15
REMARK    5  A    between atoms: C_21  and  C_22
REMARK                            x       y       z     vdW  Elec       q    Type
REMARK                         _______ _______ _______ _____ _____    ______ ____
ROOT
ATOM      1  C   LIG A   1      -7.492  -2.004 130.789  0.00  0.00    +0.127 A 
ATOM      2  C   LIG A   1      -8.030  -0.724 130.662  0.00  0.00    +0.092 A 
ATOM      3  C   LIG A   1      -7.734   0.039 129.532  0.00  0.00    +0.134 A 
ATOM      4  C   LIG A   1      -6.918  -0.480 128.520  0.00  0.00    +0.101 A 
ATOM      5  C   LIG A   1      -6.523   0.304 127.320  0.00  0.00    +0.174 C 
ATOM      6  C   LIG A   1      -5.446  -0.307 126.473  0.00  0.00    +0.129 C 
ATOM      7  C   LIG A   1      -5.695  -1.803 126.370  0.00  0.00    +0.211 C 
ATOM      8  O   LIG A   1      -5.632  -2.387 127.684  0.00  0.00    -0.483 OA
ATOM      9  O   LIG A   1      -6.974   1.411 127.050  0.00  0.00    -0.292 OA
ATOM     10  C   LIG A   1      -6.404  -1.781 128.648  0.00  0.00    +0.142 A 
ATOM     11  C   LIG A   1      -6.657  -2.543 129.804  0.00  0.00    +0.034 A 
ATOM     12  C   LIG A   1      -6.108  -3.939 129.943  0.00  0.00    +0.051 C 
ENDROOT
BRANCH   7  13
ATOM     13  C   LIG A   1      -6.923  -2.246 125.572  0.00  0.00    -0.007 A 
ATOM     14  C   LIG A   1      -6.999  -2.035 124.183  0.00  0.00    +0.011 A 
ATOM     15  C   LIG A   1      -8.102  -2.472 123.443  0.00  0.00    +0.046 A 
ATOM     16  C   LIG A   1      -9.137  -3.138 124.085  0.00  0.00    +0.117 A 
ATOM     17  C   LIG A   1      -9.082  -3.380 125.449  0.00  0.00    +0.046 A 
ATOM     18  C   LIG A   1      -7.977  -2.946 126.187  0.00  0.00    +0.011 A 
BRANCH  16  19
ATOM     19  O   LIG A   1     -10.230  -3.583 123.401  0.00  0.00    -0.507 OA
ATOM     20  H   LIG A   1     -10.163  -3.278 122.481  0.00  0.00    +0.292 HD
ENDBRANCH  16  19
ENDBRANCH   7  13
BRANCH   1  21
ATOM     21  O   LIG A   1      -7.779  -2.757 131.894  0.00  0.00    -0.506 OA
ATOM     22  H   LIG A   1      -7.075  -3.408 132.039  0.00  0.00    +0.292 HD
ENDBRANCH   1  21
BRANCH   3  23
ATOM     23  O   LIG A   1      -8.243   1.303 129.443  0.00  0.00    -0.506 OA
ATOM     24  H   LIG A   1      -9.068   1.380 129.948  0.00  0.00    +0.292 HD
ENDBRANCH   3  23
TORSDOF 4
ENDMDL
MODEL 8
REMARK VINA RESULT:      -6.3      7.735      9.468
REMARK  Name = NuBBE_1996
REMARK  5 active torsions:
REMARK  status: ('A' for Active; 'I' for Inactive)
REMARK    1  A    between atoms: O_1  and  C_2
REMARK    2  A    between atoms: C_4  and  O_5
REMARK    3  A    between atoms: C_9  and  C_11
REMARK    4  A    between atoms: C_14  and  O_15
REMARK    5  A    between atoms: C_21  and  C_22
REMARK                            x       y       z     vdW  Elec       q    Type
REMARK                         _______ _______ _______ _____ _____    ______ ____
ROOT
ATOM      1  C   LIG A   1      -5.536   4.895 129.640  0.00  0.00    +0.127 A 
ATOM      2  C   LIG A   1      -6.106   3.661 129.329  0.00  0.00    +0.092 A 
ATOM      3  C   LIG A   1      -7.245   3.236 130.014  0.00  0.00    +0.134 A 
ATOM      4  C   LIG A   1      -7.828   4.049 130.994  0.00  0.00    +0.101 A 
ATOM      5  C   LIG A   1      -9.008   3.628 131.795  0.00  0.00    +0.174 C 
ATOM      6  C   LIG A   1      -9.340   4.503 132.968  0.00  0.00    +0.129 C 
ATOM      7  C   LIG A   1      -9.163   5.957 132.559  0.00  0.00    +0.211 C 
ATOM      8  O   LIG A   1      -7.789   6.183 132.191  0.00  0.00    -0.483 OA
ATOM      9  O   LIG A   1      -9.646   2.604 131.582  0.00  0.00    -0.292 OA
ATOM     10  C   LIG A   1      -7.259   5.301 131.278  0.00  0.00    +0.142 A 
ATOM     11  C   LIG A   1      -6.083   5.721 130.627  0.00  0.00    +0.034 A 
ATOM     12  C   LIG A   1      -5.473   7.065 130.930  0.00  0.00    +0.051 C 
ENDROOT
BRANCH   7  13
ATOM     13  C   LIG A   1     -10.158   6.514 131.541  0.00  0.00    -0.007 A 
ATOM     14  C   LIG A   1     -11.544   6.465 131.781  0.00  0.00    +0.011 A 
ATOM     15  C   LIG A   1     -12.457   7.008 130.871  0.00  0.00    +0.046 A 
ATOM     16  C   LIG A   1     -11.991   7.619 129.715  0.00  0.00    +0.117 A 
ATOM     17  C   LIG A   1     -10.630   7.703 129.461  0.00  0.00    +0.046 A 
ATOM     18  C   LIG A   1      -9.719   7.163 130.373  0.00  0.00    +0.011 A 
BRANCH  16  19
ATOM     19  O   LIG A   1     -12.846   8.163 128.803  0.00  0.00    -0.507 OA
ATOM     20  H   LIG A   1     -13.374   7.448 128.410  0.00  0.00    +0.292 HD
ENDBRANCH  16  19
ENDBRANCH   7  13
BRANCH   1  21
ATOM     21  O   LIG A   1      -4.420   5.317 128.971  0.00  0.00    -0.506 OA
ATOM     22  H   LIG A   1      -3.753   4.612 128.971  0.00  0.00    +0.292 HD
ENDBRANCH   1  21
BRANCH   3  23
ATOM     23  O   LIG A   1      -7.768   2.010 129.719  0.00  0.00    -0.506 OA
ATOM     24  H   LIG A   1      -8.619   1.880 130.166  0.00  0.00    +0.292 HD
ENDBRANCH   3  23
TORSDOF 4
ENDMDL
MODEL 9
REMARK VINA RESULT:      -6.1      2.619      6.189
REMARK  Name = NuBBE_1996
REMARK  5 active torsions:
REMARK  status: ('A' for Active; 'I' for Inactive)
REMARK    1  A    between atoms: O_1  and  C_2
REMARK    2  A    between atoms: C_4  and  O_5
REMARK    3  A    between atoms: C_9  and  C_11
REMARK    4  A    between atoms: C_14  and  O_15
REMARK    5  A    between atoms: C_21  and  C_22
REMARK                            x       y       z     vdW  Elec       q    Type
REMARK                         _______ _______ _______ _____ _____    ______ ____
ROOT
ATOM      1  C   LIG A   1      -9.250   0.300 122.830  0.00  0.00    +0.127 A 
ATOM      2  C   LIG A   1      -9.978  -0.889 122.845  0.00  0.00    +0.092 A 
ATOM      3  C   LIG A   1      -9.405  -2.041 123.385  0.00  0.00    +0.134 A 
ATOM      4  C   LIG A   1      -8.114  -2.004 123.927  0.00  0.00    +0.101 A 
ATOM      5  C   LIG A   1      -7.431  -3.210 124.466  0.00  0.00    +0.174 C 
ATOM      6  C   LIG A   1      -5.970  -3.046 124.765  0.00  0.00    +0.129 C 
ATOM      7  C   LIG A   1      -5.752  -1.684 125.405  0.00  0.00    +0.211 C 
ATOM      8  O   LIG A   1      -6.150  -0.655 124.480  0.00  0.00    -0.483 OA
ATOM      9  O   LIG A   1      -7.975  -4.299 124.601  0.00  0.00    -0.292 OA
ATOM     10  C   LIG A   1      -7.402  -0.794 123.929  0.00  0.00    +0.142 A 
ATOM     11  C   LIG A   1      -7.951   0.364 123.346  0.00  0.00    +0.034 A 
ATOM     12  C   LIG A   1      -7.189   1.664 123.349  0.00  0.00    +0.051 C 
ENDROOT
BRANCH   7  13
ATOM     13  C   LIG A   1      -6.321  -1.482 126.811  0.00  0.00    -0.007 A 
ATOM     14  C   LIG A   1      -6.903  -0.258 127.188  0.00  0.00    +0.011 A 
ATOM     15  C   LIG A   1      -7.459  -0.081 128.459  0.00  0.00    +0.046 A 
ATOM     16  C   LIG A   1      -7.450  -1.134 129.363  0.00  0.00    +0.117 A 
ATOM     17  C   LIG A   1      -6.904  -2.360 129.014  0.00  0.00    +0.046 A 
ATOM     18  C   LIG A   1      -6.353  -2.537 127.742  0.00  0.00    +0.011 A 
BRANCH  16  19
ATOM     19  O   LIG A   1      -7.983  -1.005 130.612  0.00  0.00    -0.507 OA
ATOM     20  H   LIG A   1      -7.358  -1.378 131.254  0.00  0.00    +0.292 HD
ENDBRANCH  16  19
ENDBRANCH   7  13
BRANCH   1  21
ATOM     21  O   LIG A   1      -9.807   1.433 122.304  0.00  0.00    -0.506 OA
ATOM     22  H   LIG A   1     -10.330   1.887 122.984  0.00  0.00    +0.292 HD
ENDBRANCH   1  21
BRANCH   3  23
ATOM     23  O   LIG A   1     -10.122  -3.203 123.359  0.00  0.00    -0.506 OA
ATOM     24  H   LIG A   1     -10.912  -3.110 122.806  0.00  0.00    +0.292 HD
ENDBRANCH   3  23
TORSDOF 4
ENDMDL
