MODEL 1
REMARK VINA RESULT:     -10.0      0.000      0.000
REMARK  Name = NuBBE_1624
REMARK  17 active torsions:
REMARK  status: ('A' for Active; 'I' for Inactive)
REMARK    1  A    between atoms: C_1  and  O_3
REMARK    2  A    between atoms: C_1  and  C_20
REMARK    3  A    between atoms: O_3  and  C_4
REMARK    4  A    between atoms: C_7  and  C_9
REMARK    5  A    between atoms: C_9  and  O_10
REMARK    6  A    between atoms: C_11  and  O_19
REMARK    7  A    between atoms: C_13  and  O_18
REMARK    8  A    between atoms: C_15  and  O_17
REMARK    9  A    between atoms: C_25  and  C_28
REMARK   10  A    between atoms: C_29  and  C_30
REMARK   11  A    between atoms: C_35  and  C_36
REMARK   12  A    between atoms: C_41  and  C_42
REMARK   13  A    between atoms: C_41  and  C_43
REMARK   14  A    between atoms: C_44  and  O_48
REMARK   15  A    between atoms: C_49  and  C_53
REMARK   16  A    between atoms: C_53  and  C_55
REMARK   17  A    between atoms: C_55  and  O_56
REMARK                            x       y       z     vdW  Elec       q    Type
REMARK                         _______ _______ _______ _____ _____    ______ ____
ROOT
ATOM      1  C   LIG A   1      -8.780   3.253 130.531  0.00  0.00    +0.072 C 
ATOM      2  C   LIG A   1      -7.830   4.098 129.624  0.00  0.00    +0.020 C 
ATOM      3  C   LIG A   1      -6.511   4.382 130.395  0.00  0.00    +0.000 C 
ATOM      4  C   LIG A   1      -6.755   5.234 131.711  0.00  0.00    -0.023 C 
ATOM      5  C   LIG A   1      -7.969   4.643 132.508  0.00  0.00    +0.008 C 
ATOM      6  C   LIG A   1      -8.406   3.257 132.026  0.00  0.00    +0.019 C 
ATOM      7  C   LIG A   1      -7.181   6.694 131.342  0.00  0.00    +0.012 C 
ATOM      8  C   LIG A   1      -5.387   5.241 132.585  0.00  0.00    -0.023 C 
ATOM      9  C   LIG A   1      -5.157   3.809 133.150  0.00  0.00    +0.012 C 
ATOM     10  C   LIG A   1      -4.180   5.738 131.680  0.00  0.00    +0.002 C 
ATOM     11  C   LIG A   1      -4.077   4.976 130.342  0.00  0.00    +0.005 C 
ATOM     12  C   LIG A   1      -5.387   4.988 129.554  0.00  0.00    +0.005 C 
ATOM     13  C   LIG A   1      -2.790   5.931 132.433  0.00  0.00    -0.025 C 
ATOM     14  C   LIG A   1      -2.193   4.584 132.908  0.00  0.00    +0.012 C 
ATOM     15  C   LIG A   1      -3.056   6.960 133.596  0.00  0.00    +0.003 C 
ATOM     16  C   LIG A   1      -4.165   6.455 134.545  0.00  0.00    +0.005 C 
ATOM     17  C   LIG A   1      -5.486   6.209 133.802  0.00  0.00    +0.008 C 
ATOM     18  C   LIG A   1      -1.780   7.542 134.313  0.00  0.00    -0.006 C 
ATOM     19  C   LIG A   1      -2.191   8.749 135.202  0.00  0.00    +0.014 C 
ATOM     20  C   LIG A   1      -1.088   6.535 135.252  0.00  0.00    +0.014 C 
ATOM     21  C   LIG A   1      -0.797   8.080 133.230  0.00  0.00    +0.120 C 
ATOM     22  C   LIG A   1      -0.492   7.076 132.127  0.00  0.00    +0.032 C 
ATOM     23  C   LIG A   1      -1.758   6.563 131.452  0.00  0.00    +0.010 C 
ATOM     24  C   LIG A   1      -7.676   3.272 128.314  0.00  0.00    +0.062 C 
ATOM     25  C   LIG A   1      -8.574   2.045 128.466  0.00  0.00    +0.012 C 
ATOM     26  C   LIG A   1      -8.651   1.826 129.962  0.00  0.00    +0.019 C 
ENDROOT
BRANCH   1  27
ATOM     27  C   LIG A   1     -10.226   3.776 130.387  0.00  0.00    +0.316 C 
ATOM     28  O   LIG A   1     -11.205   3.068 130.319  0.00  0.00    -0.250 OA
BRANCH  27  29
ATOM     29  O   LIG A   1     -10.237   5.129 130.319  0.00  0.00    -0.432 OA
BRANCH  29  30
ATOM     30  C   LIG A   1     -11.442   5.733 129.836  0.00  0.00    +0.342 C 
ATOM     31  O   LIG A   1     -11.179   6.226 128.520  0.00  0.00    -0.331 OA
ATOM     32  C   LIG A   1     -12.282   6.941 127.965  0.00  0.00    +0.179 C 
ATOM     33  C   LIG A   1     -12.546   8.202 128.803  0.00  0.00    +0.177 C 
ATOM     34  C   LIG A   1     -12.900   7.769 130.227  0.00  0.00    +0.180 C 
ATOM     35  C   LIG A   1     -11.807   6.876 130.813  0.00  0.00    +0.214 C 
BRANCH  35  36
ATOM     36  O   LIG A   1     -12.260   6.347 132.071  0.00  0.00    -0.383 OA
ATOM     37  H   LIG A   1     -13.211   6.573 132.120  0.00  0.00    +0.210 HD
ENDBRANCH  35  36
BRANCH  34  38
ATOM     38  O   LIG A   1     -13.065   8.926 131.064  0.00  0.00    -0.386 OA
ATOM     39  H   LIG A   1     -12.362   8.849 131.743  0.00  0.00    +0.210 HD
ENDBRANCH  34  38
BRANCH  33  40
ATOM     40  O   LIG A   1     -13.622   9.004 128.308  0.00  0.00    -0.387 OA
ATOM     41  H   LIG A   1     -14.196   8.404 127.781  0.00  0.00    +0.210 HD
ENDBRANCH  33  40
BRANCH  32  42
ATOM     42  C   LIG A   1     -11.963   7.279 126.505  0.00  0.00    +0.190 C 
BRANCH  42  43
ATOM     43  O   LIG A   1     -10.740   6.670 126.094  0.00  0.00    -0.392 OA
ATOM     44  H   LIG A   1     -10.294   7.296 125.494  0.00  0.00    +0.209 HD
ENDBRANCH  42  43
ENDBRANCH  32  42
ENDBRANCH  29  30
ENDBRANCH  27  29
ENDBRANCH   1  27
BRANCH  21  45
ATOM     45  O   LIG A   1       0.453   8.474 133.794  0.00  0.00    -0.391 OA
ATOM     46  H   LIG A   1       0.764   7.750 134.362  0.00  0.00    +0.210 HD
ENDBRANCH  21  45
BRANCH  24  47
ATOM     47  C   LIG A   1      -7.997   4.090 127.060  0.00  0.00    +0.162 C 
ATOM     48  O   LIG A   1      -8.368   5.264 127.150  0.00  0.00    -0.295 OA
BRANCH  47  49
ATOM     49  C   LIG A   1      -7.874   3.426 125.683  0.00  0.00    +0.230 C 
BRANCH  49  50
ATOM     50  O   LIG A   1      -9.087   3.455 124.947  0.00  0.00    -0.388 OA
ATOM     51  H   LIG A   1      -9.526   4.295 125.185  0.00  0.00    +0.210 HD
ENDBRANCH  49  50
ENDBRANCH  47  49
ENDBRANCH  24  47
TORSDOF 12
ENDMDL
MODEL 2
REMARK VINA RESULT:      -9.5      3.094      7.716
REMARK  Name = NuBBE_1624
REMARK  17 active torsions:
REMARK  status: ('A' for Active; 'I' for Inactive)
REMARK    1  A    between atoms: C_1  and  O_3
REMARK    2  A    between atoms: C_1  and  C_20
REMARK    3  A    between atoms: O_3  and  C_4
REMARK    4  A    between atoms: C_7  and  C_9
REMARK    5  A    between atoms: C_9  and  O_10
REMARK    6  A    between atoms: C_11  and  O_19
REMARK    7  A    between atoms: C_13  and  O_18
REMARK    8  A    between atoms: C_15  and  O_17
REMARK    9  A    between atoms: C_25  and  C_28
REMARK   10  A    between atoms: C_29  and  C_30
REMARK   11  A    between atoms: C_35  and  C_36
REMARK   12  A    between atoms: C_41  and  C_42
REMARK   13  A    between atoms: C_41  and  C_43
REMARK   14  A    between atoms: C_44  and  O_48
REMARK   15  A    between atoms: C_49  and  C_53
REMARK   16  A    between atoms: C_53  and  C_55
REMARK   17  A    between atoms: C_55  and  O_56
REMARK                            x       y       z     vdW  Elec       q    Type
REMARK                         _______ _______ _______ _____ _____    ______ ____
ROOT
ATOM      1  C   LIG A   1      -6.410   5.455 131.139  0.00  0.00    +0.072 C 
ATOM      2  C   LIG A   1      -7.200   4.354 131.914  0.00  0.00    +0.020 C 
ATOM      3  C   LIG A   1      -7.021   2.992 131.186  0.00  0.00    +0.000 C 
ATOM      4  C   LIG A   1      -7.608   3.015 129.713  0.00  0.00    -0.023 C 
ATOM      5  C   LIG A   1      -7.140   4.319 128.977  0.00  0.00    +0.008 C 
ATOM      6  C   LIG A   1      -6.016   5.066 129.701  0.00  0.00    +0.019 C 
ATOM      7  C   LIG A   1      -9.169   3.107 129.750  0.00  0.00    +0.012 C 
ATOM      8  C   LIG A   1      -7.132   1.667 128.943  0.00  0.00    -0.023 C 
ATOM      9  C   LIG A   1      -5.598   1.758 128.696  0.00  0.00    +0.012 C 
ATOM     10  C   LIG A   1      -7.534   0.395 129.803  0.00  0.00    +0.002 C 
ATOM     11  C   LIG A   1      -7.069   0.488 131.271  0.00  0.00    +0.005 C 
ATOM     12  C   LIG A   1      -7.532   1.774 131.956  0.00  0.00    +0.005 C 
ATOM     13  C   LIG A   1      -7.257  -1.016 129.117  0.00  0.00    -0.025 C 
ATOM     14  C   LIG A   1      -5.743  -1.300 128.963  0.00  0.00    +0.012 C 
ATOM     15  C   LIG A   1      -8.049  -1.008 127.755  0.00  0.00    +0.003 C 
ATOM     16  C   LIG A   1      -7.608   0.171 126.859  0.00  0.00    +0.005 C 
ATOM     17  C   LIG A   1      -7.818   1.526 127.551  0.00  0.00    +0.008 C 
ATOM     18  C   LIG A   1      -8.174  -2.394 127.016  0.00  0.00    -0.006 C 
ATOM     19  C   LIG A   1      -9.226  -2.280 125.878  0.00  0.00    +0.014 C 
ATOM     20  C   LIG A   1      -6.865  -2.855 126.346  0.00  0.00    +0.014 C 
ATOM     21  C   LIG A   1      -8.703  -3.455 128.028  0.00  0.00    +0.120 C 
ATOM     22  C   LIG A   1      -7.913  -3.508 129.329  0.00  0.00    +0.032 C 
ATOM     23  C   LIG A   1      -7.842  -2.147 130.012  0.00  0.00    +0.010 C 
ATOM     24  C   LIG A   1      -6.657   4.411 133.371  0.00  0.00    +0.062 C 
ATOM     25  C   LIG A   1      -5.651   5.560 133.415  0.00  0.00    +0.012 C 
ATOM     26  C   LIG A   1      -5.143   5.661 131.992  0.00  0.00    +0.019 C 
ENDROOT
BRANCH   1  27
ATOM     27  C   LIG A   1      -7.253   6.748 131.082  0.00  0.00    +0.316 C 
ATOM     28  O   LIG A   1      -6.899   7.771 130.542  0.00  0.00    -0.250 OA
BRANCH  27  29
ATOM     29  O   LIG A   1      -8.424   6.580 131.743  0.00  0.00    -0.432 OA
BRANCH  29  30
ATOM     30  C   LIG A   1      -9.566   6.252 130.944  0.00  0.00    +0.342 C 
ATOM     31  O   LIG A   1      -9.522   7.072 129.773  0.00  0.00    -0.331 OA
ATOM     32  C   LIG A   1     -10.666   6.906 128.938  0.00  0.00    +0.179 C 
ATOM     33  C   LIG A   1     -11.920   7.378 129.691  0.00  0.00    +0.177 C 
ATOM     34  C   LIG A   1     -12.087   6.510 130.939  0.00  0.00    +0.180 C 
ATOM     35  C   LIG A   1     -10.823   6.541 131.799  0.00  0.00    +0.214 C 
BRANCH  35  36
ATOM     36  O   LIG A   1     -10.953   5.577 132.858  0.00  0.00    -0.383 OA
ATOM     37  H   LIG A   1     -10.195   4.968 132.748  0.00  0.00    +0.210 HD
ENDBRANCH  35  36
BRANCH  34  38
ATOM     38  O   LIG A   1     -13.200   6.980 131.719  0.00  0.00    -0.386 OA
ATOM     39  H   LIG A   1     -13.994   6.625 131.267  0.00  0.00    +0.210 HD
ENDBRANCH  34  38
BRANCH  33  40
ATOM     40  O   LIG A   1     -13.122   7.276 128.923  0.00  0.00    -0.387 OA
ATOM     41  H   LIG A   1     -12.846   7.077 128.000  0.00  0.00    +0.210 HD
ENDBRANCH  33  40
BRANCH  32  42
ATOM     42  C   LIG A   1     -10.446   7.694 127.642  0.00  0.00    +0.190 C 
BRANCH  42  43
ATOM     43  O   LIG A   1     -11.021   8.997 127.731  0.00  0.00    -0.392 OA
ATOM     44  H   LIG A   1     -11.461   9.175 126.879  0.00  0.00    +0.209 HD
ENDBRANCH  42  43
ENDBRANCH  32  42
ENDBRANCH  29  30
ENDBRANCH  27  29
ENDBRANCH   1  27
BRANCH  21  45
ATOM     45  O   LIG A   1      -8.687  -4.770 127.475  0.00  0.00    -0.391 OA
ATOM     46  H   LIG A   1      -9.595  -5.112 127.496  0.00  0.00    +0.210 HD
ENDBRANCH  21  45
BRANCH  24  47
ATOM     47  C   LIG A   1      -7.772   4.559 134.411  0.00  0.00    +0.162 C 
ATOM     48  O   LIG A   1      -8.874   4.032 134.233  0.00  0.00    -0.295 OA
BRANCH  47  49
ATOM     49  C   LIG A   1      -7.512   5.392 135.671  0.00  0.00    +0.230 C 
BRANCH  49  50
ATOM     50  O   LIG A   1      -8.427   6.466 135.820  0.00  0.00    -0.388 OA
ATOM     51  H   LIG A   1      -8.096   7.184 135.245  0.00  0.00    +0.210 HD
ENDBRANCH  49  50
ENDBRANCH  47  49
ENDBRANCH  24  47
TORSDOF 12
ENDMDL
MODEL 3
REMARK VINA RESULT:      -9.0      3.682      7.046
REMARK  Name = NuBBE_1624
REMARK  17 active torsions:
REMARK  status: ('A' for Active; 'I' for Inactive)
REMARK    1  A    between atoms: C_1  and  O_3
REMARK    2  A    between atoms: C_1  and  C_20
REMARK    3  A    between atoms: O_3  and  C_4
REMARK    4  A    between atoms: C_7  and  C_9
REMARK    5  A    between atoms: C_9  and  O_10
REMARK    6  A    between atoms: C_11  and  O_19
REMARK    7  A    between atoms: C_13  and  O_18
REMARK    8  A    between atoms: C_15  and  O_17
REMARK    9  A    between atoms: C_25  and  C_28
REMARK   10  A    between atoms: C_29  and  C_30
REMARK   11  A    between atoms: C_35  and  C_36
REMARK   12  A    between atoms: C_41  and  C_42
REMARK   13  A    between atoms: C_41  and  C_43
REMARK   14  A    between atoms: C_44  and  O_48
REMARK   15  A    between atoms: C_49  and  C_53
REMARK   16  A    between atoms: C_53  and  C_55
REMARK   17  A    between atoms: C_55  and  O_56
REMARK                            x       y       z     vdW  Elec       q    Type
REMARK                         _______ _______ _______ _____ _____    ______ ____
ROOT
ATOM      1  C   LIG A   1      -5.960   5.777 131.100  0.00  0.00    +0.072 C 
ATOM      2  C   LIG A   1      -6.108   4.876 132.367  0.00  0.00    +0.020 C 
ATOM      3  C   LIG A   1      -5.682   3.424 132.010  0.00  0.00    +0.000 C 
ATOM      4  C   LIG A   1      -6.607   2.783 130.892  0.00  0.00    -0.023 C 
ATOM      5  C   LIG A   1      -6.809   3.808 129.721  0.00  0.00    +0.008 C 
ATOM      6  C   LIG A   1      -5.850   5.000 129.773  0.00  0.00    +0.019 C 
ATOM      7  C   LIG A   1      -8.042   2.522 131.456  0.00  0.00    +0.012 C 
ATOM      8  C   LIG A   1      -5.928   1.397 130.389  0.00  0.00    -0.023 C 
ATOM      9  C   LIG A   1      -4.632   1.742 129.598  0.00  0.00    +0.012 C 
ATOM     10  C   LIG A   1      -5.644   0.460 131.639  0.00  0.00    +0.002 C 
ATOM     11  C   LIG A   1      -4.870   1.177 132.766  0.00  0.00    +0.005 C 
ATOM     12  C   LIG A   1      -5.539   2.480 133.204  0.00  0.00    +0.005 C 
ATOM     13  C   LIG A   1      -5.103  -0.998 131.298  0.00  0.00    -0.025 C 
ATOM     14  C   LIG A   1      -3.677  -0.963 130.697  0.00  0.00    +0.012 C 
ATOM     15  C   LIG A   1      -6.180  -1.660 130.357  0.00  0.00    +0.003 C 
ATOM     16  C   LIG A   1      -6.406  -0.812 129.085  0.00  0.00    +0.005 C 
ATOM     17  C   LIG A   1      -6.866   0.614 129.422  0.00  0.00    +0.008 C 
ATOM     18  C   LIG A   1      -6.025  -3.207 130.105  0.00  0.00    -0.006 C 
ATOM     19  C   LIG A   1      -7.313  -3.753 129.428  0.00  0.00    +0.014 C 
ATOM     20  C   LIG A   1      -4.860  -3.564 129.161  0.00  0.00    +0.014 C 
ATOM     21  C   LIG A   1      -5.886  -3.927 131.481  0.00  0.00    +0.120 C 
ATOM     22  C   LIG A   1      -4.813  -3.329 132.380  0.00  0.00    +0.032 C 
ATOM     23  C   LIG A   1      -5.023  -1.836 132.608  0.00  0.00    +0.010 C 
ATOM     24  C   LIG A   1      -5.253   5.573 133.465  0.00  0.00    +0.062 C 
ATOM     25  C   LIG A   1      -4.713   6.860 132.843  0.00  0.00    +0.012 C 
ATOM     26  C   LIG A   1      -4.658   6.559 131.360  0.00  0.00    +0.019 C 
ENDROOT
BRANCH   1  27
ATOM     27  C   LIG A   1      -7.169   6.733 131.008  0.00  0.00    +0.316 C 
ATOM     28  O   LIG A   1      -7.160   7.792 130.421  0.00  0.00    -0.250 OA
BRANCH  27  29
ATOM     29  O   LIG A   1      -8.224   6.234 131.696  0.00  0.00    -0.432 OA
BRANCH  29  30
ATOM     30  C   LIG A   1      -9.416   5.984 130.943  0.00  0.00    +0.342 C 
ATOM     31  O   LIG A   1      -9.351   6.779 129.757  0.00  0.00    -0.331 OA
ATOM     32  C   LIG A   1     -10.534   6.690 128.965  0.00  0.00    +0.179 C 
ATOM     33  C   LIG A   1     -11.720   7.270 129.753  0.00  0.00    +0.177 C 
ATOM     34  C   LIG A   1     -11.908   6.437 131.022  0.00  0.00    +0.180 C 
ATOM     35  C   LIG A   1     -10.615   6.382 131.836  0.00  0.00    +0.214 C 
BRANCH  35  36
ATOM     36  O   LIG A   1     -10.781   5.448 132.916  0.00  0.00    -0.383 OA
ATOM     37  H   LIG A   1     -10.034   5.621 133.524  0.00  0.00    +0.210 HD
ENDBRANCH  35  36
BRANCH  34  38
ATOM     38  O   LIG A   1     -12.952   7.005 131.831  0.00  0.00    -0.386 OA
ATOM     39  H   LIG A   1     -12.509   7.274 132.663  0.00  0.00    +0.210 HD
ENDBRANCH  34  38
BRANCH  33  40
ATOM     40  O   LIG A   1     -12.953   7.250 129.029  0.00  0.00    -0.387 OA
ATOM     41  H   LIG A   1     -13.254   6.314 129.020  0.00  0.00    +0.210 HD
ENDBRANCH  33  40
BRANCH  32  42
ATOM     42  C   LIG A   1     -10.300   7.439 127.649  0.00  0.00    +0.190 C 
BRANCH  42  43
ATOM     43  O   LIG A   1     -10.778   8.780 127.730  0.00  0.00    -0.392 OA
ATOM     44  H   LIG A   1     -10.426   9.161 128.557  0.00  0.00    +0.209 HD
ENDBRANCH  42  43
ENDBRANCH  32  42
ENDBRANCH  29  30
ENDBRANCH  27  29
ENDBRANCH   1  27
BRANCH  21  45
ATOM     45  O   LIG A   1      -5.578  -5.312 131.327  0.00  0.00    -0.391 OA
ATOM     46  H   LIG A   1      -6.221  -5.692 130.707  0.00  0.00    +0.210 HD
ENDBRANCH  21  45
BRANCH  24  47
ATOM     47  C   LIG A   1      -6.041   5.824 134.755  0.00  0.00    +0.162 C 
ATOM     48  O   LIG A   1      -5.565   6.514 135.661  0.00  0.00    -0.295 OA
BRANCH  47  49
ATOM     49  C   LIG A   1      -7.425   5.185 134.920  0.00  0.00    +0.230 C 
BRANCH  49  50
ATOM     50  O   LIG A   1      -8.485   6.095 134.674  0.00  0.00    -0.388 OA
ATOM     51  H   LIG A   1      -8.078   6.873 134.247  0.00  0.00    +0.210 HD
ENDBRANCH  49  50
ENDBRANCH  47  49
ENDBRANCH  24  47
TORSDOF 12
ENDMDL
MODEL 4
REMARK VINA RESULT:      -8.9      4.026      6.758
REMARK  Name = NuBBE_1624
REMARK  17 active torsions:
REMARK  status: ('A' for Active; 'I' for Inactive)
REMARK    1  A    between atoms: C_1  and  O_3
REMARK    2  A    between atoms: C_1  and  C_20
REMARK    3  A    between atoms: O_3  and  C_4
REMARK    4  A    between atoms: C_7  and  C_9
REMARK    5  A    between atoms: C_9  and  O_10
REMARK    6  A    between atoms: C_11  and  O_19
REMARK    7  A    between atoms: C_13  and  O_18
REMARK    8  A    between atoms: C_15  and  O_17
REMARK    9  A    between atoms: C_25  and  C_28
REMARK   10  A    between atoms: C_29  and  C_30
REMARK   11  A    between atoms: C_35  and  C_36
REMARK   12  A    between atoms: C_41  and  C_42
REMARK   13  A    between atoms: C_41  and  C_43
REMARK   14  A    between atoms: C_44  and  O_48
REMARK   15  A    between atoms: C_49  and  C_53
REMARK   16  A    between atoms: C_53  and  C_55
REMARK   17  A    between atoms: C_55  and  O_56
REMARK                            x       y       z     vdW  Elec       q    Type
REMARK                         _______ _______ _______ _____ _____    ______ ____
ROOT
ATOM      1  C   LIG A   1      -7.092   3.585 127.463  0.00  0.00    +0.072 C 
ATOM      2  C   LIG A   1      -6.001   3.619 128.580  0.00  0.00    +0.020 C 
ATOM      3  C   LIG A   1      -5.683   2.164 129.024  0.00  0.00    +0.000 C 
ATOM      4  C   LIG A   1      -6.946   1.435 129.649  0.00  0.00    -0.023 C 
ATOM      5  C   LIG A   1      -8.201   1.678 128.740  0.00  0.00    +0.008 C 
ATOM      6  C   LIG A   1      -7.862   2.254 127.362  0.00  0.00    +0.019 C 
ATOM      7  C   LIG A   1      -7.314   2.073 131.030  0.00  0.00    +0.012 C 
ATOM      8  C   LIG A   1      -6.603  -0.143 129.820  0.00  0.00    -0.023 C 
ATOM      9  C   LIG A   1      -6.512  -0.783 128.405  0.00  0.00    +0.012 C 
ATOM     10  C   LIG A   1      -5.258  -0.307 130.649  0.00  0.00    +0.002 C 
ATOM     11  C   LIG A   1      -4.098   0.540 130.087  0.00  0.00    +0.005 C 
ATOM     12  C   LIG A   1      -4.464   2.017 129.935  0.00  0.00    +0.005 C 
ATOM     13  C   LIG A   1      -4.858  -1.803 131.021  0.00  0.00    -0.025 C 
ATOM     14  C   LIG A   1      -4.471  -2.629 129.770  0.00  0.00    +0.012 C 
ATOM     15  C   LIG A   1      -6.071  -2.397 131.832  0.00  0.00    +0.003 C 
ATOM     16  C   LIG A   1      -7.377  -2.333 131.009  0.00  0.00    +0.005 C 
ATOM     17  C   LIG A   1      -7.725  -0.895 130.598  0.00  0.00    +0.008 C 
ATOM     18  C   LIG A   1      -5.812  -3.768 132.563  0.00  0.00    -0.006 C 
ATOM     19  C   LIG A   1      -6.977  -4.055 133.551  0.00  0.00    +0.014 C 
ATOM     20  C   LIG A   1      -5.755  -4.975 131.607  0.00  0.00    +0.014 C 
ATOM     21  C   LIG A   1      -4.509  -3.646 133.409  0.00  0.00    +0.120 C 
ATOM     22  C   LIG A   1      -3.315  -3.121 132.623  0.00  0.00    +0.032 C 
ATOM     23  C   LIG A   1      -3.612  -1.784 131.955  0.00  0.00    +0.010 C 
ATOM     24  C   LIG A   1      -4.809   4.406 127.962  0.00  0.00    +0.062 C 
ATOM     25  C   LIG A   1      -5.260   4.857 126.574  0.00  0.00    +0.012 C 
ATOM     26  C   LIG A   1      -6.293   3.827 126.167  0.00  0.00    +0.019 C 
ENDROOT
BRANCH   1  27
ATOM     27  C   LIG A   1      -8.109   4.721 127.705  0.00  0.00    +0.316 C 
ATOM     28  O   LIG A   1      -8.855   5.163 126.859  0.00  0.00    -0.250 OA
BRANCH  27  29
ATOM     29  O   LIG A   1      -8.028   5.168 128.981  0.00  0.00    -0.432 OA
BRANCH  29  30
ATOM     30  C   LIG A   1      -9.195   4.996 129.792  0.00  0.00    +0.342 C 
ATOM     31  O   LIG A   1     -10.273   5.678 129.147  0.00  0.00    -0.331 OA
ATOM     32  C   LIG A   1     -11.477   5.662 129.912  0.00  0.00    +0.179 C 
ATOM     33  C   LIG A   1     -11.259   6.437 131.222  0.00  0.00    +0.177 C 
ATOM     34  C   LIG A   1     -10.156   5.738 132.017  0.00  0.00    +0.180 C 
ATOM     35  C   LIG A   1      -8.883   5.602 131.181  0.00  0.00    +0.214 C 
BRANCH  35  36
ATOM     36  O   LIG A   1      -7.939   4.786 131.895  0.00  0.00    -0.383 OA
ATOM     37  H   LIG A   1      -8.069   5.006 132.840  0.00  0.00    +0.210 HD
ENDBRANCH  35  36
BRANCH  34  38
ATOM     38  O   LIG A   1      -9.861   6.487 133.208  0.00  0.00    -0.386 OA
ATOM     39  H   LIG A   1      -8.938   6.796 133.091  0.00  0.00    +0.210 HD
ENDBRANCH  34  38
BRANCH  33  40
ATOM     40  O   LIG A   1     -12.423   6.500 132.050  0.00  0.00    -0.387 OA
ATOM     41  H   LIG A   1     -12.762   5.580 132.123  0.00  0.00    +0.210 HD
ENDBRANCH  33  40
BRANCH  32  42
ATOM     42  C   LIG A   1     -12.603   6.267 129.068  0.00  0.00    +0.190 C 
BRANCH  42  43
ATOM     43  O   LIG A   1     -12.155   6.548 127.743  0.00  0.00    -0.392 OA
ATOM     44  H   LIG A   1     -11.803   7.458 127.746  0.00  0.00    +0.209 HD
ENDBRANCH  42  43
ENDBRANCH  32  42
ENDBRANCH  29  30
ENDBRANCH  27  29
ENDBRANCH   1  27
BRANCH  21  45
ATOM     45  O   LIG A   1      -4.122  -4.899 133.971  0.00  0.00    -0.391 OA
ATOM     46  H   LIG A   1      -4.668  -5.054 134.758  0.00  0.00    +0.210 HD
ENDBRANCH  21  45
BRANCH  24  47
ATOM     47  C   LIG A   1      -4.352   5.572 128.845  0.00  0.00    +0.162 C 
ATOM     48  O   LIG A   1      -3.512   6.380 128.438  0.00  0.00    -0.295 OA
BRANCH  47  49
ATOM     49  C   LIG A   1      -4.933   5.712 130.257  0.00  0.00    +0.230 C 
BRANCH  49  50
ATOM     50  O   LIG A   1      -5.910   6.736 130.351  0.00  0.00    -0.388 OA
ATOM     51  H   LIG A   1      -6.693   6.408 129.868  0.00  0.00    +0.210 HD
ENDBRANCH  49  50
ENDBRANCH  47  49
ENDBRANCH  24  47
TORSDOF 12
ENDMDL
MODEL 5
REMARK VINA RESULT:      -8.7      3.796      9.342
REMARK  Name = NuBBE_1624
REMARK  17 active torsions:
REMARK  status: ('A' for Active; 'I' for Inactive)
REMARK    1  A    between atoms: C_1  and  O_3
REMARK    2  A    between atoms: C_1  and  C_20
REMARK    3  A    between atoms: O_3  and  C_4
REMARK    4  A    between atoms: C_7  and  C_9
REMARK    5  A    between atoms: C_9  and  O_10
REMARK    6  A    between atoms: C_11  and  O_19
REMARK    7  A    between atoms: C_13  and  O_18
REMARK    8  A    between atoms: C_15  and  O_17
REMARK    9  A    between atoms: C_25  and  C_28
REMARK   10  A    between atoms: C_29  and  C_30
REMARK   11  A    between atoms: C_35  and  C_36
REMARK   12  A    between atoms: C_41  and  C_42
REMARK   13  A    between atoms: C_41  and  C_43
REMARK   14  A    between atoms: C_44  and  O_48
REMARK   15  A    between atoms: C_49  and  C_53
REMARK   16  A    between atoms: C_53  and  C_55
REMARK   17  A    between atoms: C_55  and  O_56
REMARK                            x       y       z     vdW  Elec       q    Type
REMARK                         _______ _______ _______ _____ _____    ______ ____
ROOT
ATOM      1  C   LIG A   1      -7.379   2.375 131.771  0.00  0.00    +0.072 C 
ATOM      2  C   LIG A   1      -7.687   3.066 130.404  0.00  0.00    +0.020 C 
ATOM      3  C   LIG A   1      -7.867   1.975 129.312  0.00  0.00    +0.000 C 
ATOM      4  C   LIG A   1      -6.550   1.117 129.096  0.00  0.00    -0.023 C 
ATOM      5  C   LIG A   1      -5.964   0.688 130.486  0.00  0.00    +0.008 C 
ATOM      6  C   LIG A   1      -6.928   0.906 131.656  0.00  0.00    +0.019 C 
ATOM      7  C   LIG A   1      -5.433   1.991 128.435  0.00  0.00    +0.012 C 
ATOM      8  C   LIG A   1      -6.909  -0.158 128.158  0.00  0.00    -0.023 C 
ATOM      9  C   LIG A   1      -7.814  -1.129 128.971  0.00  0.00    +0.012 C 
ATOM     10  C   LIG A   1      -7.606   0.344 126.822  0.00  0.00    +0.002 C 
ATOM     11  C   LIG A   1      -8.791   1.298 127.083  0.00  0.00    +0.005 C 
ATOM     12  C   LIG A   1      -8.412   2.480 127.976  0.00  0.00    +0.005 C 
ATOM     13  C   LIG A   1      -7.897  -0.780 125.732  0.00  0.00    -0.025 C 
ATOM     14  C   LIG A   1      -8.979  -1.781 126.205  0.00  0.00    +0.012 C 
ATOM     15  C   LIG A   1      -6.507  -1.446 125.403  0.00  0.00    +0.003 C 
ATOM     16  C   LIG A   1      -5.851  -2.026 126.675  0.00  0.00    +0.005 C 
ATOM     17  C   LIG A   1      -5.631  -0.950 127.748  0.00  0.00    +0.008 C 
ATOM     18  C   LIG A   1      -6.473  -2.394 124.145  0.00  0.00    -0.006 C 
ATOM     19  C   LIG A   1      -4.997  -2.715 123.779  0.00  0.00    +0.014 C 
ATOM     20  C   LIG A   1      -7.162  -3.753 124.379  0.00  0.00    +0.014 C 
ATOM     21  C   LIG A   1      -7.096  -1.639 122.932  0.00  0.00    +0.120 C 
ATOM     22  C   LIG A   1      -8.463  -1.034 123.223  0.00  0.00    +0.032 C 
ATOM     23  C   LIG A   1      -8.434  -0.110 124.434  0.00  0.00    +0.010 C 
ATOM     24  C   LIG A   1      -8.935   3.958 130.670  0.00  0.00    +0.062 C 
ATOM     25  C   LIG A   1      -9.258   3.820 132.157  0.00  0.00    +0.012 C 
ATOM     26  C   LIG A   1      -8.720   2.454 132.528  0.00  0.00    +0.019 C 
ENDROOT
BRANCH   1  27
ATOM     27  C   LIG A   1      -6.280   3.169 132.509  0.00  0.00    +0.316 C 
ATOM     28  O   LIG A   1      -6.174   3.230 133.714  0.00  0.00    -0.250 OA
BRANCH  27  29
ATOM     29  O   LIG A   1      -5.474   3.802 131.623  0.00  0.00    -0.432 OA
BRANCH  29  30
ATOM     30  C   LIG A   1      -4.614   4.816 132.155  0.00  0.00    +0.342 C 
ATOM     31  O   LIG A   1      -4.584   5.892 131.215  0.00  0.00    -0.331 OA
ATOM     32  C   LIG A   1      -3.678   6.929 131.589  0.00  0.00    +0.179 C 
ATOM     33  C   LIG A   1      -2.244   6.378 131.589  0.00  0.00    +0.177 C 
ATOM     34  C   LIG A   1      -2.161   5.251 132.620  0.00  0.00    +0.180 C 
ATOM     35  C   LIG A   1      -3.216   4.180 132.344  0.00  0.00    +0.214 C 
BRANCH  35  36
ATOM     36  O   LIG A   1      -3.225   3.239 133.431  0.00  0.00    -0.383 OA
ATOM     37  H   LIG A   1      -2.326   3.281 133.816  0.00  0.00    +0.210 HD
ENDBRANCH  35  36
BRANCH  34  38
ATOM     38  O   LIG A   1      -0.856   4.649 132.584  0.00  0.00    -0.386 OA
ATOM     39  H   LIG A   1      -0.293   5.294 132.107  0.00  0.00    +0.210 HD
ENDBRANCH  34  38
BRANCH  33  40
ATOM     40  O   LIG A   1      -1.255   7.354 131.927  0.00  0.00    -0.387 OA
ATOM     41  H   LIG A   1      -0.398   6.874 131.981  0.00  0.00    +0.210 HD
ENDBRANCH  33  40
BRANCH  32  42
ATOM     42  C   LIG A   1      -3.843   8.099 130.613  0.00  0.00    +0.190 C 
BRANCH  42  43
ATOM     43  O   LIG A   1      -4.732   7.758 129.551  0.00  0.00    -0.392 OA
ATOM     44  H   LIG A   1      -5.633   7.992 129.844  0.00  0.00    +0.209 HD
ENDBRANCH  42  43
ENDBRANCH  32  42
ENDBRANCH  29  30
ENDBRANCH  27  29
ENDBRANCH   1  27
BRANCH  21  45
ATOM     45  O   LIG A   1      -7.249  -2.492 121.798  0.00  0.00    -0.391 OA
ATOM     46  H   LIG A   1      -7.167  -1.944 121.000  0.00  0.00    +0.210 HD
ENDBRANCH  21  45
BRANCH  24  47
ATOM     47  C   LIG A   1      -8.721   5.413 130.242  0.00  0.00    +0.162 C 
ATOM     48  O   LIG A   1      -8.936   5.766 129.079  0.00  0.00    -0.295 OA
BRANCH  47  49
ATOM     49  C   LIG A   1      -8.212   6.427 131.272  0.00  0.00    +0.230 C 
BRANCH  49  50
ATOM     50  O   LIG A   1      -7.220   7.296 130.747  0.00  0.00    -0.388 OA
ATOM     51  H   LIG A   1      -7.602   8.194 130.784  0.00  0.00    +0.210 HD
ENDBRANCH  49  50
ENDBRANCH  47  49
ENDBRANCH  24  47
TORSDOF 12
ENDMDL
MODEL 6
REMARK VINA RESULT:      -8.7      3.412      5.878
REMARK  Name = NuBBE_1624
REMARK  17 active torsions:
REMARK  status: ('A' for Active; 'I' for Inactive)
REMARK    1  A    between atoms: C_1  and  O_3
REMARK    2  A    between atoms: C_1  and  C_20
REMARK    3  A    between atoms: O_3  and  C_4
REMARK    4  A    between atoms: C_7  and  C_9
REMARK    5  A    between atoms: C_9  and  O_10
REMARK    6  A    between atoms: C_11  and  O_19
REMARK    7  A    between atoms: C_13  and  O_18
REMARK    8  A    between atoms: C_15  and  O_17
REMARK    9  A    between atoms: C_25  and  C_28
REMARK   10  A    between atoms: C_29  and  C_30
REMARK   11  A    between atoms: C_35  and  C_36
REMARK   12  A    between atoms: C_41  and  C_42
REMARK   13  A    between atoms: C_41  and  C_43
REMARK   14  A    between atoms: C_44  and  O_48
REMARK   15  A    between atoms: C_49  and  C_53
REMARK   16  A    between atoms: C_53  and  C_55
REMARK   17  A    between atoms: C_55  and  O_56
REMARK                            x       y       z     vdW  Elec       q    Type
REMARK                         _______ _______ _______ _____ _____    ______ ____
ROOT
ATOM      1  C   LIG A   1      -6.088   3.618 129.271  0.00  0.00    +0.072 C 
ATOM      2  C   LIG A   1      -5.317   4.918 129.661  0.00  0.00    +0.020 C 
ATOM      3  C   LIG A   1      -5.253   5.026 131.210  0.00  0.00    +0.000 C 
ATOM      4  C   LIG A   1      -6.693   5.143 131.865  0.00  0.00    -0.023 C 
ATOM      5  C   LIG A   1      -7.650   4.073 131.233  0.00  0.00    +0.008 C 
ATOM      6  C   LIG A   1      -6.924   3.005 130.411  0.00  0.00    +0.019 C 
ATOM      7  C   LIG A   1      -7.339   6.525 131.516  0.00  0.00    +0.012 C 
ATOM      8  C   LIG A   1      -6.547   4.969 133.473  0.00  0.00    -0.023 C 
ATOM      9  C   LIG A   1      -6.159   3.492 133.774  0.00  0.00    +0.012 C 
ATOM     10  C   LIG A   1      -5.476   6.002 134.025  0.00  0.00    +0.002 C 
ATOM     11  C   LIG A   1      -4.140   5.954 133.255  0.00  0.00    +0.005 C 
ATOM     12  C   LIG A   1      -4.322   6.115 131.745  0.00  0.00    +0.005 C 
ATOM     13  C   LIG A   1      -5.319   6.051 135.609  0.00  0.00    -0.025 C 
ATOM     14  C   LIG A   1      -4.704   4.746 136.172  0.00  0.00    +0.012 C 
ATOM     15  C   LIG A   1      -6.746   6.388 136.185  0.00  0.00    +0.003 C 
ATOM     16  C   LIG A   1      -7.790   5.342 135.736  0.00  0.00    +0.005 C 
ATOM     17  C   LIG A   1      -7.892   5.254 134.207  0.00  0.00    +0.008 C 
ATOM     18  C   LIG A   1      -6.805   6.775 137.711  0.00  0.00    -0.006 C 
ATOM     19  C   LIG A   1      -8.202   7.370 138.040  0.00  0.00    +0.014 C 
ATOM     20  C   LIG A   1      -6.616   5.575 138.658  0.00  0.00    +0.014 C 
ATOM     21  C   LIG A   1      -5.752   7.891 137.985  0.00  0.00    +0.120 C 
ATOM     22  C   LIG A   1      -4.356   7.555 137.478  0.00  0.00    +0.032 C 
ATOM     23  C   LIG A   1      -4.353   7.210 135.994  0.00  0.00    +0.010 C 
ATOM     24  C   LIG A   1      -3.941   4.809 128.940  0.00  0.00    +0.062 C 
ATOM     25  C   LIG A   1      -3.984   3.522 128.118  0.00  0.00    +0.012 C 
ATOM     26  C   LIG A   1      -4.968   2.642 128.858  0.00  0.00    +0.019 C 
ENDROOT
BRANCH   1  27
ATOM     27  C   LIG A   1      -7.027   3.916 128.082  0.00  0.00    +0.316 C 
ATOM     28  O   LIG A   1      -7.839   4.813 128.061  0.00  0.00    -0.250 OA
BRANCH  27  29
ATOM     29  O   LIG A   1      -6.831   3.019 127.085  0.00  0.00    -0.432 OA
BRANCH  29  30
ATOM     30  C   LIG A   1      -8.007   2.441 126.508  0.00  0.00    +0.342 C 
ATOM     31  O   LIG A   1      -7.807   1.026 126.448  0.00  0.00    -0.331 OA
ATOM     32  C   LIG A   1      -8.878   0.343 125.798  0.00  0.00    +0.179 C 
ATOM     33  C   LIG A   1      -8.946   0.784 124.327  0.00  0.00    +0.177 C 
ATOM     34  C   LIG A   1      -9.222   2.289 124.288  0.00  0.00    +0.180 C 
ATOM     35  C   LIG A   1      -8.176   3.056 125.098  0.00  0.00    +0.214 C 
BRANCH  35  36
ATOM     36  O   LIG A   1      -8.572   4.435 125.186  0.00  0.00    -0.383 OA
ATOM     37  H   LIG A   1      -9.194   4.574 124.443  0.00  0.00    +0.210 HD
ENDBRANCH  35  36
BRANCH  34  38
ATOM     38  O   LIG A   1      -9.203   2.755 122.929  0.00  0.00    -0.386 OA
ATOM     39  H   LIG A   1      -8.329   2.480 122.579  0.00  0.00    +0.210 HD
ENDBRANCH  34  38
BRANCH  33  40
ATOM     40  O   LIG A   1      -9.976   0.131 123.581  0.00  0.00    -0.387 OA
ATOM     41  H   LIG A   1      -9.933  -0.821 123.823  0.00  0.00    +0.210 HD
ENDBRANCH  33  40
BRANCH  32  42
ATOM     42  C   LIG A   1      -8.650  -1.166 125.934  0.00  0.00    +0.190 C 
BRANCH  42  43
ATOM     43  O   LIG A   1      -9.840  -1.893 125.632  0.00  0.00    -0.392 OA
ATOM     44  H   LIG A   1     -10.593  -1.316 125.856  0.00  0.00    +0.209 HD
ENDBRANCH  42  43
ENDBRANCH  32  42
ENDBRANCH  29  30
ENDBRANCH  27  29
ENDBRANCH   1  27
BRANCH  21  45
ATOM     45  O   LIG A   1      -5.633   8.178 139.378  0.00  0.00    -0.391 OA
ATOM     46  H   LIG A   1      -6.529   8.275 139.739  0.00  0.00    +0.210 HD
ENDBRANCH  21  45
BRANCH  24  47
ATOM     47  C   LIG A   1      -3.619   6.043 128.093  0.00  0.00    +0.162 C 
ATOM     48  O   LIG A   1      -4.423   6.460 127.253  0.00  0.00    -0.295 OA
BRANCH  47  49
ATOM     49  C   LIG A   1      -2.271   6.748 128.282  0.00  0.00    +0.230 C 
BRANCH  49  50
ATOM     50  O   LIG A   1      -1.668   6.457 129.533  0.00  0.00    -0.388 OA
ATOM     51  H   LIG A   1      -2.344   5.983 130.054  0.00  0.00    +0.210 HD
ENDBRANCH  49  50
ENDBRANCH  47  49
ENDBRANCH  24  47
TORSDOF 12
ENDMDL
MODEL 7
REMARK VINA RESULT:      -8.5      4.185      7.145
REMARK  Name = NuBBE_1624
REMARK  17 active torsions:
REMARK  status: ('A' for Active; 'I' for Inactive)
REMARK    1  A    between atoms: C_1  and  O_3
REMARK    2  A    between atoms: C_1  and  C_20
REMARK    3  A    between atoms: O_3  and  C_4
REMARK    4  A    between atoms: C_7  and  C_9
REMARK    5  A    between atoms: C_9  and  O_10
REMARK    6  A    between atoms: C_11  and  O_19
REMARK    7  A    between atoms: C_13  and  O_18
REMARK    8  A    between atoms: C_15  and  O_17
REMARK    9  A    between atoms: C_25  and  C_28
REMARK   10  A    between atoms: C_29  and  C_30
REMARK   11  A    between atoms: C_35  and  C_36
REMARK   12  A    between atoms: C_41  and  C_42
REMARK   13  A    between atoms: C_41  and  C_43
REMARK   14  A    between atoms: C_44  and  O_48
REMARK   15  A    between atoms: C_49  and  C_53
REMARK   16  A    between atoms: C_53  and  C_55
REMARK   17  A    between atoms: C_55  and  O_56
REMARK                            x       y       z     vdW  Elec       q    Type
REMARK                         _______ _______ _______ _____ _____    ______ ____
ROOT
ATOM      1  C   LIG A   1      -7.219   3.247 127.296  0.00  0.00    +0.072 C 
ATOM      2  C   LIG A   1      -6.128   3.335 128.410  0.00  0.00    +0.020 C 
ATOM      3  C   LIG A   1      -5.769   1.899 128.884  0.00  0.00    +0.000 C 
ATOM      4  C   LIG A   1      -7.010   1.149 129.526  0.00  0.00    -0.023 C 
ATOM      5  C   LIG A   1      -8.272   1.337 128.615  0.00  0.00    +0.008 C 
ATOM      6  C   LIG A   1      -7.951   1.893 127.224  0.00  0.00    +0.019 C 
ATOM      7  C   LIG A   1      -7.394   1.805 130.894  0.00  0.00    +0.012 C 
ATOM      8  C   LIG A   1      -6.623  -0.415 129.730  0.00  0.00    -0.023 C 
ATOM      9  C   LIG A   1      -6.515  -1.082 128.328  0.00  0.00    +0.012 C 
ATOM     10  C   LIG A   1      -5.273  -0.524 130.559  0.00  0.00    +0.002 C 
ATOM     11  C   LIG A   1      -4.137   0.343 129.978  0.00  0.00    +0.005 C 
ATOM     12  C   LIG A   1      -4.545   1.805 129.796  0.00  0.00    +0.005 C 
ATOM     13  C   LIG A   1      -4.830  -2.000 130.962  0.00  0.00    -0.025 C 
ATOM     14  C   LIG A   1      -4.422  -2.842 129.728  0.00  0.00    +0.012 C 
ATOM     15  C   LIG A   1      -6.026  -2.611 131.787  0.00  0.00    +0.003 C 
ATOM     16  C   LIG A   1      -7.334  -2.600 130.966  0.00  0.00    +0.005 C 
ATOM     17  C   LIG A   1      -7.722  -1.182 130.525  0.00  0.00    +0.008 C 
ATOM     18  C   LIG A   1      -5.728  -3.958 132.547  0.00  0.00    -0.006 C 
ATOM     19  C   LIG A   1      -6.883  -4.257 133.543  0.00  0.00    +0.014 C 
ATOM     20  C   LIG A   1      -5.637  -5.183 131.616  0.00  0.00    +0.014 C 
ATOM     21  C   LIG A   1      -4.427  -3.782 133.388  0.00  0.00    +0.120 C 
ATOM     22  C   LIG A   1      -3.249  -3.241 132.589  0.00  0.00    +0.032 C 
ATOM     23  C   LIG A   1      -3.585  -1.927 131.893  0.00  0.00    +0.010 C 
ATOM     24  C   LIG A   1      -4.959   4.142 127.774  0.00  0.00    +0.062 C 
ATOM     25  C   LIG A   1      -5.424   4.551 126.377  0.00  0.00    +0.012 C 
ATOM     26  C   LIG A   1      -6.428   3.485 125.994  0.00  0.00    +0.019 C 
ENDROOT
BRANCH   1  27
ATOM     27  C   LIG A   1      -8.267   4.359 127.516  0.00  0.00    +0.316 C 
ATOM     28  O   LIG A   1      -8.383   5.338 126.812  0.00  0.00    -0.250 OA
BRANCH  27  29
ATOM     29  O   LIG A   1      -9.012   4.099 128.616  0.00  0.00    -0.432 OA
BRANCH  29  30
ATOM     30  C   LIG A   1      -9.047   5.120 129.619  0.00  0.00    +0.342 C 
ATOM     31  O   LIG A   1      -8.201   4.699 130.692  0.00  0.00    -0.331 OA
ATOM     32  C   LIG A   1      -8.228   5.594 131.803  0.00  0.00    +0.179 C 
ATOM     33  C   LIG A   1      -9.640   5.610 132.410  0.00  0.00    +0.177 C 
ATOM     34  C   LIG A   1     -10.616   6.112 131.345  0.00  0.00    +0.180 C 
ATOM     35  C   LIG A   1     -10.519   5.267 130.074  0.00  0.00    +0.214 C 
BRANCH  35  36
ATOM     36  O   LIG A   1     -11.313   5.879 129.044  0.00  0.00    -0.383 OA
ATOM     37  H   LIG A   1     -10.765   6.610 128.694  0.00  0.00    +0.210 HD
ENDBRANCH  35  36
BRANCH  34  38
ATOM     38  O   LIG A   1     -11.962   6.056 131.847  0.00  0.00    -0.386 OA
ATOM     39  H   LIG A   1     -12.500   6.537 131.185  0.00  0.00    +0.210 HD
ENDBRANCH  34  38
BRANCH  33  40
ATOM     40  O   LIG A   1      -9.762   6.463 133.552  0.00  0.00    -0.387 OA
ATOM     41  H   LIG A   1      -9.101   6.146 134.207  0.00  0.00    +0.210 HD
ENDBRANCH  33  40
BRANCH  32  42
ATOM     42  C   LIG A   1      -7.173   5.146 132.819  0.00  0.00    +0.190 C 
BRANCH  42  43
ATOM     43  O   LIG A   1      -7.754   4.332 133.836  0.00  0.00    -0.392 OA
ATOM     44  H   LIG A   1      -8.448   4.863 134.268  0.00  0.00    +0.209 HD
ENDBRANCH  42  43
ENDBRANCH  32  42
ENDBRANCH  29  30
ENDBRANCH  27  29
ENDBRANCH   1  27
BRANCH  21  45
ATOM     45  O   LIG A   1      -4.004  -5.012 133.975  0.00  0.00    -0.391 OA
ATOM     46  H   LIG A   1      -3.996  -5.688 133.277  0.00  0.00    +0.210 HD
ENDBRANCH  21  45
BRANCH  24  47
ATOM     47  C   LIG A   1      -4.534   5.338 128.631  0.00  0.00    +0.162 C 
ATOM     48  O   LIG A   1      -5.281   5.784 129.507  0.00  0.00    -0.295 OA
BRANCH  47  49
ATOM     49  C   LIG A   1      -3.173   5.995 128.373  0.00  0.00    +0.230 C 
BRANCH  49  50
ATOM     50  O   LIG A   1      -2.257   5.129 127.722  0.00  0.00    -0.388 OA
ATOM     51  H   LIG A   1      -2.623   4.228 127.819  0.00  0.00    +0.210 HD
ENDBRANCH  49  50
ENDBRANCH  47  49
ENDBRANCH  24  47
TORSDOF 12
ENDMDL
MODEL 8
REMARK VINA RESULT:      -8.3      3.764      5.658
REMARK  Name = NuBBE_1624
REMARK  17 active torsions:
REMARK  status: ('A' for Active; 'I' for Inactive)
REMARK    1  A    between atoms: C_1  and  O_3
REMARK    2  A    between atoms: C_1  and  C_20
REMARK    3  A    between atoms: O_3  and  C_4
REMARK    4  A    between atoms: C_7  and  C_9
REMARK    5  A    between atoms: C_9  and  O_10
REMARK    6  A    between atoms: C_11  and  O_19
REMARK    7  A    between atoms: C_13  and  O_18
REMARK    8  A    between atoms: C_15  and  O_17
REMARK    9  A    between atoms: C_25  and  C_28
REMARK   10  A    between atoms: C_29  and  C_30
REMARK   11  A    between atoms: C_35  and  C_36
REMARK   12  A    between atoms: C_41  and  C_42
REMARK   13  A    between atoms: C_41  and  C_43
REMARK   14  A    between atoms: C_44  and  O_48
REMARK   15  A    between atoms: C_49  and  C_53
REMARK   16  A    between atoms: C_53  and  C_55
REMARK   17  A    between atoms: C_55  and  O_56
REMARK                            x       y       z     vdW  Elec       q    Type
REMARK                         _______ _______ _______ _____ _____    ______ ____
ROOT
ATOM      1  C   LIG A   1      -5.689   3.146 130.029  0.00  0.00    +0.072 C 
ATOM      2  C   LIG A   1      -4.888   4.448 130.351  0.00  0.00    +0.020 C 
ATOM      3  C   LIG A   1      -4.963   4.727 131.878  0.00  0.00    +0.000 C 
ATOM      4  C   LIG A   1      -6.449   4.980 132.371  0.00  0.00    -0.023 C 
ATOM      5  C   LIG A   1      -7.400   3.889 131.767  0.00  0.00    +0.008 C 
ATOM      6  C   LIG A   1      -6.660   2.704 131.141  0.00  0.00    +0.019 C 
ATOM      7  C   LIG A   1      -6.984   6.341 131.813  0.00  0.00    +0.012 C 
ATOM      8  C   LIG A   1      -6.464   4.982 133.994  0.00  0.00    -0.023 C 
ATOM      9  C   LIG A   1      -6.186   3.533 134.491  0.00  0.00    +0.012 C 
ATOM     10  C   LIG A   1      -5.394   6.023 134.534  0.00  0.00    +0.002 C 
ATOM     11  C   LIG A   1      -3.996   5.829 133.910  0.00  0.00    +0.005 C 
ATOM     12  C   LIG A   1      -4.028   5.827 132.381  0.00  0.00    +0.005 C 
ATOM     13  C   LIG A   1      -5.382   6.243 136.112  0.00  0.00    -0.025 C 
ATOM     14  C   LIG A   1      -4.895   4.985 136.870  0.00  0.00    +0.012 C 
ATOM     15  C   LIG A   1      -6.836   6.706 136.504  0.00  0.00    +0.003 C 
ATOM     16  C   LIG A   1      -7.890   5.663 136.071  0.00  0.00    +0.005 C 
ATOM     17  C   LIG A   1      -7.853   5.407 134.557  0.00  0.00    +0.008 C 
ATOM     18  C   LIG A   1      -7.015   7.265 137.966  0.00  0.00    -0.006 C 
ATOM     19  C   LIG A   1      -8.403   7.954 138.089  0.00  0.00    +0.014 C 
ATOM     20  C   LIG A   1      -6.982   6.172 139.052  0.00  0.00    +0.014 C 
ATOM     21  C   LIG A   1      -5.933   8.357 138.221  0.00  0.00    +0.120 C 
ATOM     22  C   LIG A   1      -4.517   7.905 137.894  0.00  0.00    +0.032 C 
ATOM     23  C   LIG A   1      -4.394   7.395 136.463  0.00  0.00    +0.010 C 
ATOM     24  C   LIG A   1      -3.459   4.197 129.785  0.00  0.00    +0.062 C 
ATOM     25  C   LIG A   1      -3.495   2.828 129.106  0.00  0.00    +0.012 C 
ATOM     26  C   LIG A   1      -4.592   2.082 129.837  0.00  0.00    +0.019 C 
ENDROOT
BRANCH   1  27
ATOM     27  C   LIG A   1      -6.496   3.349 128.728  0.00  0.00    +0.316 C 
ATOM     28  O   LIG A   1      -6.815   4.429 128.284  0.00  0.00    -0.250 OA
BRANCH  27  29
ATOM     29  O   LIG A   1      -6.815   2.154 128.176  0.00  0.00    -0.432 OA
BRANCH  29  30
ATOM     30  C   LIG A   1      -6.900   2.115 126.747  0.00  0.00    +0.342 C 
ATOM     31  O   LIG A   1      -6.375   3.348 126.250  0.00  0.00    -0.331 OA
ATOM     32  C   LIG A   1      -6.495   3.470 124.834  0.00  0.00    +0.179 C 
ATOM     33  C   LIG A   1      -7.982   3.502 124.448  0.00  0.00    +0.177 C 
ATOM     34  C   LIG A   1      -8.622   2.184 124.888  0.00  0.00    +0.180 C 
ATOM     35  C   LIG A   1      -8.393   1.937 126.380  0.00  0.00    +0.214 C 
BRANCH  35  36
ATOM     36  O   LIG A   1      -8.847   0.614 126.711  0.00  0.00    -0.383 OA
ATOM     37  H   LIG A   1      -8.542   0.045 125.976  0.00  0.00    +0.210 HD
ENDBRANCH  35  36
BRANCH  34  38
ATOM     38  O   LIG A   1     -10.035   2.213 124.626  0.00  0.00    -0.386 OA
ATOM     39  H   LIG A   1     -10.256   1.304 124.332  0.00  0.00    +0.210 HD
ENDBRANCH  34  38
BRANCH  33  40
ATOM     40  O   LIG A   1      -8.207   3.650 123.044  0.00  0.00    -0.387 OA
ATOM     41  H   LIG A   1      -7.436   3.237 122.594  0.00  0.00    +0.210 HD
ENDBRANCH  33  40
BRANCH  32  42
ATOM     42  C   LIG A   1      -5.760   4.739 124.387  0.00  0.00    +0.190 C 
BRANCH  42  43
ATOM     43  O   LIG A   1      -5.645   4.791 122.966  0.00  0.00    -0.392 OA
ATOM     44  H   LIG A   1      -6.506   4.518 122.598  0.00  0.00    +0.209 HD
ENDBRANCH  42  43
ENDBRANCH  32  42
ENDBRANCH  29  30
ENDBRANCH  27  29
ENDBRANCH   1  27
BRANCH  21  45
ATOM     45  O   LIG A   1      -5.929   8.794 139.580  0.00  0.00    -0.391 OA
ATOM     46  H   LIG A   1      -6.320   8.088 140.120  0.00  0.00    +0.210 HD
ENDBRANCH  21  45
BRANCH  24  47
ATOM     47  C   LIG A   1      -2.993   5.313 128.845  0.00  0.00    +0.162 C 
ATOM     48  O   LIG A   1      -2.252   6.212 129.253  0.00  0.00    -0.295 OA
BRANCH  47  49
ATOM     49  C   LIG A   1      -3.477   5.315 127.391  0.00  0.00    +0.230 C 
BRANCH  49  50
ATOM     50  O   LIG A   1      -4.723   5.975 127.226  0.00  0.00    -0.388 OA
ATOM     51  H   LIG A   1      -4.847   6.520 128.028  0.00  0.00    +0.210 HD
ENDBRANCH  49  50
ENDBRANCH  47  49
ENDBRANCH  24  47
TORSDOF 12
ENDMDL
MODEL 9
REMARK VINA RESULT:      -8.1      4.542      6.855
REMARK  Name = NuBBE_1624
REMARK  17 active torsions:
REMARK  status: ('A' for Active; 'I' for Inactive)
REMARK    1  A    between atoms: C_1  and  O_3
REMARK    2  A    between atoms: C_1  and  C_20
REMARK    3  A    between atoms: O_3  and  C_4
REMARK    4  A    between atoms: C_7  and  C_9
REMARK    5  A    between atoms: C_9  and  O_10
REMARK    6  A    between atoms: C_11  and  O_19
REMARK    7  A    between atoms: C_13  and  O_18
REMARK    8  A    between atoms: C_15  and  O_17
REMARK    9  A    between atoms: C_25  and  C_28
REMARK   10  A    between atoms: C_29  and  C_30
REMARK   11  A    between atoms: C_35  and  C_36
REMARK   12  A    between atoms: C_41  and  C_42
REMARK   13  A    between atoms: C_41  and  C_43
REMARK   14  A    between atoms: C_44  and  O_48
REMARK   15  A    between atoms: C_49  and  C_53
REMARK   16  A    between atoms: C_53  and  C_55
REMARK   17  A    between atoms: C_55  and  O_56
REMARK                            x       y       z     vdW  Elec       q    Type
REMARK                         _______ _______ _______ _____ _____    ______ ____
ROOT
ATOM      1  C   LIG A   1      -7.538   2.683 128.557  0.00  0.00    +0.072 C 
ATOM      2  C   LIG A   1      -6.040   2.374 128.874  0.00  0.00    +0.020 C 
ATOM      3  C   LIG A   1      -5.941   0.977 129.548  0.00  0.00    +0.000 C 
ATOM      4  C   LIG A   1      -6.714   0.920 130.932  0.00  0.00    -0.023 C 
ATOM      5  C   LIG A   1      -8.133   1.570 130.772  0.00  0.00    +0.008 C 
ATOM      6  C   LIG A   1      -8.546   1.797 129.315  0.00  0.00    +0.019 C 
ATOM      7  C   LIG A   1      -5.983   1.798 132.001  0.00  0.00    +0.012 C 
ATOM      8  C   LIG A   1      -6.794  -0.626 131.419  0.00  0.00    -0.023 C 
ATOM      9  C   LIG A   1      -7.755  -1.394 130.464  0.00  0.00    +0.012 C 
ATOM     10  C   LIG A   1      -5.335  -1.252 131.443  0.00  0.00    +0.002 C 
ATOM     11  C   LIG A   1      -4.566  -1.038 130.122  0.00  0.00    +0.005 C 
ATOM     12  C   LIG A   1      -4.521   0.429 129.696  0.00  0.00    +0.005 C 
ATOM     13  C   LIG A   1      -5.228  -2.728 132.032  0.00  0.00    -0.025 C 
ATOM     14  C   LIG A   1      -5.920  -3.770 131.119  0.00  0.00    +0.012 C 
ATOM     15  C   LIG A   1      -5.816  -2.664 133.492  0.00  0.00    +0.003 C 
ATOM     16  C   LIG A   1      -7.271  -2.145 133.486  0.00  0.00    +0.005 C 
ATOM     17  C   LIG A   1      -7.378  -0.747 132.859  0.00  0.00    +0.008 C 
ATOM     18  C   LIG A   1      -5.565  -3.929 134.397  0.00  0.00    -0.006 C 
ATOM     19  C   LIG A   1      -5.925  -3.590 135.871  0.00  0.00    +0.014 C 
ATOM     20  C   LIG A   1      -6.433  -5.143 134.013  0.00  0.00    +0.014 C 
ATOM     21  C   LIG A   1      -4.047  -4.278 134.361  0.00  0.00    +0.120 C 
ATOM     22  C   LIG A   1      -3.478  -4.393 132.953  0.00  0.00    +0.032 C 
ATOM     23  C   LIG A   1      -3.729  -3.135 132.129  0.00  0.00    +0.010 C 
ATOM     24  C   LIG A   1      -5.298   2.514 127.512  0.00  0.00    +0.062 C 
ATOM     25  C   LIG A   1      -6.344   2.961 126.492  0.00  0.00    +0.012 C 
ATOM     26  C   LIG A   1      -7.649   2.425 127.041  0.00  0.00    +0.019 C 
ENDROOT
BRANCH   1  27
ATOM     27  C   LIG A   1      -7.837   4.161 128.889  0.00  0.00    +0.316 C 
ATOM     28  O   LIG A   1      -7.018   4.946 129.309  0.00  0.00    -0.250 OA
BRANCH  27  29
ATOM     29  O   LIG A   1      -9.145   4.441 128.671  0.00  0.00    -0.432 OA
BRANCH  29  30
ATOM     30  C   LIG A   1      -9.495   5.827 128.593  0.00  0.00    +0.342 C 
ATOM     31  O   LIG A   1     -10.484   6.079 129.595  0.00  0.00    -0.331 OA
ATOM     32  C   LIG A   1     -10.987   7.413 129.552  0.00  0.00    +0.179 C 
ATOM     33  C   LIG A   1     -11.722   7.639 128.221  0.00  0.00    +0.177 C 
ATOM     34  C   LIG A   1     -10.721   7.450 127.081  0.00  0.00    +0.180 C 
ATOM     35  C   LIG A   1     -10.044   6.082 127.169  0.00  0.00    +0.214 C 
BRANCH  35  36
ATOM     36  O   LIG A   1      -8.989   6.018 126.195  0.00  0.00    -0.383 OA
ATOM     37  H   LIG A   1      -8.214   6.433 126.625  0.00  0.00    +0.210 HD
ENDBRANCH  35  36
BRANCH  34  38
ATOM     38  O   LIG A   1     -11.392   7.564 125.815  0.00  0.00    -0.386 OA
ATOM     39  H   LIG A   1     -10.992   8.350 125.386  0.00  0.00    +0.210 HD
ENDBRANCH  34  38
BRANCH  33  40
ATOM     40  O   LIG A   1     -12.289   8.945 128.095  0.00  0.00    -0.387 OA
ATOM     41  H   LIG A   1     -13.216   8.818 127.792  0.00  0.00    +0.210 HD
ENDBRANCH  33  40
BRANCH  32  42
ATOM     42  C   LIG A   1     -11.908   7.628 130.759  0.00  0.00    +0.190 C 
BRANCH  42  43
ATOM     43  O   LIG A   1     -13.249   7.251 130.453  0.00  0.00    -0.392 OA
ATOM     44  H   LIG A   1     -13.206   6.596 129.732  0.00  0.00    +0.209 HD
ENDBRANCH  42  43
ENDBRANCH  32  42
ENDBRANCH  29  30
ENDBRANCH  27  29
ENDBRANCH   1  27
BRANCH  21  45
ATOM     45  O   LIG A   1      -3.768  -5.509 135.026  0.00  0.00    -0.391 OA
ATOM     46  H   LIG A   1      -3.015  -5.926 134.577  0.00  0.00    +0.210 HD
ENDBRANCH  21  45
BRANCH  24  47
ATOM     47  C   LIG A   1      -4.100   3.466 127.589  0.00  0.00    +0.162 C 
ATOM     48  O   LIG A   1      -3.025   3.090 128.066  0.00  0.00    -0.295 OA
BRANCH  47  49
ATOM     49  C   LIG A   1      -4.257   4.906 127.088  0.00  0.00    +0.230 C 
BRANCH  49  50
ATOM     50  O   LIG A   1      -4.609   5.814 128.120  0.00  0.00    -0.388 OA
ATOM     51  H   LIG A   1      -5.236   6.447 127.720  0.00  0.00    +0.210 HD
ENDBRANCH  49  50
ENDBRANCH  47  49
ENDBRANCH  24  47
TORSDOF 12
ENDMDL
