MODEL 1
REMARK VINA RESULT:      -8.6      0.000      0.000
REMARK  Name = NuBBE_1454
REMARK  7 active torsions:
REMARK  status: ('A' for Active; 'I' for Inactive)
REMARK    1  A    between atoms: C_1  and  C_2
REMARK    2  A    between atoms: C_2  and  C_3
REMARK    3  A    between atoms: C_13  and  O_14
REMARK    4  A    between atoms: O_14  and  C_15
REMARK    5  A    between atoms: C_16  and  O_17
REMARK    6  A    between atoms: O_17  and  C_18
REMARK    7  A    between atoms: C_27  and  O_28
REMARK                            x       y       z     vdW  Elec       q    Type
REMARK                         _______ _______ _______ _____ _____    ______ ____
ROOT
ATOM      1  C   LIG A   1      -6.465  -1.782 122.557  0.00  0.00    +0.060 C 
ATOM      2  C   LIG A   1      -7.020  -1.753 123.987  0.00  0.00    +0.123 C 
ATOM      3  C   LIG A   1      -7.905  -2.984 124.218  0.00  0.00    +0.060 C 
ATOM      4  C   LIG A   1      -5.882  -1.760 124.982  0.00  0.00    +0.020 C 
ATOM      5  C   LIG A   1      -5.493  -0.662 125.638  0.00  0.00    +0.015 C 
ATOM      6  C   LIG A   1      -6.195   0.588 125.364  0.00  0.00    +0.059 A 
ATOM      7  C   LIG A   1      -5.723   1.829 125.821  0.00  0.00    +0.146 A 
ATOM      8  C   LIG A   1      -6.440   2.995 125.559  0.00  0.00    +0.102 A 
ATOM      9  C   LIG A   1      -5.901   4.282 126.035  0.00  0.00    +0.181 C 
ATOM     10  C   LIG A   1      -4.441   4.345 126.430  0.00  0.00    +0.138 C 
ATOM     11  C   LIG A   1      -4.092   4.998 127.751  0.00  0.00    +0.012 A 
ATOM     12  C   LIG A   1      -4.940   5.819 128.499  0.00  0.00    +0.057 A 
ATOM     13  C   LIG A   1      -4.473   6.502 129.637  0.00  0.00    +0.162 A 
ATOM     14  C   LIG A   1      -3.118   6.422 130.001  0.00  0.00    +0.165 A 
ATOM     15  C   LIG A   1      -2.270   5.586 129.269  0.00  0.00    +0.095 A 
ATOM     16  C   LIG A   1      -2.764   4.879 128.175  0.00  0.00    +0.128 A 
ATOM     17  O   LIG A   1      -1.882   4.093 127.475  0.00  0.00    -0.488 OA
ATOM     18  C   LIG A   1      -2.506   2.846 127.163  0.00  0.00    +0.274 C 
ATOM     19  C   LIG A   1      -3.745   2.986 126.265  0.00  0.00    +0.226 C 
ATOM     20  O   LIG A   1      -4.578   1.859 126.569  0.00  0.00    -0.483 OA
ATOM     21  O   LIG A   1      -6.636   5.268 125.988  0.00  0.00    -0.291 OA
ATOM     22  C   LIG A   1      -7.644   2.927 124.848  0.00  0.00    +0.134 A 
ATOM     23  C   LIG A   1      -8.109   1.706 124.371  0.00  0.00    +0.092 A 
ATOM     24  C   LIG A   1      -7.376   0.544 124.611  0.00  0.00    +0.136 A 
ATOM     25  O   LIG A   1      -7.898  -0.612 124.097  0.00  0.00    -0.481 OA
ENDROOT
BRANCH  13  26
ATOM     26  O   LIG A   1      -5.439   7.274 130.235  0.00  0.00    -0.491 OA
ATOM     27  C   LIG A   1      -6.191   6.658 131.273  0.00  0.00    +0.277 C 
ENDBRANCH  13  26
BRANCH  14  28
ATOM     28  O   LIG A   1      -2.677   7.158 131.069  0.00  0.00    -0.491 OA
ATOM     29  C   LIG A   1      -1.446   6.743 131.653  0.00  0.00    +0.277 C 
ENDBRANCH  14  28
BRANCH  22  30
ATOM     30  O   LIG A   1      -8.412   4.026 124.573  0.00  0.00    -0.506 OA
ATOM     31  H   LIG A   1      -9.056   3.783 123.870  0.00  0.00    +0.292 HD
ENDBRANCH  22  30
TORSDOF 3
ENDMDL
MODEL 2
REMARK VINA RESULT:      -8.4      3.839      4.838
REMARK  Name = NuBBE_1454
REMARK  7 active torsions:
REMARK  status: ('A' for Active; 'I' for Inactive)
REMARK    1  A    between atoms: C_1  and  C_2
REMARK    2  A    between atoms: C_2  and  C_3
REMARK    3  A    between atoms: C_13  and  O_14
REMARK    4  A    between atoms: O_14  and  C_15
REMARK    5  A    between atoms: C_16  and  O_17
REMARK    6  A    between atoms: O_17  and  C_18
REMARK    7  A    between atoms: C_27  and  O_28
REMARK                            x       y       z     vdW  Elec       q    Type
REMARK                         _______ _______ _______ _____ _____    ______ ____
ROOT
ATOM      1  C   LIG A   1      -6.517  -2.220 123.975  0.00  0.00    +0.060 C 
ATOM      2  C   LIG A   1      -7.944  -1.678 123.813  0.00  0.00    +0.123 C 
ATOM      3  C   LIG A   1      -8.697  -2.522 122.777  0.00  0.00    +0.060 C 
ATOM      4  C   LIG A   1      -8.671  -1.741 125.136  0.00  0.00    +0.020 C 
ATOM      5  C   LIG A   1      -8.876  -0.661 125.897  0.00  0.00    +0.015 C 
ATOM      6  C   LIG A   1      -8.359   0.620 125.425  0.00  0.00    +0.059 A 
ATOM      7  C   LIG A   1      -8.320   1.760 126.244  0.00  0.00    +0.146 A 
ATOM      8  C   LIG A   1      -7.844   2.970 125.744  0.00  0.00    +0.102 A 
ATOM      9  C   LIG A   1      -7.795   4.139 126.641  0.00  0.00    +0.181 C 
ATOM     10  C   LIG A   1      -7.883   3.901 128.133  0.00  0.00    +0.138 C 
ATOM     11  C   LIG A   1      -8.854   4.749 128.930  0.00  0.00    +0.012 A 
ATOM     12  C   LIG A   1      -9.451   5.931 128.486  0.00  0.00    +0.057 A 
ATOM     13  C   LIG A   1     -10.220   6.728 129.354  0.00  0.00    +0.162 A 
ATOM     14  C   LIG A   1     -10.343   6.378 130.710  0.00  0.00    +0.165 A 
ATOM     15  C   LIG A   1      -9.764   5.185 131.154  0.00  0.00    +0.095 A 
ATOM     16  C   LIG A   1      -9.048   4.385 130.266  0.00  0.00    +0.128 A 
ATOM     17  O   LIG A   1      -8.479   3.238 130.762  0.00  0.00    -0.488 OA
ATOM     18  C   LIG A   1      -8.684   2.171 129.833  0.00  0.00    +0.274 C 
ATOM     19  C   LIG A   1      -8.024   2.409 128.467  0.00  0.00    +0.226 C 
ATOM     20  O   LIG A   1      -8.804   1.667 127.520  0.00  0.00    -0.483 OA
ATOM     21  O   LIG A   1      -7.579   5.243 126.140  0.00  0.00    -0.291 OA
ATOM     22  C   LIG A   1      -7.416   3.054 124.413  0.00  0.00    +0.134 A 
ATOM     23  C   LIG A   1      -7.430   1.926 123.600  0.00  0.00    +0.092 A 
ATOM     24  C   LIG A   1      -7.881   0.709 124.111  0.00  0.00    +0.136 A 
ATOM     25  O   LIG A   1      -7.851  -0.353 123.248  0.00  0.00    -0.481 OA
ENDROOT
BRANCH  13  26
ATOM     26  O   LIG A   1     -10.714   7.859 128.751  0.00  0.00    -0.491 OA
ATOM     27  C   LIG A   1     -10.887   7.802 127.341  0.00  0.00    +0.277 C 
ENDBRANCH  13  26
BRANCH  14  28
ATOM     28  O   LIG A   1     -11.034   7.212 131.547  0.00  0.00    -0.491 OA
ATOM     29  C   LIG A   1     -12.455   7.143 131.473  0.00  0.00    +0.277 C 
ENDBRANCH  14  28
BRANCH  22  30
ATOM     30  O   LIG A   1      -6.958   4.213 123.848  0.00  0.00    -0.506 OA
ATOM     31  H   LIG A   1      -6.011   4.320 124.093  0.00  0.00    +0.292 HD
ENDBRANCH  22  30
TORSDOF 3
ENDMDL
MODEL 3
REMARK VINA RESULT:      -8.3      4.109      4.454
REMARK  Name = NuBBE_1454
REMARK  7 active torsions:
REMARK  status: ('A' for Active; 'I' for Inactive)
REMARK    1  A    between atoms: C_1  and  C_2
REMARK    2  A    between atoms: C_2  and  C_3
REMARK    3  A    between atoms: C_13  and  O_14
REMARK    4  A    between atoms: O_14  and  C_15
REMARK    5  A    between atoms: C_16  and  O_17
REMARK    6  A    between atoms: O_17  and  C_18
REMARK    7  A    between atoms: C_27  and  O_28
REMARK                            x       y       z     vdW  Elec       q    Type
REMARK                         _______ _______ _______ _____ _____    ______ ____
ROOT
ATOM      1  C   LIG A   1      -7.298  -2.494 123.299  0.00  0.00    +0.060 C 
ATOM      2  C   LIG A   1      -8.650  -2.424 124.023  0.00  0.00    +0.123 C 
ATOM      3  C   LIG A   1      -9.661  -3.329 123.308  0.00  0.00    +0.060 C 
ATOM      4  C   LIG A   1      -8.491  -2.881 125.454  0.00  0.00    +0.020 C 
ATOM      5  C   LIG A   1      -8.454  -2.027 126.483  0.00  0.00    +0.015 C 
ATOM      6  C   LIG A   1      -8.559  -0.600 126.196  0.00  0.00    +0.059 A 
ATOM      7  C   LIG A   1      -8.305   0.381 127.168  0.00  0.00    +0.146 A 
ATOM      8  C   LIG A   1      -8.443   1.732 126.857  0.00  0.00    +0.102 A 
ATOM      9  C   LIG A   1      -8.143   2.734 127.897  0.00  0.00    +0.181 C 
ATOM     10  C   LIG A   1      -7.339   2.297 129.103  0.00  0.00    +0.138 C 
ATOM     11  C   LIG A   1      -7.854   2.681 130.474  0.00  0.00    +0.012 A 
ATOM     12  C   LIG A   1      -8.822   3.655 130.734  0.00  0.00    +0.057 A 
ATOM     13  C   LIG A   1      -9.124   4.048 132.051  0.00  0.00    +0.162 A 
ATOM     14  C   LIG A   1      -8.401   3.510 133.130  0.00  0.00    +0.165 A 
ATOM     15  C   LIG A   1      -7.445   2.521 132.877  0.00  0.00    +0.095 A 
ATOM     16  C   LIG A   1      -7.197   2.111 131.570  0.00  0.00    +0.128 A 
ATOM     17  O   LIG A   1      -6.230   1.155 131.377  0.00  0.00    -0.488 OA
ATOM     18  C   LIG A   1      -6.693   0.203 130.417  0.00  0.00    +0.274 C 
ATOM     19  C   LIG A   1      -6.965   0.808 129.032  0.00  0.00    +0.226 C 
ATOM     20  O   LIG A   1      -7.970  -0.021 128.432  0.00  0.00    -0.483 OA
ATOM     21  O   LIG A   1      -8.470   3.901 127.684  0.00  0.00    -0.291 OA
ATOM     22  C   LIG A   1      -8.852   2.114 125.574  0.00  0.00    +0.134 A 
ATOM     23  C   LIG A   1      -9.085   1.151 124.597  0.00  0.00    +0.092 A 
ATOM     24  C   LIG A   1      -8.919  -0.200 124.902  0.00  0.00    +0.136 A 
ATOM     25  O   LIG A   1      -9.157  -1.079 123.881  0.00  0.00    -0.481 OA
ENDROOT
BRANCH  13  26
ATOM     26  O   LIG A   1     -10.086   5.025 132.114  0.00  0.00    -0.491 OA
ATOM     27  C   LIG A   1      -9.712   6.316 131.648  0.00  0.00    +0.277 C 
ENDBRANCH  13  26
BRANCH  14  28
ATOM     28  O   LIG A   1      -8.664   3.968 134.394  0.00  0.00    -0.491 OA
ATOM     29  C   LIG A   1      -7.794   4.981 134.891  0.00  0.00    +0.277 C 
ENDBRANCH  14  28
BRANCH  22  30
ATOM     30  O   LIG A   1      -9.030   3.419 125.204  0.00  0.00    -0.506 OA
ATOM     31  H   LIG A   1      -9.684   3.443 124.469  0.00  0.00    +0.292 HD
ENDBRANCH  22  30
TORSDOF 3
ENDMDL
MODEL 4
REMARK VINA RESULT:      -8.0      3.649      7.125
REMARK  Name = NuBBE_1454
REMARK  7 active torsions:
REMARK  status: ('A' for Active; 'I' for Inactive)
REMARK    1  A    between atoms: C_1  and  C_2
REMARK    2  A    between atoms: C_2  and  C_3
REMARK    3  A    between atoms: C_13  and  O_14
REMARK    4  A    between atoms: O_14  and  C_15
REMARK    5  A    between atoms: C_16  and  O_17
REMARK    6  A    between atoms: O_17  and  C_18
REMARK    7  A    between atoms: C_27  and  O_28
REMARK                            x       y       z     vdW  Elec       q    Type
REMARK                         _______ _______ _______ _____ _____    ______ ____
ROOT
ATOM      1  C   LIG A   1      -7.673  -1.836 130.755  0.00  0.00    +0.060 C 
ATOM      2  C   LIG A   1      -6.836  -2.373 129.586  0.00  0.00    +0.123 C 
ATOM      3  C   LIG A   1      -6.236  -3.732 129.967  0.00  0.00    +0.060 C 
ATOM      4  C   LIG A   1      -7.705  -2.533 128.361  0.00  0.00    +0.020 C 
ATOM      5  C   LIG A   1      -7.678  -1.671 127.339  0.00  0.00    +0.015 C 
ATOM      6  C   LIG A   1      -6.777  -0.526 127.431  0.00  0.00    +0.059 A 
ATOM      7  C   LIG A   1      -6.836   0.548 126.529  0.00  0.00    +0.146 A 
ATOM      8  C   LIG A   1      -5.938   1.609 126.638  0.00  0.00    +0.102 A 
ATOM      9  C   LIG A   1      -6.047   2.731 125.687  0.00  0.00    +0.181 C 
ATOM     10  C   LIG A   1      -7.333   2.885 124.904  0.00  0.00    +0.138 C 
ATOM     11  C   LIG A   1      -7.230   3.105 123.409  0.00  0.00    +0.012 A 
ATOM     12  C   LIG A   1      -6.074   3.488 122.724  0.00  0.00    +0.057 A 
ATOM     13  C   LIG A   1      -6.115   3.816 121.356  0.00  0.00    +0.162 A 
ATOM     14  C   LIG A   1      -7.342   3.831 120.670  0.00  0.00    +0.165 A 
ATOM     15  C   LIG A   1      -8.498   3.429 121.347  0.00  0.00    +0.095 A 
ATOM     16  C   LIG A   1      -8.427   3.060 122.688  0.00  0.00    +0.128 A 
ATOM     17  O   LIG A   1      -9.597   2.699 123.310  0.00  0.00    -0.488 OA
ATOM     18  C   LIG A   1      -9.364   1.547 124.122  0.00  0.00    +0.274 C 
ATOM     19  C   LIG A   1      -8.347   1.784 125.248  0.00  0.00    +0.226 C 
ATOM     20  O   LIG A   1      -7.756   0.505 125.518  0.00  0.00    -0.483 OA
ATOM     21  O   LIG A   1      -5.128   3.549 125.654  0.00  0.00    -0.291 OA
ATOM     22  C   LIG A   1      -4.963   1.596 127.642  0.00  0.00    +0.134 A 
ATOM     23  C   LIG A   1      -4.909   0.547 128.554  0.00  0.00    +0.092 A 
ATOM     24  C   LIG A   1      -5.826  -0.500 128.461  0.00  0.00    +0.136 A 
ATOM     25  O   LIG A   1      -5.712  -1.484 129.405  0.00  0.00    -0.481 OA
ENDROOT
BRANCH  13  26
ATOM     26  O   LIG A   1      -4.890   4.184 120.855  0.00  0.00    -0.491 OA
ATOM     27  C   LIG A   1      -4.226   5.251 121.520  0.00  0.00    +0.277 C 
ENDBRANCH  13  26
BRANCH  14  28
ATOM     28  O   LIG A   1      -7.361   4.228 119.360  0.00  0.00    -0.491 OA
ATOM     29  C   LIG A   1      -8.635   4.238 118.724  0.00  0.00    +0.277 C 
ENDBRANCH  14  28
BRANCH  22  30
ATOM     30  O   LIG A   1      -4.035   2.590 127.795  0.00  0.00    -0.506 OA
ATOM     31  H   LIG A   1      -3.222   2.194 128.182  0.00  0.00    +0.292 HD
ENDBRANCH  22  30
TORSDOF 3
ENDMDL
MODEL 5
REMARK VINA RESULT:      -7.9      5.265      7.190
REMARK  Name = NuBBE_1454
REMARK  7 active torsions:
REMARK  status: ('A' for Active; 'I' for Inactive)
REMARK    1  A    between atoms: C_1  and  C_2
REMARK    2  A    between atoms: C_2  and  C_3
REMARK    3  A    between atoms: C_13  and  O_14
REMARK    4  A    between atoms: O_14  and  C_15
REMARK    5  A    between atoms: C_16  and  O_17
REMARK    6  A    between atoms: O_17  and  C_18
REMARK    7  A    between atoms: C_27  and  O_28
REMARK                            x       y       z     vdW  Elec       q    Type
REMARK                         _______ _______ _______ _____ _____    ______ ____
ROOT
ATOM      1  C   LIG A   1      -5.830  -1.296 131.772  0.00  0.00    +0.060 C 
ATOM      2  C   LIG A   1      -7.186  -1.436 131.066  0.00  0.00    +0.123 C 
ATOM      3  C   LIG A   1      -7.513  -2.921 130.875  0.00  0.00    +0.060 C 
ATOM      4  C   LIG A   1      -8.267  -0.786 131.899  0.00  0.00    +0.020 C 
ATOM      5  C   LIG A   1      -8.790   0.407 131.597  0.00  0.00    +0.015 C 
ATOM      6  C   LIG A   1      -8.275   1.105 130.423  0.00  0.00    +0.059 A 
ATOM      7  C   LIG A   1      -8.588   2.447 130.152  0.00  0.00    +0.146 A 
ATOM      8  C   LIG A   1      -8.096   3.066 129.005  0.00  0.00    +0.102 A 
ATOM      9  C   LIG A   1      -8.426   4.484 128.767  0.00  0.00    +0.181 C 
ATOM     10  C   LIG A   1      -8.936   5.306 129.931  0.00  0.00    +0.138 C 
ATOM     11  C   LIG A   1     -10.174   6.151 129.713  0.00  0.00    +0.012 A 
ATOM     12  C   LIG A   1     -10.716   6.490 128.470  0.00  0.00    +0.057 A 
ATOM     13  C   LIG A   1     -11.780   7.405 128.366  0.00  0.00    +0.162 A 
ATOM     14  C   LIG A   1     -12.271   8.049 129.515  0.00  0.00    +0.165 A 
ATOM     15  C   LIG A   1     -11.746   7.698 130.763  0.00  0.00    +0.095 A 
ATOM     16  C   LIG A   1     -10.727   6.753 130.848  0.00  0.00    +0.128 A 
ATOM     17  O   LIG A   1     -10.230   6.465 132.095  0.00  0.00    -0.488 OA
ATOM     18  C   LIG A   1     -10.048   5.053 132.216  0.00  0.00    +0.274 C 
ATOM     19  C   LIG A   1      -9.033   4.475 131.219  0.00  0.00    +0.226 C 
ATOM     20  O   LIG A   1      -9.422   3.111 131.009  0.00  0.00    -0.483 OA
ATOM     21  O   LIG A   1      -8.172   4.957 127.659  0.00  0.00    -0.291 OA
ATOM     22  C   LIG A   1      -7.299   2.343 128.110  0.00  0.00    +0.134 A 
ATOM     23  C   LIG A   1      -6.965   1.021 128.379  0.00  0.00    +0.092 A 
ATOM     24  C   LIG A   1      -7.435   0.410 129.542  0.00  0.00    +0.136 A 
ATOM     25  O   LIG A   1      -7.049  -0.888 129.737  0.00  0.00    -0.481 OA
ENDROOT
BRANCH  13  26
ATOM     26  O   LIG A   1     -12.172   7.630 127.070  0.00  0.00    -0.491 OA
ATOM     27  C   LIG A   1     -11.148   7.604 126.083  0.00  0.00    +0.277 C 
ENDBRANCH  13  26
BRANCH  14  28
ATOM     28  O   LIG A   1     -13.256   8.991 129.374  0.00  0.00    -0.491 OA
ATOM     29  C   LIG A   1     -13.107  10.177 130.148  0.00  0.00    +0.277 C 
ENDBRANCH  14  28
BRANCH  22  30
ATOM     30  O   LIG A   1      -6.800   2.878 126.953  0.00  0.00    -0.506 OA
ATOM     31  H   LIG A   1      -5.995   2.371 126.702  0.00  0.00    +0.292 HD
ENDBRANCH  22  30
TORSDOF 3
ENDMDL
MODEL 6
REMARK VINA RESULT:      -7.7      3.881      8.660
REMARK  Name = NuBBE_1454
REMARK  7 active torsions:
REMARK  status: ('A' for Active; 'I' for Inactive)
REMARK    1  A    between atoms: C_1  and  C_2
REMARK    2  A    between atoms: C_2  and  C_3
REMARK    3  A    between atoms: C_13  and  O_14
REMARK    4  A    between atoms: O_14  and  C_15
REMARK    5  A    between atoms: C_16  and  O_17
REMARK    6  A    between atoms: O_17  and  C_18
REMARK    7  A    between atoms: C_27  and  O_28
REMARK                            x       y       z     vdW  Elec       q    Type
REMARK                         _______ _______ _______ _____ _____    ______ ____
ROOT
ATOM      1  C   LIG A   1      -8.671   6.085 132.686  0.00  0.00    +0.060 C 
ATOM      2  C   LIG A   1      -9.726   5.652 131.658  0.00  0.00    +0.123 C 
ATOM      3  C   LIG A   1     -10.973   6.533 131.802  0.00  0.00    +0.060 C 
ATOM      4  C   LIG A   1      -9.170   5.794 130.260  0.00  0.00    +0.020 C 
ATOM      5  C   LIG A   1      -8.754   4.746 129.540  0.00  0.00    +0.015 C 
ATOM      6  C   LIG A   1      -8.833   3.421 130.147  0.00  0.00    +0.059 A 
ATOM      7  C   LIG A   1      -8.219   2.297 129.573  0.00  0.00    +0.146 A 
ATOM      8  C   LIG A   1      -8.343   1.045 130.173  0.00  0.00    +0.102 A 
ATOM      9  C   LIG A   1      -7.663  -0.108 129.554  0.00  0.00    +0.181 C 
ATOM     10  C   LIG A   1      -6.564   0.162 128.550  0.00  0.00    +0.138 C 
ATOM     11  C   LIG A   1      -6.601  -0.594 127.237  0.00  0.00    +0.012 A 
ATOM     12  C   LIG A   1      -7.366  -1.735 126.980  0.00  0.00    +0.057 A 
ATOM     13  C   LIG A   1      -7.218  -2.455 125.780  0.00  0.00    +0.162 A 
ATOM     14  C   LIG A   1      -6.241  -2.072 124.844  0.00  0.00    +0.165 A 
ATOM     15  C   LIG A   1      -5.488  -0.919 125.088  0.00  0.00    +0.095 A 
ATOM     16  C   LIG A   1      -5.685  -0.193 126.260  0.00  0.00    +0.128 A 
ATOM     17  O   LIG A   1      -4.900   0.916 126.460  0.00  0.00    -0.488 OA
ATOM     18  C   LIG A   1      -5.706   1.978 126.972  0.00  0.00    +0.274 C 
ATOM     19  C   LIG A   1      -6.344   1.667 128.334  0.00  0.00    +0.226 C 
ATOM     20  O   LIG A   1      -7.544   2.450 128.394  0.00  0.00    -0.483 OA
ATOM     21  O   LIG A   1      -7.950  -1.234 129.962  0.00  0.00    -0.291 OA
ATOM     22  C   LIG A   1      -9.096   0.905 131.344  0.00  0.00    +0.134 A 
ATOM     23  C   LIG A   1      -9.690   2.016 131.933  0.00  0.00    +0.092 A 
ATOM     24  C   LIG A   1      -9.542   3.273 131.347  0.00  0.00    +0.136 A 
ATOM     25  O   LIG A   1     -10.148   4.314 131.997  0.00  0.00    -0.481 OA
ENDROOT
BRANCH  13  26
ATOM     26  O   LIG A   1      -8.037  -3.554 125.708  0.00  0.00    -0.491 OA
ATOM     27  C   LIG A   1      -9.436  -3.309 125.774  0.00  0.00    +0.277 C 
ENDBRANCH  13  26
BRANCH  14  28
ATOM     28  O   LIG A   1      -6.068  -2.836 123.721  0.00  0.00    -0.491 OA
ATOM     29  C   LIG A   1      -4.875  -3.611 123.665  0.00  0.00    +0.277 C 
ENDBRANCH  14  28
BRANCH  22  30
ATOM     30  O   LIG A   1      -9.280  -0.296 131.975  0.00  0.00    -0.506 OA
ATOM     31  H   LIG A   1      -8.492  -0.470 132.538  0.00  0.00    +0.292 HD
ENDBRANCH  22  30
TORSDOF 3
ENDMDL
MODEL 7
REMARK VINA RESULT:      -7.6      1.842      8.531
REMARK  Name = NuBBE_1454
REMARK  7 active torsions:
REMARK  status: ('A' for Active; 'I' for Inactive)
REMARK    1  A    between atoms: C_1  and  C_2
REMARK    2  A    between atoms: C_2  and  C_3
REMARK    3  A    between atoms: C_13  and  O_14
REMARK    4  A    between atoms: O_14  and  C_15
REMARK    5  A    between atoms: C_16  and  O_17
REMARK    6  A    between atoms: O_17  and  C_18
REMARK    7  A    between atoms: C_27  and  O_28
REMARK                            x       y       z     vdW  Elec       q    Type
REMARK                         _______ _______ _______ _____ _____    ______ ____
ROOT
ATOM      1  C   LIG A   1      -3.811   8.907 129.979  0.00  0.00    +0.060 C 
ATOM      2  C   LIG A   1      -3.638   7.645 130.836  0.00  0.00    +0.123 C 
ATOM      3  C   LIG A   1      -2.990   8.021 132.174  0.00  0.00    +0.060 C 
ATOM      4  C   LIG A   1      -4.984   7.008 131.092  0.00  0.00    +0.020 C 
ATOM      5  C   LIG A   1      -5.397   5.913 130.445  0.00  0.00    +0.015 C 
ATOM      6  C   LIG A   1      -4.508   5.329 129.445  0.00  0.00    +0.059 A 
ATOM      7  C   LIG A   1      -4.934   4.328 128.557  0.00  0.00    +0.146 A 
ATOM      8  C   LIG A   1      -4.043   3.779 127.636  0.00  0.00    +0.102 A 
ATOM      9  C   LIG A   1      -4.533   2.747 126.704  0.00  0.00    +0.181 C 
ATOM     10  C   LIG A   1      -6.028   2.605 126.513  0.00  0.00    +0.138 C 
ATOM     11  C   LIG A   1      -6.623   1.214 126.588  0.00  0.00    +0.012 A 
ATOM     12  C   LIG A   1      -5.903   0.019 126.508  0.00  0.00    +0.057 A 
ATOM     13  C   LIG A   1      -6.561  -1.223 126.435  0.00  0.00    +0.162 A 
ATOM     14  C   LIG A   1      -7.965  -1.274 126.370  0.00  0.00    +0.165 A 
ATOM     15  C   LIG A   1      -8.689  -0.083 126.469  0.00  0.00    +0.095 A 
ATOM     16  C   LIG A   1      -8.019   1.132 126.591  0.00  0.00    +0.128 A 
ATOM     17  O   LIG A   1      -8.780   2.273 126.659  0.00  0.00    -0.488 OA
ATOM     18  C   LIG A   1      -8.245   3.137 127.664  0.00  0.00    +0.274 C 
ATOM     19  C   LIG A   1      -6.812   3.607 127.374  0.00  0.00    +0.226 C 
ATOM     20  O   LIG A   1      -6.220   3.872 128.652  0.00  0.00    -0.483 OA
ATOM     21  O   LIG A   1      -3.701   2.121 126.047  0.00  0.00    -0.291 OA
ATOM     22  C   LIG A   1      -2.714   4.218 127.605  0.00  0.00    +0.134 A 
ATOM     23  C   LIG A   1      -2.288   5.225 128.465  0.00  0.00    +0.092 A 
ATOM     24  C   LIG A   1      -3.188   5.792 129.367  0.00  0.00    +0.136 A 
ATOM     25  O   LIG A   1      -2.690   6.785 130.168  0.00  0.00    -0.481 OA
ENDROOT
BRANCH  13  26
ATOM     26  O   LIG A   1      -5.697  -2.285 126.346  0.00  0.00    -0.491 OA
ATOM     27  C   LIG A   1      -5.332  -2.700 125.036  0.00  0.00    +0.277 C 
ENDBRANCH  13  26
BRANCH  14  28
ATOM     28  O   LIG A   1      -8.574  -2.492 126.222  0.00  0.00    -0.491 OA
ATOM     29  C   LIG A   1      -9.060  -2.798 124.918  0.00  0.00    +0.277 C 
ENDBRANCH  14  28
BRANCH  22  30
ATOM     30  O   LIG A   1      -1.780   3.710 126.744  0.00  0.00    -0.506 OA
ATOM     31  H   LIG A   1      -1.424   4.452 126.205  0.00  0.00    +0.292 HD
ENDBRANCH  22  30
TORSDOF 3
ENDMDL
MODEL 8
REMARK VINA RESULT:      -7.6      5.542      9.807
REMARK  Name = NuBBE_1454
REMARK  7 active torsions:
REMARK  status: ('A' for Active; 'I' for Inactive)
REMARK    1  A    between atoms: C_1  and  C_2
REMARK    2  A    between atoms: C_2  and  C_3
REMARK    3  A    between atoms: C_13  and  O_14
REMARK    4  A    between atoms: O_14  and  C_15
REMARK    5  A    between atoms: C_16  and  O_17
REMARK    6  A    between atoms: O_17  and  C_18
REMARK    7  A    between atoms: C_27  and  O_28
REMARK                            x       y       z     vdW  Elec       q    Type
REMARK                         _______ _______ _______ _____ _____    ______ ____
ROOT
ATOM      1  C   LIG A   1      -4.432  -4.023 134.998  0.00  0.00    +0.060 C 
ATOM      2  C   LIG A   1      -3.697  -4.656 133.808  0.00  0.00    +0.123 C 
ATOM      3  C   LIG A   1      -2.529  -5.507 134.322  0.00  0.00    +0.060 C 
ATOM      4  C   LIG A   1      -4.647  -5.529 133.022  0.00  0.00    +0.020 C 
ATOM      5  C   LIG A   1      -5.179  -5.147 131.856  0.00  0.00    +0.015 C 
ATOM      6  C   LIG A   1      -4.829  -3.826 131.341  0.00  0.00    +0.059 A 
ATOM      7  C   LIG A   1      -5.501  -3.243 130.255  0.00  0.00    +0.146 A 
ATOM      8  C   LIG A   1      -5.117  -1.991 129.779  0.00  0.00    +0.102 A 
ATOM      9  C   LIG A   1      -5.863  -1.401 128.653  0.00  0.00    +0.181 C 
ATOM     10  C   LIG A   1      -7.225  -1.969 128.319  0.00  0.00    +0.138 C 
ATOM     11  C   LIG A   1      -7.520  -2.298 126.870  0.00  0.00    +0.012 A 
ATOM     12  C   LIG A   1      -6.784  -1.848 125.771  0.00  0.00    +0.057 A 
ATOM     13  C   LIG A   1      -7.225  -2.083 124.455  0.00  0.00    +0.162 A 
ATOM     14  C   LIG A   1      -8.459  -2.718 124.228  0.00  0.00    +0.165 A 
ATOM     15  C   LIG A   1      -9.189  -3.187 125.324  0.00  0.00    +0.095 A 
ATOM     16  C   LIG A   1      -8.709  -2.988 126.616  0.00  0.00    +0.128 A 
ATOM     17  O   LIG A   1      -9.479  -3.447 127.657  0.00  0.00    -0.488 OA
ATOM     18  C   LIG A   1      -8.637  -4.075 128.625  0.00  0.00    +0.274 C 
ATOM     19  C   LIG A   1      -7.607  -3.126 129.254  0.00  0.00    +0.226 C 
ATOM     20  O   LIG A   1      -6.503  -3.951 129.649  0.00  0.00    -0.483 OA
ATOM     21  O   LIG A   1      -5.388  -0.405 128.105  0.00  0.00    -0.291 OA
ATOM     22  C   LIG A   1      -4.045  -1.318 130.377  0.00  0.00    +0.134 A 
ATOM     23  C   LIG A   1      -3.386  -1.876 131.467  0.00  0.00    +0.092 A 
ATOM     24  C   LIG A   1      -3.791  -3.117 131.960  0.00  0.00    +0.136 A 
ATOM     25  O   LIG A   1      -3.097  -3.589 133.042  0.00  0.00    -0.481 OA
ENDROOT
BRANCH  13  26
ATOM     26  O   LIG A   1      -6.386  -1.556 123.504  0.00  0.00    -0.491 OA
ATOM     27  C   LIG A   1      -5.479  -2.460 122.886  0.00  0.00    +0.277 C 
ENDBRANCH  13  26
BRANCH  14  28
ATOM     28  O   LIG A   1      -8.898  -2.864 122.938  0.00  0.00    -0.491 OA
ATOM     29  C   LIG A   1      -9.455  -1.703 122.328  0.00  0.00    +0.277 C 
ENDBRANCH  14  28
BRANCH  22  30
ATOM     30  O   LIG A   1      -3.598  -0.097 129.950  0.00  0.00    -0.506 OA
ATOM     31  H   LIG A   1      -2.670  -0.202 129.638  0.00  0.00    +0.292 HD
ENDBRANCH  22  30
TORSDOF 3
ENDMDL
MODEL 9
REMARK VINA RESULT:      -7.4      4.058      6.968
REMARK  Name = NuBBE_1454
REMARK  7 active torsions:
REMARK  status: ('A' for Active; 'I' for Inactive)
REMARK    1  A    between atoms: C_1  and  C_2
REMARK    2  A    between atoms: C_2  and  C_3
REMARK    3  A    between atoms: C_13  and  O_14
REMARK    4  A    between atoms: O_14  and  C_15
REMARK    5  A    between atoms: C_16  and  O_17
REMARK    6  A    between atoms: O_17  and  C_18
REMARK    7  A    between atoms: C_27  and  O_28
REMARK                            x       y       z     vdW  Elec       q    Type
REMARK                         _______ _______ _______ _____ _____    ______ ____
ROOT
ATOM      1  C   LIG A   1      -5.584  -5.110 131.447  0.00  0.00    +0.060 C 
ATOM      2  C   LIG A   1      -4.644  -3.900 131.352  0.00  0.00    +0.123 C 
ATOM      3  C   LIG A   1      -3.535  -4.030 132.403  0.00  0.00    +0.060 C 
ATOM      4  C   LIG A   1      -4.025  -3.836 129.975  0.00  0.00    +0.020 C 
ATOM      5  C   LIG A   1      -4.433  -2.969 129.042  0.00  0.00    +0.015 C 
ATOM      6  C   LIG A   1      -5.528  -2.064 129.376  0.00  0.00    +0.059 A 
ATOM      7  C   LIG A   1      -6.177  -1.282 128.407  0.00  0.00    +0.146 A 
ATOM      8  C   LIG A   1      -7.201  -0.412 128.775  0.00  0.00    +0.102 A 
ATOM      9  C   LIG A   1      -7.874   0.375 127.726  0.00  0.00    +0.181 C 
ATOM     10  C   LIG A   1      -7.714  -0.064 126.286  0.00  0.00    +0.138 C 
ATOM     11  C   LIG A   1      -7.348   0.989 125.261  0.00  0.00    +0.012 A 
ATOM     12  C   LIG A   1      -7.443   2.370 125.448  0.00  0.00    +0.057 A 
ATOM     13  C   LIG A   1      -7.224   3.265 124.384  0.00  0.00    +0.162 A 
ATOM     14  C   LIG A   1      -6.972   2.775 123.091  0.00  0.00    +0.165 A 
ATOM     15  C   LIG A   1      -6.856   1.394 122.903  0.00  0.00    +0.095 A 
ATOM     16  C   LIG A   1      -7.027   0.528 123.980  0.00  0.00    +0.128 A 
ATOM     17  O   LIG A   1      -6.928  -0.820 123.734  0.00  0.00    -0.488 OA
ATOM     18  C   LIG A   1      -6.173  -1.435 124.779  0.00  0.00    +0.274 C 
ATOM     19  C   LIG A   1      -6.825  -1.311 126.165  0.00  0.00    +0.226 C 
ATOM     20  O   LIG A   1      -5.748  -1.358 127.110  0.00  0.00    -0.483 OA
ATOM     21  O   LIG A   1      -8.621   1.289 128.079  0.00  0.00    -0.291 OA
ATOM     22  C   LIG A   1      -7.574  -0.305 130.120  0.00  0.00    +0.134 A 
ATOM     23  C   LIG A   1      -6.954  -1.091 131.085  0.00  0.00    +0.092 A 
ATOM     24  C   LIG A   1      -5.948  -1.982 130.711  0.00  0.00    +0.136 A 
ATOM     25  O   LIG A   1      -5.399  -2.726 131.720  0.00  0.00    -0.481 OA
ENDROOT
BRANCH  13  26
ATOM     26  O   LIG A   1      -7.376   4.580 124.747  0.00  0.00    -0.491 OA
ATOM     27  C   LIG A   1      -6.210   5.251 125.207  0.00  0.00    +0.277 C 
ENDBRANCH  13  26
BRANCH  14  28
ATOM     28  O   LIG A   1      -6.839   3.667 122.060  0.00  0.00    -0.491 OA
ATOM     29  C   LIG A   1      -5.508   4.056 121.733  0.00  0.00    +0.277 C 
ENDBRANCH  14  28
BRANCH  22  30
ATOM     30  O   LIG A   1      -8.555   0.544 130.558  0.00  0.00    -0.506 OA
ATOM     31  H   LIG A   1      -8.677   1.247 129.880  0.00  0.00    +0.292 HD
ENDBRANCH  22  30
TORSDOF 3
ENDMDL
