MODEL 1
REMARK VINA RESULT:      -6.4      0.000      0.000
REMARK  Name = NuBBE_594
REMARK  3 active torsions:
REMARK  status: ('A' for Active; 'I' for Inactive)
REMARK    1  A    between atoms: C_1  and  C_2
REMARK    2  A    between atoms: C_9  and  O_10
REMARK    3  A    between atoms: C_11  and  O_12
REMARK                            x       y       z     vdW  Elec       q    Type
REMARK                         _______ _______ _______ _____ _____    ______ ____
ROOT
ATOM      1  C   LIG A   1     -11.673   7.037 126.987  0.00  0.00    +0.052 C 
ATOM      2  C   LIG A   1     -11.506   8.345 127.759  0.00  0.00    +0.178 C 
ATOM      3  O   LIG A   1     -12.581   8.488 128.700  0.00  0.00    -0.458 OA
ATOM      4  C   LIG A   1     -10.162   8.501 128.455  0.00  0.00    +0.080 C 
ATOM      5  C   LIG A   1     -10.098   7.640 129.684  0.00  0.00    -0.026 A 
ATOM      6  C   LIG A   1      -8.845   7.271 130.204  0.00  0.00    +0.008 A 
ATOM      7  C   LIG A   1      -8.758   6.489 131.355  0.00  0.00    +0.049 A 
ATOM      8  C   LIG A   1      -9.929   6.080 131.978  0.00  0.00    +0.159 A 
ATOM      9  C   LIG A   1     -11.183   6.452 131.481  0.00  0.00    +0.173 A 
ATOM     10  C   LIG A   1     -11.285   7.249 130.336  0.00  0.00    +0.107 A 
ATOM     11  C   LIG A   1     -12.616   7.719 129.826  0.00  0.00    +0.343 C 
ATOM     12  O   LIG A   1     -13.680   7.498 130.380  0.00  0.00    -0.245 OA
ENDROOT
BRANCH   8  13
ATOM     13  O   LIG A   1      -9.903   5.306 133.107  0.00  0.00    -0.503 OA
ATOM     14  H   LIG A   1      -8.989   5.271 133.439  0.00  0.00    +0.292 HD
ENDBRANCH   8  13
BRANCH   9  15
ATOM     15  O   LIG A   1     -12.280   6.000 132.160  0.00  0.00    -0.503 OA
ATOM     16  H   LIG A   1     -12.499   5.133 131.768  0.00  0.00    +0.292 HD
ENDBRANCH   9  15
TORSDOF 2
ENDMDL
MODEL 2
REMARK VINA RESULT:      -6.1      1.122      4.022
REMARK  Name = NuBBE_594
REMARK  3 active torsions:
REMARK  status: ('A' for Active; 'I' for Inactive)
REMARK    1  A    between atoms: C_1  and  C_2
REMARK    2  A    between atoms: C_9  and  O_10
REMARK    3  A    between atoms: C_11  and  O_12
REMARK                            x       y       z     vdW  Elec       q    Type
REMARK                         _______ _______ _______ _____ _____    ______ ____
ROOT
ATOM      1  C   LIG A   1      -8.140   6.530 131.336  0.00  0.00    +0.052 C 
ATOM      2  C   LIG A   1      -9.049   5.449 130.757  0.00  0.00    +0.178 C 
ATOM      3  O   LIG A   1     -10.260   5.377 131.526  0.00  0.00    -0.458 OA
ATOM      4  C   LIG A   1      -9.366   5.614 129.278  0.00  0.00    +0.080 C 
ATOM      5  C   LIG A   1     -10.361   6.719 129.068  0.00  0.00    -0.026 A 
ATOM      6  C   LIG A   1     -10.446   7.344 127.812  0.00  0.00    +0.008 A 
ATOM      7  C   LIG A   1     -11.375   8.358 127.586  0.00  0.00    +0.049 A 
ATOM      8  C   LIG A   1     -12.215   8.742 128.622  0.00  0.00    +0.159 A 
ATOM      9  C   LIG A   1     -12.153   8.119 129.873  0.00  0.00    +0.173 A 
ATOM     10  C   LIG A   1     -11.237   7.089 130.110  0.00  0.00    +0.107 A 
ATOM     11  C   LIG A   1     -11.201   6.359 131.421  0.00  0.00    +0.343 C 
ATOM     12  O   LIG A   1     -11.979   6.559 132.338  0.00  0.00    -0.245 OA
ENDROOT
BRANCH   8  13
ATOM     13  O   LIG A   1     -13.142   9.736 128.457  0.00  0.00    -0.503 OA
ATOM     14  H   LIG A   1     -13.528   9.947 129.325  0.00  0.00    +0.292 HD
ENDBRANCH   8  13
BRANCH   9  15
ATOM     15  O   LIG A   1     -13.019   8.565 130.833  0.00  0.00    -0.503 OA
ATOM     16  H   LIG A   1     -13.857   8.087 130.679  0.00  0.00    +0.292 HD
ENDBRANCH   9  15
TORSDOF 2
ENDMDL
MODEL 3
REMARK VINA RESULT:      -6.1      2.027      4.467
REMARK  Name = NuBBE_594
REMARK  3 active torsions:
REMARK  status: ('A' for Active; 'I' for Inactive)
REMARK    1  A    between atoms: C_1  and  C_2
REMARK    2  A    between atoms: C_9  and  O_10
REMARK    3  A    between atoms: C_11  and  O_12
REMARK                            x       y       z     vdW  Elec       q    Type
REMARK                         _______ _______ _______ _____ _____    ______ ____
ROOT
ATOM      1  C   LIG A   1     -11.299   3.828 130.337  0.00  0.00    +0.052 C 
ATOM      2  C   LIG A   1     -10.287   4.805 130.933  0.00  0.00    +0.178 C 
ATOM      3  O   LIG A   1      -9.470   5.348 129.884  0.00  0.00    -0.458 OA
ATOM      4  C   LIG A   1     -10.900   5.921 131.765  0.00  0.00    +0.080 C 
ATOM      5  C   LIG A   1     -11.541   6.952 130.880  0.00  0.00    -0.026 A 
ATOM      6  C   LIG A   1     -12.536   7.794 131.408  0.00  0.00    +0.008 A 
ATOM      7  C   LIG A   1     -13.132   8.771 130.613  0.00  0.00    +0.049 A 
ATOM      8  C   LIG A   1     -12.727   8.901 129.292  0.00  0.00    +0.159 A 
ATOM      9  C   LIG A   1     -11.727   8.081 128.756  0.00  0.00    +0.173 A 
ATOM     10  C   LIG A   1     -11.109   7.106 129.546  0.00  0.00    +0.107 A 
ATOM     11  C   LIG A   1      -9.986   6.265 129.015  0.00  0.00    +0.343 C 
ATOM     12  O   LIG A   1      -9.497   6.394 127.906  0.00  0.00    -0.245 OA
ENDROOT
BRANCH   8  13
ATOM     13  O   LIG A   1     -13.282   9.840 128.464  0.00  0.00    -0.503 OA
ATOM     14  H   LIG A   1     -13.913   9.396 127.871  0.00  0.00    +0.292 HD
ENDBRANCH   8  13
BRANCH   9  15
ATOM     15  O   LIG A   1     -11.395   8.281 127.445  0.00  0.00    -0.503 OA
ATOM     16  H   LIG A   1     -11.657   9.199 127.240  0.00  0.00    +0.292 HD
ENDBRANCH   9  15
TORSDOF 2
ENDMDL
MODEL 4
REMARK VINA RESULT:      -6.0      1.891      2.848
REMARK  Name = NuBBE_594
REMARK  3 active torsions:
REMARK  status: ('A' for Active; 'I' for Inactive)
REMARK    1  A    between atoms: C_1  and  C_2
REMARK    2  A    between atoms: C_9  and  O_10
REMARK    3  A    between atoms: C_11  and  O_12
REMARK                            x       y       z     vdW  Elec       q    Type
REMARK                         _______ _______ _______ _____ _____    ______ ____
ROOT
ATOM      1  C   LIG A   1     -12.515   9.088 128.553  0.00  0.00    +0.052 C 
ATOM      2  C   LIG A   1     -12.881   7.607 128.471  0.00  0.00    +0.178 C 
ATOM      3  O   LIG A   1     -11.891   6.911 127.699  0.00  0.00    -0.458 OA
ATOM      4  C   LIG A   1     -13.081   6.930 129.818  0.00  0.00    +0.080 C 
ATOM      5  C   LIG A   1     -11.760   6.680 130.488  0.00  0.00    -0.026 A 
ATOM      6  C   LIG A   1     -11.714   6.504 131.882  0.00  0.00    +0.008 A 
ATOM      7  C   LIG A   1     -10.504   6.251 132.525  0.00  0.00    +0.049 A 
ATOM      8  C   LIG A   1      -9.344   6.176 131.767  0.00  0.00    +0.159 A 
ATOM      9  C   LIG A   1      -9.375   6.333 130.377  0.00  0.00    +0.173 A 
ATOM     10  C   LIG A   1     -10.585   6.572 129.716  0.00  0.00    +0.107 A 
ATOM     11  C   LIG A   1     -10.653   6.673 128.220  0.00  0.00    +0.343 C 
ATOM     12  O   LIG A   1      -9.701   6.506 127.478  0.00  0.00    -0.245 OA
ENDROOT
BRANCH   8  13
ATOM     13  O   LIG A   1      -8.127   5.936 132.347  0.00  0.00    -0.503 OA
ATOM     14  H   LIG A   1      -7.504   6.623 132.056  0.00  0.00    +0.292 HD
ENDBRANCH   8  13
BRANCH   9  15
ATOM     15  O   LIG A   1      -8.183   6.244 129.714  0.00  0.00    -0.503 OA
ATOM     16  H   LIG A   1      -8.151   7.017 129.118  0.00  0.00    +0.292 HD
ENDBRANCH   9  15
TORSDOF 2
ENDMDL
MODEL 5
REMARK VINA RESULT:      -5.7      8.349     10.135
REMARK  Name = NuBBE_594
REMARK  3 active torsions:
REMARK  status: ('A' for Active; 'I' for Inactive)
REMARK    1  A    between atoms: C_1  and  C_2
REMARK    2  A    between atoms: C_9  and  O_10
REMARK    3  A    between atoms: C_11  and  O_12
REMARK                            x       y       z     vdW  Elec       q    Type
REMARK                         _______ _______ _______ _____ _____    ______ ____
ROOT
ATOM      1  C   LIG A   1      -7.417   4.831 125.429  0.00  0.00    +0.052 C 
ATOM      2  C   LIG A   1      -6.816   3.464 125.107  0.00  0.00    +0.178 C 
ATOM      3  O   LIG A   1      -7.844   2.592 124.613  0.00  0.00    -0.458 OA
ATOM      4  C   LIG A   1      -5.639   3.501 124.144  0.00  0.00    +0.080 C 
ATOM      5  C   LIG A   1      -6.110   3.747 122.739  0.00  0.00    -0.026 A 
ATOM      6  C   LIG A   1      -5.213   4.270 121.791  0.00  0.00    +0.008 A 
ATOM      7  C   LIG A   1      -5.621   4.489 120.476  0.00  0.00    +0.049 A 
ATOM      8  C   LIG A   1      -6.926   4.182 120.118  0.00  0.00    +0.159 A 
ATOM      9  C   LIG A   1      -7.826   3.647 121.047  0.00  0.00    +0.173 A 
ATOM     10  C   LIG A   1      -7.427   3.407 122.366  0.00  0.00    +0.107 A 
ATOM     11  C   LIG A   1      -8.352   2.768 123.360  0.00  0.00    +0.343 C 
ATOM     12  O   LIG A   1      -9.473   2.367 123.094  0.00  0.00    -0.245 OA
ENDROOT
BRANCH   8  13
ATOM     13  O   LIG A   1      -7.381   4.382 118.842  0.00  0.00    -0.503 OA
ATOM     14  H   LIG A   1      -8.352   4.316 118.845  0.00  0.00    +0.292 HD
ENDBRANCH   8  13
BRANCH   9  15
ATOM     15  O   LIG A   1      -9.091   3.378 120.603  0.00  0.00    -0.503 OA
ATOM     16  H   LIG A   1      -9.673   3.474 121.381  0.00  0.00    +0.292 HD
ENDBRANCH   9  15
TORSDOF 2
ENDMDL
MODEL 6
REMARK VINA RESULT:      -5.7      9.126     10.197
REMARK  Name = NuBBE_594
REMARK  3 active torsions:
REMARK  status: ('A' for Active; 'I' for Inactive)
REMARK    1  A    between atoms: C_1  and  C_2
REMARK    2  A    between atoms: C_9  and  O_10
REMARK    3  A    between atoms: C_11  and  O_12
REMARK                            x       y       z     vdW  Elec       q    Type
REMARK                         _______ _______ _______ _____ _____    ______ ____
ROOT
ATOM      1  C   LIG A   1      -8.103  -2.906 124.755  0.00  0.00    +0.052 C 
ATOM      2  C   LIG A   1      -7.507  -2.306 123.483  0.00  0.00    +0.178 C 
ATOM      3  O   LIG A   1      -8.565  -1.861 122.620  0.00  0.00    -0.458 OA
ATOM      4  C   LIG A   1      -6.505  -1.187 123.721  0.00  0.00    +0.080 C 
ATOM      5  C   LIG A   1      -7.208   0.079 124.119  0.00  0.00    -0.026 A 
ATOM      6  C   LIG A   1      -6.499   1.073 124.817  0.00  0.00    +0.008 A 
ATOM      7  C   LIG A   1      -7.123   2.265 125.182  0.00  0.00    +0.049 A 
ATOM      8  C   LIG A   1      -8.456   2.455 124.843  0.00  0.00    +0.159 A 
ATOM      9  C   LIG A   1      -9.170   1.482 124.135  0.00  0.00    +0.173 A 
ATOM     10  C   LIG A   1      -8.552   0.288 123.750  0.00  0.00    +0.107 A 
ATOM     11  C   LIG A   1      -9.277  -0.738 122.929  0.00  0.00    +0.343 C 
ATOM     12  O   LIG A   1     -10.408  -0.597 122.496  0.00  0.00    -0.245 OA
ENDROOT
BRANCH   8  13
ATOM     13  O   LIG A   1      -9.121   3.604 125.181  0.00  0.00    -0.503 OA
ATOM     14  H   LIG A   1      -9.143   4.189 124.405  0.00  0.00    +0.292 HD
ENDBRANCH   8  13
BRANCH   9  15
ATOM     15  O   LIG A   1     -10.478   1.757 123.848  0.00  0.00    -0.503 OA
ATOM     16  H   LIG A   1     -10.540   1.770 122.873  0.00  0.00    +0.292 HD
ENDBRANCH   9  15
TORSDOF 2
ENDMDL
MODEL 7
REMARK VINA RESULT:      -5.5     10.686     11.561
REMARK  Name = NuBBE_594
REMARK  3 active torsions:
REMARK  status: ('A' for Active; 'I' for Inactive)
REMARK    1  A    between atoms: C_1  and  C_2
REMARK    2  A    between atoms: C_9  and  O_10
REMARK    3  A    between atoms: C_11  and  O_12
REMARK                            x       y       z     vdW  Elec       q    Type
REMARK                         _______ _______ _______ _____ _____    ______ ____
ROOT
ATOM      1  C   LIG A   1      -9.011  -1.118 123.298  0.00  0.00    +0.052 C 
ATOM      2  C   LIG A   1      -8.480  -2.549 123.254  0.00  0.00    +0.178 C 
ATOM      3  O   LIG A   1      -7.044  -2.530 123.295  0.00  0.00    -0.458 OA
ATOM      4  C   LIG A   1      -9.032  -3.463 124.337  0.00  0.00    +0.080 C 
ATOM      5  C   LIG A   1      -8.402  -3.154 125.665  0.00  0.00    -0.026 A 
ATOM      6  C   LIG A   1      -9.065  -3.528 126.847  0.00  0.00    +0.008 A 
ATOM      7  C   LIG A   1      -8.492  -3.270 128.092  0.00  0.00    +0.049 A 
ATOM      8  C   LIG A   1      -7.258  -2.638 128.144  0.00  0.00    +0.159 A 
ATOM      9  C   LIG A   1      -6.579  -2.274 126.976  0.00  0.00    +0.173 A 
ATOM     10  C   LIG A   1      -7.134  -2.540 125.720  0.00  0.00    +0.107 A 
ATOM     11  C   LIG A   1      -6.393  -2.224 124.454  0.00  0.00    +0.343 C 
ATOM     12  O   LIG A   1      -5.261  -1.774 124.416  0.00  0.00    -0.245 OA
ENDROOT
BRANCH   8  13
ATOM     13  O   LIG A   1      -6.652  -2.355 129.339  0.00  0.00    -0.503 OA
ATOM     14  H   LIG A   1      -5.910  -1.748 129.175  0.00  0.00    +0.292 HD
ENDBRANCH   8  13
BRANCH   9  15
ATOM     15  O   LIG A   1      -5.369  -1.655 127.126  0.00  0.00    -0.503 OA
ATOM     16  H   LIG A   1      -5.160  -1.706 128.079  0.00  0.00    +0.292 HD
ENDBRANCH   9  15
TORSDOF 2
ENDMDL
MODEL 8
REMARK VINA RESULT:      -5.4     10.117     11.306
REMARK  Name = NuBBE_594
REMARK  3 active torsions:
REMARK  status: ('A' for Active; 'I' for Inactive)
REMARK    1  A    between atoms: C_1  and  C_2
REMARK    2  A    between atoms: C_9  and  O_10
REMARK    3  A    between atoms: C_11  and  O_12
REMARK                            x       y       z     vdW  Elec       q    Type
REMARK                         _______ _______ _______ _____ _____    ______ ____
ROOT
ATOM      1  C   LIG A   1      -8.395  -2.959 126.690  0.00  0.00    +0.052 C 
ATOM      2  C   LIG A   1      -7.498  -3.215 125.481  0.00  0.00    +0.178 C 
ATOM      3  O   LIG A   1      -8.307  -3.566 124.348  0.00  0.00    -0.458 OA
ATOM      4  C   LIG A   1      -6.562  -2.067 125.134  0.00  0.00    +0.080 C 
ATOM      5  C   LIG A   1      -7.317  -0.948 124.475  0.00  0.00    -0.026 A 
ATOM      6  C   LIG A   1      -6.781   0.352 124.491  0.00  0.00    +0.008 A 
ATOM      7  C   LIG A   1      -7.452   1.403 123.871  0.00  0.00    +0.049 A 
ATOM      8  C   LIG A   1      -8.659   1.147 123.235  0.00  0.00    +0.159 A 
ATOM      9  C   LIG A   1      -9.199  -0.144 123.197  0.00  0.00    +0.173 A 
ATOM     10  C   LIG A   1      -8.528  -1.212 123.803  0.00  0.00    +0.107 A 
ATOM     11  C   LIG A   1      -9.051  -2.616 123.713  0.00  0.00    +0.343 C 
ATOM     12  O   LIG A   1     -10.041  -2.940 123.079  0.00  0.00    -0.245 OA
ENDROOT
BRANCH   8  13
ATOM     13  O   LIG A   1      -9.365   2.143 122.615  0.00  0.00    -0.503 OA
ATOM     14  H   LIG A   1     -10.248   2.196 123.018  0.00  0.00    +0.292 HD
ENDBRANCH   8  13
BRANCH   9  15
ATOM     15  O   LIG A   1     -10.393  -0.300 122.550  0.00  0.00    -0.503 OA
ATOM     16  H   LIG A   1     -10.263  -1.040 121.926  0.00  0.00    +0.292 HD
ENDBRANCH   9  15
TORSDOF 2
ENDMDL
MODEL 9
REMARK VINA RESULT:      -5.4      7.540      8.986
REMARK  Name = NuBBE_594
REMARK  3 active torsions:
REMARK  status: ('A' for Active; 'I' for Inactive)
REMARK    1  A    between atoms: C_1  and  C_2
REMARK    2  A    between atoms: C_9  and  O_10
REMARK    3  A    between atoms: C_11  and  O_12
REMARK                            x       y       z     vdW  Elec       q    Type
REMARK                         _______ _______ _______ _____ _____    ______ ____
ROOT
ATOM      1  C   LIG A   1      -2.016   3.224 126.569  0.00  0.00    +0.052 C 
ATOM      2  C   LIG A   1      -3.064   3.088 127.671  0.00  0.00    +0.178 C 
ATOM      3  O   LIG A   1      -3.640   4.374 127.948  0.00  0.00    -0.458 OA
ATOM      4  C   LIG A   1      -4.153   2.065 127.386  0.00  0.00    +0.080 C 
ATOM      5  C   LIG A   1      -5.128   2.597 126.374  0.00  0.00    -0.026 A 
ATOM      6  C   LIG A   1      -5.914   1.697 125.633  0.00  0.00    +0.008 A 
ATOM      7  C   LIG A   1      -6.840   2.166 124.702  0.00  0.00    +0.049 A 
ATOM      8  C   LIG A   1      -6.973   3.535 124.519  0.00  0.00    +0.159 A 
ATOM      9  C   LIG A   1      -6.208   4.443 125.260  0.00  0.00    +0.173 A 
ATOM     10  C   LIG A   1      -5.287   3.988 126.208  0.00  0.00    +0.107 A 
ATOM     11  C   LIG A   1      -4.508   4.943 127.064  0.00  0.00    +0.343 C 
ATOM     12  O   LIG A   1      -4.649   6.154 127.043  0.00  0.00    -0.245 OA
ENDROOT
BRANCH   8  13
ATOM     13  O   LIG A   1      -7.862   4.050 123.614  0.00  0.00    -0.503 OA
ATOM     14  H   LIG A   1      -8.745   4.065 124.020  0.00  0.00    +0.292 HD
ENDBRANCH   8  13
BRANCH   9  15
ATOM     15  O   LIG A   1      -6.407   5.773 125.009  0.00  0.00    -0.503 OA
ATOM     16  H   LIG A   1      -6.111   5.918 124.090  0.00  0.00    +0.292 HD
ENDBRANCH   9  15
TORSDOF 2
ENDMDL
