MODEL 1
REMARK VINA RESULT:      -7.2      0.000      0.000
REMARK  Name = NuBBE_2260
REMARK  7 active torsions:
REMARK  status: ('A' for Active; 'I' for Inactive)
REMARK    1  A    between atoms: C_1  and  C_2
REMARK    2  A    between atoms: C_6  and  O_13
REMARK    3  A    between atoms: C_7  and  C_9
REMARK    4  A    between atoms: C_9  and  C_10
REMARK    5  A    between atoms: C_9  and  C_11
REMARK    6  A    between atoms: C_9  and  O_12
REMARK    7  A    between atoms: C_14  and  C_17
REMARK                            x       y       z     vdW  Elec       q    Type
REMARK                         _______ _______ _______ _____ _____    ______ ____
ROOT
ATOM      1  C   LIG A   1      -4.054   4.726 121.591  0.00  0.00    +0.044 C 
ATOM      2  C   LIG A   1      -5.389   4.550 120.915  0.00  0.00    -0.043 A 
ATOM      3  C   LIG A   1      -6.493   3.937 121.569  0.00  0.00    -0.014 A 
ATOM      4  C   LIG A   1      -7.723   3.801 120.876  0.00  0.00    -0.011 A 
ATOM      5  C   LIG A   1      -8.800   3.180 121.544  0.00  0.00    +0.054 A 
ATOM      6  C   LIG A   1      -8.676   2.714 122.855  0.00  0.00    +0.123 A 
ATOM      7  C   LIG A   1      -7.487   2.848 123.577  0.00  0.00    +0.025 A 
ATOM      8  C   LIG A   1      -6.410   3.453 122.900  0.00  0.00    +0.018 A 
ATOM      9  C   LIG A   1      -7.835   4.282 119.542  0.00  0.00    -0.043 A 
ATOM     10  C   LIG A   1      -6.732   4.882 118.924  0.00  0.00    +0.004 A 
ATOM     11  C   LIG A   1      -5.526   5.013 119.600  0.00  0.00    +0.004 A 
ATOM     12  C   LIG A   1      -9.115   4.170 118.755  0.00  0.00    +0.044 C 
ENDROOT
BRANCH   7  13
ATOM     13  C   LIG A   1      -7.332   2.313 125.006  0.00  0.00    +0.089 C 
ATOM     14  C   LIG A   1      -7.153   0.790 124.966  0.00  0.00    +0.046 C 
ATOM     15  C   LIG A   1      -6.176   2.937 125.802  0.00  0.00    +0.046 C 
BRANCH  13  16
ATOM     16  O   LIG A   1      -8.499   2.586 125.794  0.00  0.00    -0.384 OA
ATOM     17  H   LIG A   1      -9.237   2.682 125.161  0.00  0.00    +0.211 HD
ENDBRANCH  13  16
ENDBRANCH   7  13
BRANCH   6  18
ATOM     18  O   LIG A   1      -9.752   2.109 123.453  0.00  0.00    -0.506 OA
ATOM     19  H   LIG A   1     -10.566   2.433 123.031  0.00  0.00    +0.292 HD
ENDBRANCH   6  18
TORSDOF 3
ENDMDL
MODEL 2
REMARK VINA RESULT:      -6.9      8.724     10.916
REMARK  Name = NuBBE_2260
REMARK  7 active torsions:
REMARK  status: ('A' for Active; 'I' for Inactive)
REMARK    1  A    between atoms: C_1  and  C_2
REMARK    2  A    between atoms: C_6  and  O_13
REMARK    3  A    between atoms: C_7  and  C_9
REMARK    4  A    between atoms: C_9  and  C_10
REMARK    5  A    between atoms: C_9  and  C_11
REMARK    6  A    between atoms: C_9  and  O_12
REMARK    7  A    between atoms: C_14  and  C_17
REMARK                            x       y       z     vdW  Elec       q    Type
REMARK                         _______ _______ _______ _____ _____    ______ ____
ROOT
ATOM      1  C   LIG A   1      -5.887   7.465 130.334  0.00  0.00    +0.044 C 
ATOM      2  C   LIG A   1      -6.540   6.741 131.483  0.00  0.00    -0.043 A 
ATOM      3  C   LIG A   1      -7.947   6.549 131.552  0.00  0.00    -0.014 A 
ATOM      4  C   LIG A   1      -8.500   5.859 132.662  0.00  0.00    -0.011 A 
ATOM      5  C   LIG A   1      -9.900   5.692 132.712  0.00  0.00    +0.054 A 
ATOM      6  C   LIG A   1     -10.733   6.179 131.702  0.00  0.00    +0.123 A 
ATOM      7  C   LIG A   1     -10.223   6.846 130.585  0.00  0.00    +0.025 A 
ATOM      8  C   LIG A   1      -8.827   7.026 130.546  0.00  0.00    +0.018 A 
ATOM      9  C   LIG A   1      -7.640   5.367 133.683  0.00  0.00    -0.043 A 
ATOM     10  C   LIG A   1      -6.259   5.570 133.586  0.00  0.00    +0.004 A 
ATOM     11  C   LIG A   1      -5.716   6.247 132.503  0.00  0.00    +0.004 A 
ATOM     12  C   LIG A   1      -8.166   4.624 134.884  0.00  0.00    +0.044 C 
ENDROOT
BRANCH   7  13
ATOM     13  C   LIG A   1     -11.130   7.411 129.485  0.00  0.00    +0.089 C 
ATOM     14  C   LIG A   1     -12.175   8.343 130.111  0.00  0.00    +0.046 C 
ATOM     15  C   LIG A   1     -10.391   8.159 128.365  0.00  0.00    +0.046 C 
BRANCH  13  16
ATOM     16  O   LIG A   1     -11.842   6.365 128.808  0.00  0.00    -0.384 OA
ATOM     17  H   LIG A   1     -11.734   6.538 127.852  0.00  0.00    +0.211 HD
ENDBRANCH  13  16
ENDBRANCH   7  13
BRANCH   6  18
ATOM     18  O   LIG A   1     -12.088   5.998 131.808  0.00  0.00    -0.506 OA
ATOM     19  H   LIG A   1     -12.402   5.526 131.017  0.00  0.00    +0.292 HD
ENDBRANCH   6  18
TORSDOF 3
ENDMDL
MODEL 3
REMARK VINA RESULT:      -6.4      2.983      6.922
REMARK  Name = NuBBE_2260
REMARK  7 active torsions:
REMARK  status: ('A' for Active; 'I' for Inactive)
REMARK    1  A    between atoms: C_1  and  C_2
REMARK    2  A    between atoms: C_6  and  O_13
REMARK    3  A    between atoms: C_7  and  C_9
REMARK    4  A    between atoms: C_9  and  C_10
REMARK    5  A    between atoms: C_9  and  C_11
REMARK    6  A    between atoms: C_9  and  O_12
REMARK    7  A    between atoms: C_14  and  C_17
REMARK                            x       y       z     vdW  Elec       q    Type
REMARK                         _______ _______ _______ _____ _____    ______ ____
ROOT
ATOM      1  C   LIG A   1      -8.287  -2.251 122.420  0.00  0.00    +0.044 C 
ATOM      2  C   LIG A   1      -8.318  -2.331 123.924  0.00  0.00    -0.043 A 
ATOM      3  C   LIG A   1      -8.334  -1.168 124.743  0.00  0.00    -0.014 A 
ATOM      4  C   LIG A   1      -8.362  -1.313 126.154  0.00  0.00    -0.011 A 
ATOM      5  C   LIG A   1      -8.366  -0.143 126.943  0.00  0.00    +0.054 A 
ATOM      6  C   LIG A   1      -8.351   1.130 126.367  0.00  0.00    +0.123 A 
ATOM      7  C   LIG A   1      -8.343   1.311 124.981  0.00  0.00    +0.025 A 
ATOM      8  C   LIG A   1      -8.322   0.142 124.197  0.00  0.00    +0.018 A 
ATOM      9  C   LIG A   1      -8.379  -2.614 126.727  0.00  0.00    -0.043 A 
ATOM     10  C   LIG A   1      -8.364  -3.740 125.896  0.00  0.00    +0.004 A 
ATOM     11  C   LIG A   1      -8.333  -3.601 124.515  0.00  0.00    +0.004 A 
ATOM     12  C   LIG A   1      -8.413  -2.833 128.218  0.00  0.00    +0.044 C 
ENDROOT
BRANCH   7  13
ATOM     13  C   LIG A   1      -8.296   2.703 124.338  0.00  0.00    +0.089 C 
ATOM     14  C   LIG A   1      -6.873   3.267 124.440  0.00  0.00    +0.046 C 
ATOM     15  C   LIG A   1      -8.754   2.748 122.873  0.00  0.00    +0.046 C 
BRANCH  13  16
ATOM     16  O   LIG A   1      -9.168   3.619 125.015  0.00  0.00    -0.384 OA
ATOM     17  H   LIG A   1     -10.078   3.356 124.774  0.00  0.00    +0.211 HD
ENDBRANCH  13  16
ENDBRANCH   7  13
BRANCH   6  18
ATOM     18  O   LIG A   1      -8.345   2.232 127.182  0.00  0.00    -0.506 OA
ATOM     19  H   LIG A   1      -7.499   2.698 127.070  0.00  0.00    +0.292 HD
ENDBRANCH   6  18
TORSDOF 3
ENDMDL
MODEL 4
REMARK VINA RESULT:      -6.3      5.402      8.363
REMARK  Name = NuBBE_2260
REMARK  7 active torsions:
REMARK  status: ('A' for Active; 'I' for Inactive)
REMARK    1  A    between atoms: C_1  and  C_2
REMARK    2  A    between atoms: C_6  and  O_13
REMARK    3  A    between atoms: C_7  and  C_9
REMARK    4  A    between atoms: C_9  and  C_10
REMARK    5  A    between atoms: C_9  and  C_11
REMARK    6  A    between atoms: C_9  and  O_12
REMARK    7  A    between atoms: C_14  and  C_17
REMARK                            x       y       z     vdW  Elec       q    Type
REMARK                         _______ _______ _______ _____ _____    ______ ____
ROOT
ATOM      1  C   LIG A   1      -8.715  -4.343 128.169  0.00  0.00    +0.044 C 
ATOM      2  C   LIG A   1      -8.321  -2.900 128.360  0.00  0.00    -0.043 A 
ATOM      3  C   LIG A   1      -8.279  -1.979 127.277  0.00  0.00    -0.014 A 
ATOM      4  C   LIG A   1      -7.898  -0.635 127.524  0.00  0.00    -0.011 A 
ATOM      5  C   LIG A   1      -7.855   0.256 126.431  0.00  0.00    +0.054 A 
ATOM      6  C   LIG A   1      -8.182  -0.156 125.136  0.00  0.00    +0.123 A 
ATOM      7  C   LIG A   1      -8.580  -1.466 124.859  0.00  0.00    +0.025 A 
ATOM      8  C   LIG A   1      -8.606  -2.357 125.949  0.00  0.00    +0.018 A 
ATOM      9  C   LIG A   1      -7.569  -0.229 128.847  0.00  0.00    -0.043 A 
ATOM     10  C   LIG A   1      -7.621  -1.158 129.893  0.00  0.00    +0.004 A 
ATOM     11  C   LIG A   1      -7.990  -2.475 129.653  0.00  0.00    +0.004 A 
ATOM     12  C   LIG A   1      -7.161   1.184 129.173  0.00  0.00    +0.044 C 
ENDROOT
BRANCH   7  13
ATOM     13  C   LIG A   1      -8.913  -1.937 123.437  0.00  0.00    +0.089 C 
ATOM     14  C   LIG A   1      -7.629  -1.981 122.598  0.00  0.00    +0.046 C 
ATOM     15  C   LIG A   1      -9.615  -3.301 123.361  0.00  0.00    +0.046 C 
BRANCH  13  16
ATOM     16  O   LIG A   1      -9.818  -1.032 122.787  0.00  0.00    -0.384 OA
ATOM     17  H   LIG A   1     -10.163  -0.444 123.488  0.00  0.00    +0.211 HD
ENDBRANCH  13  16
ENDBRANCH   7  13
BRANCH   6  18
ATOM     18  O   LIG A   1      -8.113   0.750 124.109  0.00  0.00    -0.506 OA
ATOM     19  H   LIG A   1      -8.136   0.266 123.265  0.00  0.00    +0.292 HD
ENDBRANCH   6  18
TORSDOF 3
ENDMDL
MODEL 5
REMARK VINA RESULT:      -6.3      5.600      9.034
REMARK  Name = NuBBE_2260
REMARK  7 active torsions:
REMARK  status: ('A' for Active; 'I' for Inactive)
REMARK    1  A    between atoms: C_1  and  C_2
REMARK    2  A    between atoms: C_6  and  O_13
REMARK    3  A    between atoms: C_7  and  C_9
REMARK    4  A    between atoms: C_9  and  C_10
REMARK    5  A    between atoms: C_9  and  C_11
REMARK    6  A    between atoms: C_9  and  O_12
REMARK    7  A    between atoms: C_14  and  C_17
REMARK                            x       y       z     vdW  Elec       q    Type
REMARK                         _______ _______ _______ _____ _____    ______ ____
ROOT
ATOM      1  C   LIG A   1      -9.857  -4.317 128.099  0.00  0.00    +0.044 C 
ATOM      2  C   LIG A   1      -8.529  -3.616 128.226  0.00  0.00    -0.043 A 
ATOM      3  C   LIG A   1      -7.934  -2.923 127.136  0.00  0.00    -0.014 A 
ATOM      4  C   LIG A   1      -6.680  -2.285 127.321  0.00  0.00    -0.011 A 
ATOM      5  C   LIG A   1      -6.106  -1.613 126.221  0.00  0.00    +0.054 A 
ATOM      6  C   LIG A   1      -6.744  -1.563 124.979  0.00  0.00    +0.123 A 
ATOM      7  C   LIG A   1      -7.988  -2.163 124.765  0.00  0.00    +0.025 A 
ATOM      8  C   LIG A   1      -8.550  -2.847 125.861  0.00  0.00    +0.018 A 
ATOM      9  C   LIG A   1      -6.043  -2.343 128.591  0.00  0.00    -0.043 A 
ATOM     10  C   LIG A   1      -6.654  -3.031 129.646  0.00  0.00    +0.004 A 
ATOM     11  C   LIG A   1      -7.879  -3.659 129.466  0.00  0.00    +0.004 A 
ATOM     12  C   LIG A   1      -4.713  -1.682 128.851  0.00  0.00    +0.044 C 
ENDROOT
BRANCH   7  13
ATOM     13  C   LIG A   1      -8.684  -2.140 123.398  0.00  0.00    +0.089 C 
ATOM     14  C   LIG A   1      -9.700  -3.287 123.321  0.00  0.00    +0.046 C 
ATOM     15  C   LIG A   1      -9.387  -0.817 123.059  0.00  0.00    +0.046 C 
BRANCH  13  16
ATOM     16  O   LIG A   1      -7.743  -2.330 122.331  0.00  0.00    -0.384 OA
ATOM     17  H   LIG A   1      -8.275  -2.454 121.520  0.00  0.00    +0.211 HD
ENDBRANCH  13  16
ENDBRANCH   7  13
BRANCH   6  18
ATOM     18  O   LIG A   1      -6.136  -0.906 123.941  0.00  0.00    -0.506 OA
ATOM     19  H   LIG A   1      -6.425  -1.309 123.104  0.00  0.00    +0.292 HD
ENDBRANCH   6  18
TORSDOF 3
ENDMDL
MODEL 6
REMARK VINA RESULT:      -6.2      2.762      4.938
REMARK  Name = NuBBE_2260
REMARK  7 active torsions:
REMARK  status: ('A' for Active; 'I' for Inactive)
REMARK    1  A    between atoms: C_1  and  C_2
REMARK    2  A    between atoms: C_6  and  O_13
REMARK    3  A    between atoms: C_7  and  C_9
REMARK    4  A    between atoms: C_9  and  C_10
REMARK    5  A    between atoms: C_9  and  C_11
REMARK    6  A    between atoms: C_9  and  O_12
REMARK    7  A    between atoms: C_14  and  C_17
REMARK                            x       y       z     vdW  Elec       q    Type
REMARK                         _______ _______ _______ _____ _____    ______ ____
ROOT
ATOM      1  C   LIG A   1      -5.242   1.108 126.997  0.00  0.00    +0.044 C 
ATOM      2  C   LIG A   1      -5.946   1.574 125.749  0.00  0.00    -0.043 A 
ATOM      3  C   LIG A   1      -6.938   0.787 125.103  0.00  0.00    -0.014 A 
ATOM      4  C   LIG A   1      -7.563   1.283 123.929  0.00  0.00    -0.011 A 
ATOM      5  C   LIG A   1      -8.537   0.476 123.302  0.00  0.00    +0.054 A 
ATOM      6  C   LIG A   1      -8.892  -0.774 123.812  0.00  0.00    +0.123 A 
ATOM      7  C   LIG A   1      -8.313  -1.287 124.976  0.00  0.00    +0.025 A 
ATOM      8  C   LIG A   1      -7.330  -0.487 125.590  0.00  0.00    +0.018 A 
ATOM      9  C   LIG A   1      -7.192   2.558 123.422  0.00  0.00    -0.043 A 
ATOM     10  C   LIG A   1      -6.214   3.312 124.080  0.00  0.00    +0.004 A 
ATOM     11  C   LIG A   1      -5.598   2.827 125.226  0.00  0.00    +0.004 A 
ATOM     12  C   LIG A   1      -7.822   3.141 122.182  0.00  0.00    +0.044 C 
ENDROOT
BRANCH   7  13
ATOM     13  C   LIG A   1      -8.674  -2.671 125.529  0.00  0.00    +0.089 C 
ATOM     14  C   LIG A   1      -7.993  -3.755 124.683  0.00  0.00    +0.046 C 
ATOM     15  C   LIG A   1      -8.316  -2.885 127.008  0.00  0.00    +0.046 C 
BRANCH  13  16
ATOM     16  O   LIG A   1     -10.088  -2.905 125.465  0.00  0.00    -0.384 OA
ATOM     17  H   LIG A   1     -10.510  -2.136 125.896  0.00  0.00    +0.211 HD
ENDBRANCH  13  16
ENDBRANCH   7  13
BRANCH   6  18
ATOM     18  O   LIG A   1      -9.837  -1.520 123.156  0.00  0.00    -0.506 OA
ATOM     19  H   LIG A   1      -9.862  -2.409 123.551  0.00  0.00    +0.292 HD
ENDBRANCH   6  18
TORSDOF 3
ENDMDL
MODEL 7
REMARK VINA RESULT:      -6.2      3.651      6.674
REMARK  Name = NuBBE_2260
REMARK  7 active torsions:
REMARK  status: ('A' for Active; 'I' for Inactive)
REMARK    1  A    between atoms: C_1  and  C_2
REMARK    2  A    between atoms: C_6  and  O_13
REMARK    3  A    between atoms: C_7  and  C_9
REMARK    4  A    between atoms: C_9  and  C_10
REMARK    5  A    between atoms: C_9  and  C_11
REMARK    6  A    between atoms: C_9  and  O_12
REMARK    7  A    between atoms: C_14  and  C_17
REMARK                            x       y       z     vdW  Elec       q    Type
REMARK                         _______ _______ _______ _____ _____    ______ ____
ROOT
ATOM      1  C   LIG A   1      -7.516  -1.251 128.673  0.00  0.00    +0.044 C 
ATOM      2  C   LIG A   1      -8.031  -1.707 127.332  0.00  0.00    -0.043 A 
ATOM      3  C   LIG A   1      -8.247  -0.802 126.258  0.00  0.00    -0.014 A 
ATOM      4  C   LIG A   1      -8.736  -1.296 125.021  0.00  0.00    -0.011 A 
ATOM      5  C   LIG A   1      -8.951  -0.375 123.974  0.00  0.00    +0.054 A 
ATOM      6  C   LIG A   1      -8.689   0.988 124.132  0.00  0.00    +0.123 A 
ATOM      7  C   LIG A   1      -8.189   1.509 125.329  0.00  0.00    +0.025 A 
ATOM      8  C   LIG A   1      -7.991   0.589 126.377  0.00  0.00    +0.018 A 
ATOM      9  C   LIG A   1      -8.997  -2.686 124.873  0.00  0.00    -0.043 A 
ATOM     10  C   LIG A   1      -8.773  -3.554 125.948  0.00  0.00    +0.004 A 
ATOM     11  C   LIG A   1      -8.299  -3.072 127.161  0.00  0.00    +0.004 A 
ATOM     12  C   LIG A   1      -9.512  -3.272 123.584  0.00  0.00    +0.044 C 
ENDROOT
BRANCH   7  13
ATOM     13  C   LIG A   1      -7.926   3.007 125.523  0.00  0.00    +0.089 C 
ATOM     14  C   LIG A   1      -7.758   3.308 127.018  0.00  0.00    +0.046 C 
ATOM     15  C   LIG A   1      -6.709   3.549 124.758  0.00  0.00    +0.046 C 
BRANCH  13  16
ATOM     16  O   LIG A   1      -9.028   3.795 125.050  0.00  0.00    -0.384 OA
ATOM     17  H   LIG A   1      -8.636   4.600 124.656  0.00  0.00    +0.211 HD
ENDBRANCH  13  16
ENDBRANCH   7  13
BRANCH   6  18
ATOM     18  O   LIG A   1      -8.927   1.841 123.084  0.00  0.00    -0.506 OA
ATOM     19  H   LIG A   1      -9.512   1.395 122.447  0.00  0.00    +0.292 HD
ENDBRANCH   6  18
TORSDOF 3
ENDMDL
MODEL 8
REMARK VINA RESULT:      -6.1      7.186      9.351
REMARK  Name = NuBBE_2260
REMARK  7 active torsions:
REMARK  status: ('A' for Active; 'I' for Inactive)
REMARK    1  A    between atoms: C_1  and  C_2
REMARK    2  A    between atoms: C_6  and  O_13
REMARK    3  A    between atoms: C_7  and  C_9
REMARK    4  A    between atoms: C_9  and  C_10
REMARK    5  A    between atoms: C_9  and  C_11
REMARK    6  A    between atoms: C_9  and  O_12
REMARK    7  A    between atoms: C_14  and  C_17
REMARK                            x       y       z     vdW  Elec       q    Type
REMARK                         _______ _______ _______ _____ _____    ______ ____
ROOT
ATOM      1  C   LIG A   1     -10.519   7.549 126.646  0.00  0.00    +0.044 C 
ATOM      2  C   LIG A   1     -11.165   7.660 128.003  0.00  0.00    -0.043 A 
ATOM      3  C   LIG A   1     -10.794   6.819 129.088  0.00  0.00    -0.014 A 
ATOM      4  C   LIG A   1     -11.443   6.974 130.340  0.00  0.00    -0.011 A 
ATOM      5  C   LIG A   1     -11.062   6.120 131.397  0.00  0.00    +0.054 A 
ATOM      6  C   LIG A   1     -10.072   5.148 131.234  0.00  0.00    +0.123 A 
ATOM      7  C   LIG A   1      -9.397   4.980 130.022  0.00  0.00    +0.025 A 
ATOM      8  C   LIG A   1      -9.791   5.823 128.965  0.00  0.00    +0.018 A 
ATOM      9  C   LIG A   1     -12.448   7.967 130.492  0.00  0.00    -0.043 A 
ATOM     10  C   LIG A   1     -12.792   8.781 129.407  0.00  0.00    +0.004 A 
ATOM     11  C   LIG A   1     -12.161   8.629 128.180  0.00  0.00    +0.004 A 
ATOM     12  C   LIG A   1     -13.171   8.183 131.798  0.00  0.00    +0.044 C 
ENDROOT
BRANCH   7  13
ATOM     13  C   LIG A   1      -8.328   3.898 129.823  0.00  0.00    +0.089 C 
ATOM     14  C   LIG A   1      -9.008   2.533 129.653  0.00  0.00    +0.046 C 
ATOM     15  C   LIG A   1      -7.380   4.142 128.640  0.00  0.00    +0.046 C 
BRANCH  13  16
ATOM     16  O   LIG A   1      -7.463   3.805 130.964  0.00  0.00    -0.384 OA
ATOM     17  H   LIG A   1      -7.576   2.901 131.317  0.00  0.00    +0.211 HD
ENDBRANCH  13  16
ENDBRANCH   7  13
BRANCH   6  18
ATOM     18  O   LIG A   1      -9.749   4.338 132.293  0.00  0.00    -0.506 OA
ATOM     19  H   LIG A   1     -10.499   3.745 132.471  0.00  0.00    +0.292 HD
ENDBRANCH   6  18
TORSDOF 3
ENDMDL
MODEL 9
REMARK VINA RESULT:      -6.0      5.851      7.472
REMARK  Name = NuBBE_2260
REMARK  7 active torsions:
REMARK  status: ('A' for Active; 'I' for Inactive)
REMARK    1  A    between atoms: C_1  and  C_2
REMARK    2  A    between atoms: C_6  and  O_13
REMARK    3  A    between atoms: C_7  and  C_9
REMARK    4  A    between atoms: C_9  and  C_10
REMARK    5  A    between atoms: C_9  and  C_11
REMARK    6  A    between atoms: C_9  and  O_12
REMARK    7  A    between atoms: C_14  and  C_17
REMARK                            x       y       z     vdW  Elec       q    Type
REMARK                         _______ _______ _______ _____ _____    ______ ____
ROOT
ATOM      1  C   LIG A   1      -5.096  -0.179 125.538  0.00  0.00    +0.044 C 
ATOM      2  C   LIG A   1      -6.251  -1.021 125.061  0.00  0.00    -0.043 A 
ATOM      3  C   LIG A   1      -7.016  -1.828 125.948  0.00  0.00    -0.014 A 
ATOM      4  C   LIG A   1      -8.091  -2.598 125.434  0.00  0.00    -0.011 A 
ATOM      5  C   LIG A   1      -8.827  -3.398 126.334  0.00  0.00    +0.054 A 
ATOM      6  C   LIG A   1      -8.524  -3.435 127.697  0.00  0.00    +0.123 A 
ATOM      7  C   LIG A   1      -7.486  -2.675 128.242  0.00  0.00    +0.025 A 
ATOM      8  C   LIG A   1      -6.743  -1.891 127.339  0.00  0.00    +0.018 A 
ATOM      9  C   LIG A   1      -8.389  -2.550 124.044  0.00  0.00    -0.043 A 
ATOM     10  C   LIG A   1      -7.619  -1.746 123.195  0.00  0.00    +0.004 A 
ATOM     11  C   LIG A   1      -6.565  -0.993 123.695  0.00  0.00    +0.004 A 
ATOM     12  C   LIG A   1      -9.519  -3.342 123.439  0.00  0.00    +0.044 C 
ENDROOT
BRANCH   7  13
ATOM     13  C   LIG A   1      -7.126  -2.731 129.732  0.00  0.00    +0.089 C 
ATOM     14  C   LIG A   1      -6.394  -4.045 130.034  0.00  0.00    +0.046 C 
ATOM     15  C   LIG A   1      -6.277  -1.552 130.232  0.00  0.00    +0.046 C 
BRANCH  13  16
ATOM     16  O   LIG A   1      -8.302  -2.699 130.554  0.00  0.00    -0.384 OA
ATOM     17  H   LIG A   1      -8.413  -1.769 130.832  0.00  0.00    +0.211 HD
ENDBRANCH  13  16
ENDBRANCH   7  13
BRANCH   6  18
ATOM     18  O   LIG A   1      -9.266  -4.238 128.525  0.00  0.00    -0.506 OA
ATOM     19  H   LIG A   1      -9.877  -3.679 129.035  0.00  0.00    +0.292 HD
ENDBRANCH   6  18
TORSDOF 3
ENDMDL
