MODEL 1
REMARK VINA RESULT:      -6.5      0.000      0.000
REMARK  Name = NuBBE_212
REMARK  14 active torsions:
REMARK  status: ('A' for Active; 'I' for Inactive)
REMARK    1  A    between atoms: C_1  and  O_2
REMARK    2  A    between atoms: O_2  and  C_3
REMARK    3  A    between atoms: C_4  and  O_15
REMARK    4  A    between atoms: C_5  and  O_6
REMARK    5  A    between atoms: O_6  and  C_7
REMARK    6  A    between atoms: C_9  and  C_10
REMARK    7  A    between atoms: C_11  and  C_12
REMARK    8  A    between atoms: C_12  and  O_13
REMARK    9  A    between atoms: O_15  and  C_16
REMARK   10  A    between atoms: C_19  and  C_27
REMARK   11  A    between atoms: C_21  and  O_26
REMARK   12  A    between atoms: C_23  and  O_25
REMARK   13  A    between atoms: C_27  and  O_28
REMARK   14  A    between atoms: C_29  and  O_31
REMARK                            x       y       z     vdW  Elec       q    Type
REMARK                         _______ _______ _______ _____ _____    ______ ____
ROOT
ATOM      1  O   LIG A   1      -7.174   0.077 125.742  0.00  0.00    -0.454 OA
ENDROOT
BRANCH   1   3
ATOM      2  C   LIG A   1      -6.105   2.168 125.376  0.00  0.00    +0.166 A 
ATOM      3  C   LIG A   1      -6.892   1.109 124.880  0.00  0.00    +0.207 A 
ATOM      4  C   LIG A   1      -7.403   1.206 123.567  0.00  0.00    +0.166 A 
ATOM      5  C   LIG A   1      -7.010   2.262 122.740  0.00  0.00    +0.057 A 
ATOM      6  C   LIG A   1      -6.164   3.266 123.206  0.00  0.00    -0.018 A 
ATOM      7  C   LIG A   1      -5.738   3.225 124.532  0.00  0.00    +0.057 A 
BRANCH   2   9
ATOM      8  C   LIG A   1      -4.140   2.433 126.705  0.00  0.00    +0.277 C 
ATOM      9  O   LIG A   1      -5.551   2.268 126.630  0.00  0.00    -0.491 OA
ENDBRANCH   2   9
BRANCH   4  10
ATOM     10  O   LIG A   1      -8.333   0.285 123.165  0.00  0.00    -0.491 OA
ATOM     11  C   LIG A   1      -9.694   0.694 123.100  0.00  0.00    +0.277 C 
ENDBRANCH   4  10
BRANCH   6  12
ATOM     12  C   LIG A   1      -5.712   4.252 122.229  0.00  0.00    +0.006 C 
ATOM     13  C   LIG A   1      -5.687   4.058 120.887  0.00  0.00    +0.001 C 
BRANCH  13  14
ATOM     14  C   LIG A   1      -5.303   5.133 119.933  0.00  0.00    +0.183 C 
BRANCH  14  15
ATOM     15  O   LIG A   1      -4.582   6.142 120.619  0.00  0.00    -0.391 OA
ATOM     16  H   LIG A   1      -4.350   6.817 119.959  0.00  0.00    +0.210 HD
ENDBRANCH  14  15
ENDBRANCH  13  14
ENDBRANCH   6  12
ENDBRANCH   1   3
BRANCH   1  17
ATOM     17  C   LIG A   1      -6.144  -0.886 126.040  0.00  0.00    +0.340 C 
ATOM     18  O   LIG A   1      -6.355  -2.125 125.341  0.00  0.00    -0.331 OA
ATOM     19  C   LIG A   1      -7.569  -2.828 125.641  0.00  0.00    +0.179 C 
ATOM     20  C   LIG A   1      -8.178  -2.461 127.005  0.00  0.00    +0.177 C 
ATOM     21  C   LIG A   1      -7.013  -2.299 127.983  0.00  0.00    +0.180 C 
ATOM     22  C   LIG A   1      -6.119  -1.123 127.574  0.00  0.00    +0.214 C 
BRANCH  21  23
ATOM     23  O   LIG A   1      -7.474  -2.069 129.324  0.00  0.00    -0.386 OA
ATOM     24  H   LIG A   1      -6.918  -1.344 129.677  0.00  0.00    +0.210 HD
ENDBRANCH  21  23
BRANCH  20  25
ATOM     25  O   LIG A   1      -9.048  -3.488 127.495  0.00  0.00    -0.387 OA
ATOM     26  H   LIG A   1      -9.848  -3.484 126.938  0.00  0.00    +0.210 HD
ENDBRANCH  20  25
BRANCH  22  27
ATOM     27  O   LIG A   1      -4.787  -1.402 128.050  0.00  0.00    -0.383 OA
ATOM     28  H   LIG A   1      -4.646  -0.802 128.808  0.00  0.00    +0.210 HD
ENDBRANCH  22  27
BRANCH  19  29
ATOM     29  C   LIG A   1      -8.563  -2.736 124.474  0.00  0.00    +0.190 C 
BRANCH  29  30
ATOM     30  O   LIG A   1      -9.912  -2.886 124.884  0.00  0.00    -0.392 OA
ATOM     31  H   LIG A   1     -10.244  -3.658 124.385  0.00  0.00    +0.209 HD
ENDBRANCH  29  30
ENDBRANCH  19  29
ENDBRANCH   1  17
TORSDOF 12
ENDMDL
MODEL 2
REMARK VINA RESULT:      -6.3      0.914      2.538
REMARK  Name = NuBBE_212
REMARK  14 active torsions:
REMARK  status: ('A' for Active; 'I' for Inactive)
REMARK    1  A    between atoms: C_1  and  O_2
REMARK    2  A    between atoms: O_2  and  C_3
REMARK    3  A    between atoms: C_4  and  O_15
REMARK    4  A    between atoms: C_5  and  O_6
REMARK    5  A    between atoms: O_6  and  C_7
REMARK    6  A    between atoms: C_9  and  C_10
REMARK    7  A    between atoms: C_11  and  C_12
REMARK    8  A    between atoms: C_12  and  O_13
REMARK    9  A    between atoms: O_15  and  C_16
REMARK   10  A    between atoms: C_19  and  C_27
REMARK   11  A    between atoms: C_21  and  O_26
REMARK   12  A    between atoms: C_23  and  O_25
REMARK   13  A    between atoms: C_27  and  O_28
REMARK   14  A    between atoms: C_29  and  O_31
REMARK                            x       y       z     vdW  Elec       q    Type
REMARK                         _______ _______ _______ _____ _____    ______ ____
ROOT
ATOM      1  O   LIG A   1      -7.119  -0.183 126.102  0.00  0.00    -0.454 OA
ENDROOT
BRANCH   1   3
ATOM      2  C   LIG A   1      -7.164   0.430 123.806  0.00  0.00    +0.166 A 
ATOM      3  C   LIG A   1      -6.867   0.767 125.142  0.00  0.00    +0.207 A 
ATOM      4  C   LIG A   1      -6.265   2.017 125.404  0.00  0.00    +0.166 A 
ATOM      5  C   LIG A   1      -6.106   2.948 124.374  0.00  0.00    +0.057 A 
ATOM      6  C   LIG A   1      -6.476   2.644 123.066  0.00  0.00    -0.018 A 
ATOM      7  C   LIG A   1      -6.980   1.375 122.787  0.00  0.00    +0.057 A 
BRANCH   2   9
ATOM      8  C   LIG A   1      -6.853  -1.651 122.679  0.00  0.00    +0.277 C 
ATOM      9  O   LIG A   1      -7.717  -0.743 123.354  0.00  0.00    -0.491 OA
ENDBRANCH   2   9
BRANCH   4  10
ATOM     10  O   LIG A   1      -5.788   2.253 126.667  0.00  0.00    -0.491 OA
ATOM     11  C   LIG A   1      -4.382   2.393 126.835  0.00  0.00    +0.277 C 
ENDBRANCH   4  10
BRANCH   6  12
ATOM     12  C   LIG A   1      -6.390   3.725 122.089  0.00  0.00    +0.006 C 
ATOM     13  C   LIG A   1      -5.406   3.860 121.167  0.00  0.00    +0.001 C 
BRANCH  13  14
ATOM     14  C   LIG A   1      -5.419   4.932 120.135  0.00  0.00    +0.183 C 
BRANCH  14  15
ATOM     15  O   LIG A   1      -4.642   6.030 120.583  0.00  0.00    -0.391 OA
ATOM     16  H   LIG A   1      -5.264   6.749 120.783  0.00  0.00    +0.210 HD
ENDBRANCH  14  15
ENDBRANCH  13  14
ENDBRANCH   6  12
ENDBRANCH   1   3
BRANCH   1  17
ATOM     17  C   LIG A   1      -6.103  -1.157 126.405  0.00  0.00    +0.340 C 
ATOM     18  O   LIG A   1      -6.487  -2.477 125.981  0.00  0.00    -0.331 OA
ATOM     19  C   LIG A   1      -7.668  -3.023 126.587  0.00  0.00    +0.179 C 
ATOM     20  C   LIG A   1      -8.023  -2.384 127.940  0.00  0.00    +0.177 C 
ATOM     21  C   LIG A   1      -6.706  -2.150 128.681  0.00  0.00    +0.180 C 
ATOM     22  C   LIG A   1      -5.836  -1.133 127.935  0.00  0.00    +0.214 C 
BRANCH  21  23
ATOM     23  O   LIG A   1      -6.927  -1.661 130.014  0.00  0.00    -0.386 OA
ATOM     24  H   LIG A   1      -6.306  -2.157 130.586  0.00  0.00    +0.210 HD
ENDBRANCH  21  23
BRANCH  20  25
ATOM     25  O   LIG A   1      -8.850  -3.244 128.735  0.00  0.00    -0.387 OA
ATOM     26  H   LIG A   1      -8.440  -3.312 129.616  0.00  0.00    +0.210 HD
ENDBRANCH  20  25
BRANCH  22  27
ATOM     27  O   LIG A   1      -4.459  -1.429 128.241  0.00  0.00    -0.383 OA
ATOM     28  H   LIG A   1      -4.069  -1.765 127.411  0.00  0.00    +0.210 HD
ENDBRANCH  22  27
BRANCH  19  29
ATOM     29  C   LIG A   1      -8.836  -3.054 125.589  0.00  0.00    +0.190 C 
BRANCH  29  30
ATOM     30  O   LIG A   1      -9.508  -1.809 125.488  0.00  0.00    -0.392 OA
ATOM     31  H   LIG A   1     -10.228  -1.961 124.846  0.00  0.00    +0.209 HD
ENDBRANCH  29  30
ENDBRANCH  19  29
ENDBRANCH   1  17
TORSDOF 12
ENDMDL
MODEL 3
REMARK VINA RESULT:      -6.2      2.404      4.325
REMARK  Name = NuBBE_212
REMARK  14 active torsions:
REMARK  status: ('A' for Active; 'I' for Inactive)
REMARK    1  A    between atoms: C_1  and  O_2
REMARK    2  A    between atoms: O_2  and  C_3
REMARK    3  A    between atoms: C_4  and  O_15
REMARK    4  A    between atoms: C_5  and  O_6
REMARK    5  A    between atoms: O_6  and  C_7
REMARK    6  A    between atoms: C_9  and  C_10
REMARK    7  A    between atoms: C_11  and  C_12
REMARK    8  A    between atoms: C_12  and  O_13
REMARK    9  A    between atoms: O_15  and  C_16
REMARK   10  A    between atoms: C_19  and  C_27
REMARK   11  A    between atoms: C_21  and  O_26
REMARK   12  A    between atoms: C_23  and  O_25
REMARK   13  A    between atoms: C_27  and  O_28
REMARK   14  A    between atoms: C_29  and  O_31
REMARK                            x       y       z     vdW  Elec       q    Type
REMARK                         _______ _______ _______ _____ _____    ______ ____
ROOT
ATOM      1  O   LIG A   1      -7.158  -0.484 124.807  0.00  0.00    -0.454 OA
ENDROOT
BRANCH   1   3
ATOM      2  C   LIG A   1      -6.631   1.796 124.389  0.00  0.00    +0.166 A 
ATOM      3  C   LIG A   1      -6.459   0.639 125.177  0.00  0.00    +0.207 A 
ATOM      4  C   LIG A   1      -5.531   0.680 126.241  0.00  0.00    +0.166 A 
ATOM      5  C   LIG A   1      -4.914   1.886 126.586  0.00  0.00    +0.057 A 
ATOM      6  C   LIG A   1      -5.149   3.049 125.856  0.00  0.00    -0.018 A 
ATOM      7  C   LIG A   1      -5.988   2.989 124.745  0.00  0.00    +0.057 A 
BRANCH   2   9
ATOM      8  C   LIG A   1      -8.252   3.116 123.238  0.00  0.00    +0.277 C 
ATOM      9  O   LIG A   1      -7.457   1.938 123.301  0.00  0.00    -0.491 OA
ENDBRANCH   2   9
BRANCH   4  10
ATOM     10  O   LIG A   1      -5.213  -0.496 126.866  0.00  0.00    -0.491 OA
ATOM     11  C   LIG A   1      -5.749  -0.730 128.163  0.00  0.00    +0.277 C 
ENDBRANCH   4  10
BRANCH   6  12
ATOM     12  C   LIG A   1      -4.558   4.280 126.373  0.00  0.00    +0.006 C 
ATOM     13  C   LIG A   1      -3.728   4.352 127.443  0.00  0.00    +0.001 C 
BRANCH  13  14
ATOM     14  C   LIG A   1      -3.082   5.623 127.868  0.00  0.00    +0.183 C 
BRANCH  14  15
ATOM     15  O   LIG A   1      -4.007   6.690 127.743  0.00  0.00    -0.391 OA
ATOM     16  H   LIG A   1      -3.719   7.222 126.982  0.00  0.00    +0.210 HD
ENDBRANCH  14  15
ENDBRANCH  13  14
ENDBRANCH   6  12
ENDBRANCH   1   3
BRANCH   1  17
ATOM     17  C   LIG A   1      -6.584  -1.375 123.832  0.00  0.00    +0.340 C 
ATOM     18  O   LIG A   1      -7.321  -1.361 122.597  0.00  0.00    -0.331 OA
ATOM     19  C   LIG A   1      -8.692  -1.778 122.668  0.00  0.00    +0.179 C 
ATOM     20  C   LIG A   1      -9.008  -2.666 123.883  0.00  0.00    +0.177 C 
ATOM     21  C   LIG A   1      -7.813  -3.602 124.072  0.00  0.00    +0.180 C 
ATOM     22  C   LIG A   1      -6.553  -2.808 124.431  0.00  0.00    +0.214 C 
BRANCH  21  23
ATOM     23  O   LIG A   1      -8.052  -4.562 125.114  0.00  0.00    -0.386 OA
ATOM     24  H   LIG A   1      -7.628  -5.392 124.814  0.00  0.00    +0.210 HD
ENDBRANCH  21  23
BRANCH  20  25
ATOM     25  O   LIG A   1     -10.183  -3.460 123.671  0.00  0.00    -0.387 OA
ATOM     26  H   LIG A   1     -10.176  -4.175 124.333  0.00  0.00    +0.210 HD
ENDBRANCH  20  25
BRANCH  22  27
ATOM     27  O   LIG A   1      -5.416  -3.559 123.960  0.00  0.00    -0.383 OA
ATOM     28  H   LIG A   1      -4.649  -3.221 124.462  0.00  0.00    +0.210 HD
ENDBRANCH  22  27
BRANCH  19  29
ATOM     29  C   LIG A   1      -9.642  -0.581 122.511  0.00  0.00    +0.190 C 
BRANCH  29  30
ATOM     30  O   LIG A   1      -9.883   0.096 123.733  0.00  0.00    -0.392 OA
ATOM     31  H   LIG A   1     -10.244  -0.584 124.334  0.00  0.00    +0.209 HD
ENDBRANCH  29  30
ENDBRANCH  19  29
ENDBRANCH   1  17
TORSDOF 12
ENDMDL
MODEL 4
REMARK VINA RESULT:      -6.2      2.304      4.004
REMARK  Name = NuBBE_212
REMARK  14 active torsions:
REMARK  status: ('A' for Active; 'I' for Inactive)
REMARK    1  A    between atoms: C_1  and  O_2
REMARK    2  A    between atoms: O_2  and  C_3
REMARK    3  A    between atoms: C_4  and  O_15
REMARK    4  A    between atoms: C_5  and  O_6
REMARK    5  A    between atoms: O_6  and  C_7
REMARK    6  A    between atoms: C_9  and  C_10
REMARK    7  A    between atoms: C_11  and  C_12
REMARK    8  A    between atoms: C_12  and  O_13
REMARK    9  A    between atoms: O_15  and  C_16
REMARK   10  A    between atoms: C_19  and  C_27
REMARK   11  A    between atoms: C_21  and  O_26
REMARK   12  A    between atoms: C_23  and  O_25
REMARK   13  A    between atoms: C_27  and  O_28
REMARK   14  A    between atoms: C_29  and  O_31
REMARK                            x       y       z     vdW  Elec       q    Type
REMARK                         _______ _______ _______ _____ _____    ______ ____
ROOT
ATOM      1  O   LIG A   1      -7.191  -0.374 124.902  0.00  0.00    -0.454 OA
ENDROOT
BRANCH   1   3
ATOM      2  C   LIG A   1      -5.577   0.591 126.357  0.00  0.00    +0.166 A 
ATOM      3  C   LIG A   1      -6.511   0.747 125.312  0.00  0.00    +0.207 A 
ATOM      4  C   LIG A   1      -6.745   2.045 124.807  0.00  0.00    +0.166 A 
ATOM      5  C   LIG A   1      -5.959   3.117 125.238  0.00  0.00    +0.057 A 
ATOM      6  C   LIG A   1      -4.979   2.944 126.213  0.00  0.00    -0.018 A 
ATOM      7  C   LIG A   1      -4.813   1.685 126.785  0.00  0.00    +0.057 A 
BRANCH   2   9
ATOM      8  C   LIG A   1      -5.941  -0.888 128.195  0.00  0.00    +0.277 C 
ATOM      9  O   LIG A   1      -5.242  -0.579 126.995  0.00  0.00    -0.491 OA
ENDBRANCH   2   9
BRANCH   4  10
ATOM     10  O   LIG A   1      -7.795   2.224 123.946  0.00  0.00    -0.491 OA
ATOM     11  C   LIG A   1      -7.506   2.638 122.615  0.00  0.00    +0.277 C 
ENDBRANCH   4  10
BRANCH   6  12
ATOM     12  C   LIG A   1      -4.128   4.095 126.502  0.00  0.00    +0.006 C 
ATOM     13  C   LIG A   1      -4.270   4.915 127.572  0.00  0.00    +0.001 C 
BRANCH  13  14
ATOM     14  C   LIG A   1      -3.316   6.018 127.865  0.00  0.00    +0.183 C 
BRANCH  14  15
ATOM     15  O   LIG A   1      -4.034   7.170 128.273  0.00  0.00    -0.391 OA
ATOM     16  H   LIG A   1      -4.807   6.855 128.772  0.00  0.00    +0.210 HD
ENDBRANCH  14  15
ENDBRANCH  13  14
ENDBRANCH   6  12
ENDBRANCH   1   3
BRANCH   1  17
ATOM     17  C   LIG A   1      -6.602  -1.219 123.895  0.00  0.00    +0.340 C 
ATOM     18  O   LIG A   1      -7.336  -1.168 122.660  0.00  0.00    -0.331 OA
ATOM     19  C   LIG A   1      -8.701  -1.607 122.711  0.00  0.00    +0.179 C 
ATOM     20  C   LIG A   1      -9.008  -2.545 123.890  0.00  0.00    +0.177 C 
ATOM     21  C   LIG A   1      -7.800  -3.470 124.048  0.00  0.00    +0.180 C 
ATOM     22  C   LIG A   1      -6.552  -2.673 124.440  0.00  0.00    +0.214 C 
BRANCH  21  23
ATOM     23  O   LIG A   1      -8.027  -4.473 125.052  0.00  0.00    -0.386 OA
ATOM     24  H   LIG A   1      -8.524  -4.026 125.768  0.00  0.00    +0.210 HD
ENDBRANCH  21  23
BRANCH  20  25
ATOM     25  O   LIG A   1     -10.171  -3.347 123.646  0.00  0.00    -0.387 OA
ATOM     26  H   LIG A   1     -10.610  -2.991 122.852  0.00  0.00    +0.210 HD
ENDBRANCH  20  25
BRANCH  22  27
ATOM     27  O   LIG A   1      -5.403  -3.389 123.944  0.00  0.00    -0.383 OA
ATOM     28  H   LIG A   1      -5.745  -4.245 123.618  0.00  0.00    +0.210 HD
ENDBRANCH  22  27
BRANCH  19  29
ATOM     29  C   LIG A   1      -9.668  -0.418 122.597  0.00  0.00    +0.190 C 
BRANCH  29  30
ATOM     30  O   LIG A   1      -9.913   0.215 123.841  0.00  0.00    -0.392 OA
ATOM     31  H   LIG A   1      -9.370   1.028 123.823  0.00  0.00    +0.209 HD
ENDBRANCH  29  30
ENDBRANCH  19  29
ENDBRANCH   1  17
TORSDOF 12
ENDMDL
MODEL 5
REMARK VINA RESULT:      -6.1      2.448      7.050
REMARK  Name = NuBBE_212
REMARK  14 active torsions:
REMARK  status: ('A' for Active; 'I' for Inactive)
REMARK    1  A    between atoms: C_1  and  O_2
REMARK    2  A    between atoms: O_2  and  C_3
REMARK    3  A    between atoms: C_4  and  O_15
REMARK    4  A    between atoms: C_5  and  O_6
REMARK    5  A    between atoms: O_6  and  C_7
REMARK    6  A    between atoms: C_9  and  C_10
REMARK    7  A    between atoms: C_11  and  C_12
REMARK    8  A    between atoms: C_12  and  O_13
REMARK    9  A    between atoms: O_15  and  C_16
REMARK   10  A    between atoms: C_19  and  C_27
REMARK   11  A    between atoms: C_21  and  O_26
REMARK   12  A    between atoms: C_23  and  O_25
REMARK   13  A    between atoms: C_27  and  O_28
REMARK   14  A    between atoms: C_29  and  O_31
REMARK                            x       y       z     vdW  Elec       q    Type
REMARK                         _______ _______ _______ _____ _____    ______ ____
ROOT
ATOM      1  O   LIG A   1      -7.699   0.587 125.416  0.00  0.00    -0.454 OA
ENDROOT
BRANCH   1   3
ATOM      2  C   LIG A   1      -5.853  -0.183 126.700  0.00  0.00    +0.166 A 
ATOM      3  C   LIG A   1      -7.187  -0.353 126.277  0.00  0.00    +0.207 A 
ATOM      4  C   LIG A   1      -7.885  -1.506 126.698  0.00  0.00    +0.166 A 
ATOM      5  C   LIG A   1      -7.307  -2.374 127.628  0.00  0.00    +0.057 A 
ATOM      6  C   LIG A   1      -6.017  -2.159 128.108  0.00  0.00    -0.018 A 
ATOM      7  C   LIG A   1      -5.289  -1.077 127.620  0.00  0.00    +0.057 A 
BRANCH   2   9
ATOM      8  C   LIG A   1      -4.777   1.842 127.364  0.00  0.00    +0.277 C 
ATOM      9  O   LIG A   1      -5.008   0.850 126.370  0.00  0.00    -0.491 OA
ENDBRANCH   2   9
BRANCH   4  10
ATOM     10  O   LIG A   1      -9.098  -1.774 126.121  0.00  0.00    -0.491 OA
ATOM     11  C   LIG A   1      -9.420  -3.131 125.841  0.00  0.00    +0.277 C 
ENDBRANCH   4  10
BRANCH   6  12
ATOM     12  C   LIG A   1      -5.554  -3.048 129.170  0.00  0.00    +0.006 C 
ATOM     13  C   LIG A   1      -6.247  -3.335 130.299  0.00  0.00    +0.001 C 
BRANCH  13  14
ATOM     14  C   LIG A   1      -5.765  -4.321 131.303  0.00  0.00    +0.183 C 
BRANCH  14  15
ATOM     15  O   LIG A   1      -5.655  -5.598 130.698  0.00  0.00    -0.391 OA
ATOM     16  H   LIG A   1      -5.138  -5.477 129.883  0.00  0.00    +0.210 HD
ENDBRANCH  14  15
ENDBRANCH  13  14
ENDBRANCH   6  12
ENDBRANCH   1   3
BRANCH   1  17
ATOM     17  C   LIG A   1      -8.619   1.572 125.923  0.00  0.00    +0.340 C 
ATOM     18  O   LIG A   1      -9.826   1.626 125.143  0.00  0.00    -0.331 OA
ATOM     19  C   LIG A   1      -9.678   1.984 123.762  0.00  0.00    +0.179 C 
ATOM     20  C   LIG A   1      -8.387   2.762 123.458  0.00  0.00    +0.177 C 
ATOM     21  C   LIG A   1      -8.163   3.725 124.625  0.00  0.00    +0.180 C 
ATOM     22  C   LIG A   1      -7.910   2.954 125.924  0.00  0.00    +0.214 C 
BRANCH  21  23
ATOM     23  O   LIG A   1      -7.041   4.592 124.389  0.00  0.00    -0.386 OA
ATOM     24  H   LIG A   1      -6.751   4.409 123.473  0.00  0.00    +0.210 HD
ENDBRANCH  21  23
BRANCH  20  25
ATOM     25  O   LIG A   1      -8.497   3.525 122.249  0.00  0.00    -0.387 OA
ATOM     26  H   LIG A   1      -7.706   3.335 121.711  0.00  0.00    +0.210 HD
ENDBRANCH  20  25
BRANCH  22  27
ATOM     27  O   LIG A   1      -8.357   3.782 127.017  0.00  0.00    -0.383 OA
ATOM     28  H   LIG A   1      -7.625   3.785 127.663  0.00  0.00    +0.210 HD
ENDBRANCH  22  27
BRANCH  19  29
ATOM     29  C   LIG A   1      -9.898   0.767 122.850  0.00  0.00    +0.190 C 
BRANCH  29  30
ATOM     30  O   LIG A   1      -9.762  -0.467 123.534  0.00  0.00    -0.392 OA
ATOM     31  H   LIG A   1      -8.799  -0.622 123.590  0.00  0.00    +0.209 HD
ENDBRANCH  29  30
ENDBRANCH  19  29
ENDBRANCH   1  17
TORSDOF 12
ENDMDL
MODEL 6
REMARK VINA RESULT:      -6.0      5.753      8.257
REMARK  Name = NuBBE_212
REMARK  14 active torsions:
REMARK  status: ('A' for Active; 'I' for Inactive)
REMARK    1  A    between atoms: C_1  and  O_2
REMARK    2  A    between atoms: O_2  and  C_3
REMARK    3  A    between atoms: C_4  and  O_15
REMARK    4  A    between atoms: C_5  and  O_6
REMARK    5  A    between atoms: O_6  and  C_7
REMARK    6  A    between atoms: C_9  and  C_10
REMARK    7  A    between atoms: C_11  and  C_12
REMARK    8  A    between atoms: C_12  and  O_13
REMARK    9  A    between atoms: O_15  and  C_16
REMARK   10  A    between atoms: C_19  and  C_27
REMARK   11  A    between atoms: C_21  and  O_26
REMARK   12  A    between atoms: C_23  and  O_25
REMARK   13  A    between atoms: C_27  and  O_28
REMARK   14  A    between atoms: C_29  and  O_31
REMARK                            x       y       z     vdW  Elec       q    Type
REMARK                         _______ _______ _______ _____ _____    ______ ____
ROOT
ATOM      1  O   LIG A   1      -8.834   4.367 129.732  0.00  0.00    -0.454 OA
ENDROOT
BRANCH   1   3
ATOM      2  C   LIG A   1      -7.414   4.142 127.838  0.00  0.00    +0.166 A 
ATOM      3  C   LIG A   1      -7.631   3.946 129.218  0.00  0.00    +0.207 A 
ATOM      4  C   LIG A   1      -6.643   3.270 129.966  0.00  0.00    +0.166 A 
ATOM      5  C   LIG A   1      -5.422   2.937 129.375  0.00  0.00    +0.057 A 
ATOM      6  C   LIG A   1      -5.177   3.205 128.030  0.00  0.00    -0.018 A 
ATOM      7  C   LIG A   1      -6.187   3.784 127.264  0.00  0.00    +0.057 A 
BRANCH   2   9
ATOM      8  C   LIG A   1      -8.004   4.547 125.562  0.00  0.00    +0.277 C 
ATOM      9  O   LIG A   1      -8.267   4.745 126.946  0.00  0.00    -0.491 OA
ENDBRANCH   2   9
BRANCH   4  10
ATOM     10  O   LIG A   1      -6.946   2.897 131.249  0.00  0.00    -0.491 OA
ATOM     11  C   LIG A   1      -6.608   1.577 131.660  0.00  0.00    +0.277 C 
ENDBRANCH   4  10
BRANCH   6  12
ATOM     12  C   LIG A   1      -3.828   2.937 127.540  0.00  0.00    +0.006 C 
ATOM     13  C   LIG A   1      -3.194   3.653 126.580  0.00  0.00    +0.001 C 
BRANCH  13  14
ATOM     14  C   LIG A   1      -1.784   3.390 126.187  0.00  0.00    +0.183 C 
BRANCH  14  15
ATOM     15  O   LIG A   1      -1.256   2.345 126.986  0.00  0.00    -0.391 OA
ATOM     16  H   LIG A   1      -1.655   2.440 127.868  0.00  0.00    +0.210 HD
ENDBRANCH  14  15
ENDBRANCH  13  14
ENDBRANCH   6  12
ENDBRANCH   1   3
BRANCH   1  17
ATOM     17  C   LIG A   1      -9.299   5.695 129.427  0.00  0.00    +0.340 C 
ATOM     18  O   LIG A   1      -8.463   6.702 130.024  0.00  0.00    -0.331 OA
ATOM     19  C   LIG A   1      -8.381   6.696 131.456  0.00  0.00    +0.179 C 
ATOM     20  C   LIG A   1      -9.572   6.005 132.143  0.00  0.00    +0.177 C 
ATOM     21  C   LIG A   1     -10.824   6.390 131.355  0.00  0.00    +0.180 C 
ATOM     22  C   LIG A   1     -10.762   5.834 129.929  0.00  0.00    +0.214 C 
BRANCH  21  23
ATOM     23  O   LIG A   1     -12.018   5.893 131.980  0.00  0.00    -0.386 OA
ATOM     24  H   LIG A   1     -12.687   5.830 131.267  0.00  0.00    +0.210 HD
ENDBRANCH  21  23
BRANCH  20  25
ATOM     25  O   LIG A   1      -9.731   6.440 133.499  0.00  0.00    -0.387 OA
ATOM     26  H   LIG A   1      -8.887   6.838 133.780  0.00  0.00    +0.210 HD
ENDBRANCH  20  25
BRANCH  22  27
ATOM     27  O   LIG A   1     -11.536   6.710 129.084  0.00  0.00    -0.383 OA
ATOM     28  H   LIG A   1     -11.664   7.530 129.600  0.00  0.00    +0.210 HD
ENDBRANCH  22  27
BRANCH  19  29
ATOM     29  C   LIG A   1      -7.011   6.184 131.928  0.00  0.00    +0.190 C 
BRANCH  29  30
ATOM     30  O   LIG A   1      -7.108   5.231 132.972  0.00  0.00    -0.392 OA
ATOM     31  H   LIG A   1      -7.948   4.760 132.809  0.00  0.00    +0.209 HD
ENDBRANCH  29  30
ENDBRANCH  19  29
ENDBRANCH   1  17
TORSDOF 12
ENDMDL
MODEL 7
REMARK VINA RESULT:      -5.9      2.512      7.596
REMARK  Name = NuBBE_212
REMARK  14 active torsions:
REMARK  status: ('A' for Active; 'I' for Inactive)
REMARK    1  A    between atoms: C_1  and  O_2
REMARK    2  A    between atoms: O_2  and  C_3
REMARK    3  A    between atoms: C_4  and  O_15
REMARK    4  A    between atoms: C_5  and  O_6
REMARK    5  A    between atoms: O_6  and  C_7
REMARK    6  A    between atoms: C_9  and  C_10
REMARK    7  A    between atoms: C_11  and  C_12
REMARK    8  A    between atoms: C_12  and  O_13
REMARK    9  A    between atoms: O_15  and  C_16
REMARK   10  A    between atoms: C_19  and  C_27
REMARK   11  A    between atoms: C_21  and  O_26
REMARK   12  A    between atoms: C_23  and  O_25
REMARK   13  A    between atoms: C_27  and  O_28
REMARK   14  A    between atoms: C_29  and  O_31
REMARK                            x       y       z     vdW  Elec       q    Type
REMARK                         _______ _______ _______ _____ _____    ______ ____
ROOT
ATOM      1  O   LIG A   1      -7.712   0.735 125.868  0.00  0.00    -0.454 OA
ENDROOT
BRANCH   1   3
ATOM      2  C   LIG A   1      -8.369  -1.426 126.609  0.00  0.00    +0.166 A 
ATOM      3  C   LIG A   1      -7.560  -0.284 126.777  0.00  0.00    +0.207 A 
ATOM      4  C   LIG A   1      -6.705  -0.222 127.900  0.00  0.00    +0.166 A 
ATOM      5  C   LIG A   1      -6.566  -1.333 128.736  0.00  0.00    +0.057 A 
ATOM      6  C   LIG A   1      -7.307  -2.493 128.520  0.00  0.00    -0.018 A 
ATOM      7  C   LIG A   1      -8.224  -2.521 127.471  0.00  0.00    +0.057 A 
BRANCH   2   9
ATOM      8  C   LIG A   1      -9.337  -2.968 125.066  0.00  0.00    +0.277 C 
ATOM      9  O   LIG A   1      -9.279  -1.652 125.605  0.00  0.00    -0.491 OA
ENDBRANCH   2   9
BRANCH   4  10
ATOM     10  O   LIG A   1      -6.082   0.967 128.174  0.00  0.00    -0.491 OA
ATOM     11  C   LIG A   1      -6.515   1.701 129.314  0.00  0.00    +0.277 C 
ENDBRANCH   4  10
BRANCH   6  12
ATOM     12  C   LIG A   1      -6.997  -3.640 129.370  0.00  0.00    +0.006 C 
ATOM     13  C   LIG A   1      -5.807  -3.850 129.984  0.00  0.00    +0.001 C 
BRANCH  13  14
ATOM     14  C   LIG A   1      -5.577  -4.989 130.913  0.00  0.00    +0.183 C 
BRANCH  14  15
ATOM     15  O   LIG A   1      -4.969  -4.515 132.102  0.00  0.00    -0.391 OA
ATOM     16  H   LIG A   1      -5.235  -3.585 132.200  0.00  0.00    +0.210 HD
ENDBRANCH  14  15
ENDBRANCH  13  14
ENDBRANCH   6  12
ENDBRANCH   1   3
BRANCH   1  17
ATOM     17  C   LIG A   1      -8.633   1.803 126.162  0.00  0.00    +0.340 C 
ATOM     18  O   LIG A   1      -9.742   1.817 125.246  0.00  0.00    -0.331 OA
ATOM     19  C   LIG A   1      -9.424   2.019 123.862  0.00  0.00    +0.179 C 
ATOM     20  C   LIG A   1      -8.070   2.713 123.632  0.00  0.00    +0.177 C 
ATOM     21  C   LIG A   1      -7.931   3.785 124.712  0.00  0.00    +0.180 C 
ATOM     22  C   LIG A   1      -7.862   3.150 126.104  0.00  0.00    +0.214 C 
BRANCH  21  23
ATOM     23  O   LIG A   1      -6.749   4.580 124.521  0.00  0.00    -0.386 OA
ATOM     24  H   LIG A   1      -6.094   4.244 125.167  0.00  0.00    +0.210 HD
ENDBRANCH  21  23
BRANCH  20  25
ATOM     25  O   LIG A   1      -8.007   3.344 122.347  0.00  0.00    -0.387 OA
ATOM     26  H   LIG A   1      -7.215   3.912 122.339  0.00  0.00    +0.210 HD
ENDBRANCH  20  25
BRANCH  22  27
ATOM     27  O   LIG A   1      -8.387   4.106 127.047  0.00  0.00    -0.383 OA
ATOM     28  H   LIG A   1      -9.299   3.813 127.241  0.00  0.00    +0.210 HD
ENDBRANCH  22  27
BRANCH  19  29
ATOM     29  C   LIG A   1      -9.600   0.721 123.060  0.00  0.00    +0.190 C 
BRANCH  29  30
ATOM     30  O   LIG A   1      -8.490  -0.154 123.176  0.00  0.00    -0.392 OA
ATOM     31  H   LIG A   1      -8.075   0.073 124.030  0.00  0.00    +0.209 HD
ENDBRANCH  29  30
ENDBRANCH  19  29
ENDBRANCH   1  17
TORSDOF 12
ENDMDL
MODEL 8
REMARK VINA RESULT:      -5.7      4.944      7.954
REMARK  Name = NuBBE_212
REMARK  14 active torsions:
REMARK  status: ('A' for Active; 'I' for Inactive)
REMARK    1  A    between atoms: C_1  and  O_2
REMARK    2  A    between atoms: O_2  and  C_3
REMARK    3  A    between atoms: C_4  and  O_15
REMARK    4  A    between atoms: C_5  and  O_6
REMARK    5  A    between atoms: O_6  and  C_7
REMARK    6  A    between atoms: C_9  and  C_10
REMARK    7  A    between atoms: C_11  and  C_12
REMARK    8  A    between atoms: C_12  and  O_13
REMARK    9  A    between atoms: O_15  and  C_16
REMARK   10  A    between atoms: C_19  and  C_27
REMARK   11  A    between atoms: C_21  and  O_26
REMARK   12  A    between atoms: C_23  and  O_25
REMARK   13  A    between atoms: C_27  and  O_28
REMARK   14  A    between atoms: C_29  and  O_31
REMARK                            x       y       z     vdW  Elec       q    Type
REMARK                         _______ _______ _______ _____ _____    ______ ____
ROOT
ATOM      1  O   LIG A   1      -8.299   3.034 130.112  0.00  0.00    -0.454 OA
ENDROOT
BRANCH   1   3
ATOM      2  C   LIG A   1      -7.751   0.735 129.855  0.00  0.00    +0.166 A 
ATOM      3  C   LIG A   1      -8.144   1.958 129.273  0.00  0.00    +0.207 A 
ATOM      4  C   LIG A   1      -8.280   2.023 127.868  0.00  0.00    +0.166 A 
ATOM      5  C   LIG A   1      -8.168   0.861 127.100  0.00  0.00    +0.057 A 
ATOM      6  C   LIG A   1      -7.860  -0.364 127.687  0.00  0.00    -0.018 A 
ATOM      7  C   LIG A   1      -7.628  -0.412 129.060  0.00  0.00    +0.057 A 
BRANCH   2   9
ATOM      8  C   LIG A   1      -8.534  -0.255 131.880  0.00  0.00    +0.277 C 
ATOM      9  O   LIG A   1      -7.537   0.488 131.189  0.00  0.00    -0.491 OA
ENDBRANCH   2   9
BRANCH   4  10
ATOM     10  O   LIG A   1      -8.454   3.253 127.292  0.00  0.00    -0.491 OA
ATOM     11  C   LIG A   1      -7.502   3.679 126.324  0.00  0.00    +0.277 C 
ENDBRANCH   4  10
BRANCH   6  12
ATOM     12  C   LIG A   1      -7.892  -1.537 126.818  0.00  0.00    +0.006 C 
ATOM     13  C   LIG A   1      -9.004  -2.028 126.220  0.00  0.00    +0.001 C 
BRANCH  13  14
ATOM     14  C   LIG A   1      -8.961  -3.172 125.269  0.00  0.00    +0.183 C 
BRANCH  14  15
ATOM     15  O   LIG A   1      -9.872  -2.942 124.208  0.00  0.00    -0.391 OA
ATOM     16  H   LIG A   1     -10.765  -3.015 124.586  0.00  0.00    +0.210 HD
ENDBRANCH  14  15
ENDBRANCH  13  14
ENDBRANCH   6  12
ENDBRANCH   1   3
BRANCH   1  17
ATOM     17  C   LIG A   1      -7.131   3.759 130.542  0.00  0.00    +0.340 C 
ATOM     18  O   LIG A   1      -7.003   3.762 131.975  0.00  0.00    -0.331 OA
ATOM     19  C   LIG A   1      -8.071   4.379 132.709  0.00  0.00    +0.179 C 
ATOM     20  C   LIG A   1      -8.886   5.390 131.886  0.00  0.00    +0.177 C 
ATOM     21  C   LIG A   1      -7.894   6.152 131.008  0.00  0.00    +0.180 C 
ATOM     22  C   LIG A   1      -7.224   5.212 130.001  0.00  0.00    +0.214 C 
BRANCH  21  23
ATOM     23  O   LIG A   1      -8.536   7.211 130.278  0.00  0.00    -0.386 OA
ATOM     24  H   LIG A   1      -9.306   6.800 129.834  0.00  0.00    +0.210 HD
ENDBRANCH  21  23
BRANCH  20  25
ATOM     25  O   LIG A   1      -9.573   6.328 132.724  0.00  0.00    -0.387 OA
ATOM     26  H   LIG A   1      -9.073   6.398 133.557  0.00  0.00    +0.210 HD
ENDBRANCH  20  25
BRANCH  22  27
ATOM     27  O   LIG A   1      -5.923   5.753 129.696  0.00  0.00    -0.383 OA
ATOM     28  H   LIG A   1      -5.281   5.156 130.128  0.00  0.00    +0.210 HD
ENDBRANCH  22  27
BRANCH  19  29
ATOM     29  C   LIG A   1      -8.929   3.324 133.424  0.00  0.00    +0.190 C 
BRANCH  29  30
ATOM     30  O   LIG A   1     -10.075   3.878 134.050  0.00  0.00    -0.392 OA
ATOM     31  H   LIG A   1      -9.753   4.230 134.903  0.00  0.00    +0.209 HD
ENDBRANCH  29  30
ENDBRANCH  19  29
ENDBRANCH   1  17
TORSDOF 12
ENDMDL
MODEL 9
REMARK VINA RESULT:      -5.7      3.762      7.345
REMARK  Name = NuBBE_212
REMARK  14 active torsions:
REMARK  status: ('A' for Active; 'I' for Inactive)
REMARK    1  A    between atoms: C_1  and  O_2
REMARK    2  A    between atoms: O_2  and  C_3
REMARK    3  A    between atoms: C_4  and  O_15
REMARK    4  A    between atoms: C_5  and  O_6
REMARK    5  A    between atoms: O_6  and  C_7
REMARK    6  A    between atoms: C_9  and  C_10
REMARK    7  A    between atoms: C_11  and  C_12
REMARK    8  A    between atoms: C_12  and  O_13
REMARK    9  A    between atoms: O_15  and  C_16
REMARK   10  A    between atoms: C_19  and  C_27
REMARK   11  A    between atoms: C_21  and  O_26
REMARK   12  A    between atoms: C_23  and  O_25
REMARK   13  A    between atoms: C_27  and  O_28
REMARK   14  A    between atoms: C_29  and  O_31
REMARK                            x       y       z     vdW  Elec       q    Type
REMARK                         _______ _______ _______ _____ _____    ______ ____
ROOT
ATOM      1  O   LIG A   1      -6.839   3.735 126.677  0.00  0.00    -0.454 OA
ENDROOT
BRANCH   1   3
ATOM      2  C   LIG A   1      -6.840   4.214 129.006  0.00  0.00    +0.166 A 
ATOM      3  C   LIG A   1      -6.129   4.104 127.794  0.00  0.00    +0.207 A 
ATOM      4  C   LIG A   1      -4.759   4.449 127.782  0.00  0.00    +0.166 A 
ATOM      5  C   LIG A   1      -4.103   4.751 128.979  0.00  0.00    +0.057 A 
ATOM      6  C   LIG A   1      -4.791   4.778 130.190  0.00  0.00    -0.018 A 
ATOM      7  C   LIG A   1      -6.163   4.534 130.190  0.00  0.00    +0.057 A 
BRANCH   2   9
ATOM      8  C   LIG A   1      -9.008   5.061 129.535  0.00  0.00    +0.277 C 
ATOM      9  O   LIG A   1      -8.175   3.956 129.205  0.00  0.00    -0.491 OA
ENDBRANCH   2   9
BRANCH   4  10
ATOM     10  O   LIG A   1      -4.126   4.544 126.571  0.00  0.00    -0.491 OA
ATOM     11  C   LIG A   1      -3.017   3.687 126.328  0.00  0.00    +0.277 C 
ENDBRANCH   4  10
BRANCH   6  12
ATOM     12  C   LIG A   1      -3.993   4.977 131.396  0.00  0.00    +0.006 C 
ATOM     13  C   LIG A   1      -2.713   4.559 131.556  0.00  0.00    +0.001 C 
BRANCH  13  14
ATOM     14  C   LIG A   1      -1.918   4.871 132.774  0.00  0.00    +0.183 C 
BRANCH  14  15
ATOM     15  O   LIG A   1      -2.561   4.326 133.913  0.00  0.00    -0.391 OA
ATOM     16  H   LIG A   1      -1.926   4.386 134.647  0.00  0.00    +0.210 HD
ENDBRANCH  14  15
ENDBRANCH  13  14
ENDBRANCH   6  12
ENDBRANCH   1   3
BRANCH   1  17
ATOM     17  C   LIG A   1      -6.757   2.373 126.215  0.00  0.00    +0.340 C 
ATOM     18  O   LIG A   1      -5.997   2.269 124.998  0.00  0.00    -0.331 OA
ATOM     19  C   LIG A   1      -6.511   2.979 123.862  0.00  0.00    +0.179 C 
ATOM     20  C   LIG A   1      -8.017   3.280 123.949  0.00  0.00    +0.177 C 
ATOM     21  C   LIG A   1      -8.682   2.049 124.567  0.00  0.00    +0.180 C 
ATOM     22  C   LIG A   1      -8.198   1.835 126.005  0.00  0.00    +0.214 C 
BRANCH  21  23
ATOM     23  O   LIG A   1     -10.113   2.173 124.587  0.00  0.00    -0.386 OA
ATOM     24  H   LIG A   1     -10.437   1.437 125.146  0.00  0.00    +0.210 HD
ENDBRANCH  21  23
BRANCH  20  25
ATOM     25  O   LIG A   1      -8.590   3.510 122.655  0.00  0.00    -0.387 OA
ATOM     26  H   LIG A   1      -9.555   3.405 122.740  0.00  0.00    +0.210 HD
ENDBRANCH  20  25
BRANCH  22  27
ATOM     27  O   LIG A   1      -8.288   0.424 126.290  0.00  0.00    -0.383 OA
ATOM     28  H   LIG A   1      -7.924  -0.028 125.504  0.00  0.00    +0.210 HD
ENDBRANCH  22  27
BRANCH  19  29
ATOM     29  C   LIG A   1      -5.650   4.211 123.545  0.00  0.00    +0.190 C 
BRANCH  29  30
ATOM     30  O   LIG A   1      -6.004   5.345 124.320  0.00  0.00    -0.392 OA
ATOM     31  H   LIG A   1      -5.795   5.098 125.241  0.00  0.00    +0.209 HD
ENDBRANCH  29  30
ENDBRANCH  19  29
ENDBRANCH   1  17
TORSDOF 12
ENDMDL
