MODEL 1
REMARK VINA RESULT:      -8.3      0.000      0.000
REMARK  Name = NuBBE_1415
REMARK  2 active torsions:
REMARK  status: ('A' for Active; 'I' for Inactive)
REMARK    1  A    between atoms: O_1  and  C_2
REMARK    2  A    between atoms: C_4  and  O_5
REMARK                            x       y       z     vdW  Elec       q    Type
REMARK                         _______ _______ _______ _____ _____    ______ ____
ROOT
ATOM      1  C   LIG A   1     -12.508   8.851 128.659  0.00  0.00    +0.124 A 
ATOM      2  C   LIG A   1     -11.797   8.296 127.600  0.00  0.00    +0.091 A 
ATOM      3  C   LIG A   1     -10.856   7.296 127.856  0.00  0.00    +0.134 A 
ATOM      4  C   LIG A   1     -10.626   6.846 129.165  0.00  0.00    +0.102 A 
ATOM      5  C   LIG A   1     -11.432   7.348 130.200  0.00  0.00    +0.138 A 
ATOM      6  O   LIG A   1     -11.413   6.883 131.490  0.00  0.00    -0.490 OA
ATOM      7  C   LIG A   1     -10.958   5.524 131.587  0.00  0.00    +0.249 C 
ATOM      8  C   LIG A   1      -9.543   5.441 131.012  0.00  0.00    +0.097 C 
ATOM      9  C   LIG A   1      -8.789   4.138 131.223  0.00  0.00    -0.023 A 
ATOM     10  C   LIG A   1      -8.373   2.948 130.676  0.00  0.00    +0.054 A 
ATOM     11  C   LIG A   1      -7.868   2.052 131.591  0.00  0.00    +0.167 A 
ATOM     12  C   LIG A   1      -7.838   2.327 132.953  0.00  0.00    +0.167 A 
ATOM     13  O   LIG A   1      -7.430   1.249 133.679  0.00  0.00    -0.453 OA
ATOM     14  C   LIG A   1      -6.973   0.381 132.622  0.00  0.00    +0.466 C 
ATOM     15  O   LIG A   1      -7.365   0.820 131.306  0.00  0.00    -0.453 OA
ATOM     16  C   LIG A   1      -8.121   3.580 133.463  0.00  0.00    +0.053 A 
ATOM     17  C   LIG A   1      -8.457   4.507 132.509  0.00  0.00    -0.038 A 
ATOM     18  C   LIG A   1      -8.580   5.974 132.127  0.00  0.00    +0.058 C 
ATOM     19  C   LIG A   1      -9.567   5.866 129.531  0.00  0.00    +0.184 C 
ATOM     20  O   LIG A   1      -8.827   5.389 128.647  0.00  0.00    -0.291 OA
ATOM     21  C   LIG A   1     -12.336   8.382 129.954  0.00  0.00    +0.092 A 
ENDROOT
BRANCH   1  22
ATOM     22  O   LIG A   1     -13.406   9.857 128.463  0.00  0.00    -0.506 OA
ATOM     23  H   LIG A   1     -14.173   9.515 127.975  0.00  0.00    +0.292 HD
ENDBRANCH   1  22
BRANCH   3  24
ATOM     24  O   LIG A   1     -10.175   6.759 126.801  0.00  0.00    -0.506 OA
ATOM     25  H   LIG A   1     -10.790   6.422 126.132  0.00  0.00    +0.292 HD
ENDBRANCH   3  24
TORSDOF 2
ENDMDL
MODEL 2
REMARK VINA RESULT:      -8.0      7.384     10.309
REMARK  Name = NuBBE_1415
REMARK  2 active torsions:
REMARK  status: ('A' for Active; 'I' for Inactive)
REMARK    1  A    between atoms: O_1  and  C_2
REMARK    2  A    between atoms: C_4  and  O_5
REMARK                            x       y       z     vdW  Elec       q    Type
REMARK                         _______ _______ _______ _____ _____    ______ ____
ROOT
ATOM      1  C   LIG A   1      -8.627  -3.112 127.105  0.00  0.00    +0.124 A 
ATOM      2  C   LIG A   1      -9.260  -3.272 125.876  0.00  0.00    +0.091 A 
ATOM      3  C   LIG A   1      -9.128  -2.277 124.905  0.00  0.00    +0.134 A 
ATOM      4  C   LIG A   1      -8.364  -1.127 125.154  0.00  0.00    +0.102 A 
ATOM      5  C   LIG A   1      -7.651  -1.042 126.361  0.00  0.00    +0.138 A 
ATOM      6  O   LIG A   1      -6.754  -0.049 126.661  0.00  0.00    -0.490 OA
ATOM      7  C   LIG A   1      -6.176   0.554 125.492  0.00  0.00    +0.249 C 
ATOM      8  C   LIG A   1      -7.303   1.147 124.643  0.00  0.00    +0.097 C 
ATOM      9  C   LIG A   1      -6.892   2.029 123.475  0.00  0.00    -0.023 A 
ATOM     10  C   LIG A   1      -6.707   2.126 122.116  0.00  0.00    +0.054 A 
ATOM     11  C   LIG A   1      -6.041   3.264 121.718  0.00  0.00    +0.167 A 
ATOM     12  C   LIG A   1      -5.560   4.195 122.631  0.00  0.00    +0.167 A 
ATOM     13  O   LIG A   1      -4.816   5.161 122.025  0.00  0.00    -0.453 OA
ATOM     14  C   LIG A   1      -5.099   4.877 120.639  0.00  0.00    +0.466 C 
ATOM     15  O   LIG A   1      -5.758   3.612 120.433  0.00  0.00    -0.453 OA
ATOM     16  C   LIG A   1      -5.887   4.154 123.973  0.00  0.00    +0.053 A 
ATOM     17  C   LIG A   1      -6.697   3.102 124.318  0.00  0.00    -0.038 A 
ATOM     18  C   LIG A   1      -7.688   2.512 125.309  0.00  0.00    +0.058 C 
ATOM     19  C   LIG A   1      -8.266   0.023 124.214  0.00  0.00    +0.184 C 
ATOM     20  O   LIG A   1      -8.879  -0.005 123.127  0.00  0.00    -0.291 OA
ATOM     21  C   LIG A   1      -7.821  -2.009 127.352  0.00  0.00    +0.092 A 
ENDROOT
BRANCH   1  22
ATOM     22  O   LIG A   1      -8.759  -4.036 128.098  0.00  0.00    -0.506 OA
ATOM     23  H   LIG A   1      -8.447  -3.657 128.936  0.00  0.00    +0.292 HD
ENDBRANCH   1  22
BRANCH   3  24
ATOM     24  O   LIG A   1      -9.751  -2.457 123.702  0.00  0.00    -0.506 OA
ATOM     25  H   LIG A   1     -10.681  -2.190 123.754  0.00  0.00    +0.292 HD
ENDBRANCH   3  24
TORSDOF 2
ENDMDL
MODEL 3
REMARK VINA RESULT:      -7.8      8.634      9.561
REMARK  Name = NuBBE_1415
REMARK  2 active torsions:
REMARK  status: ('A' for Active; 'I' for Inactive)
REMARK    1  A    between atoms: O_1  and  C_2
REMARK    2  A    between atoms: C_4  and  O_5
REMARK                            x       y       z     vdW  Elec       q    Type
REMARK                         _______ _______ _______ _____ _____    ______ ____
ROOT
ATOM      1  C   LIG A   1      -9.217  -3.012 124.223  0.00  0.00    +0.124 A 
ATOM      2  C   LIG A   1      -7.895  -2.667 123.963  0.00  0.00    +0.091 A 
ATOM      3  C   LIG A   1      -6.999  -2.539 125.027  0.00  0.00    +0.134 A 
ATOM      4  C   LIG A   1      -7.417  -2.760 126.348  0.00  0.00    +0.102 A 
ATOM      5  C   LIG A   1      -8.728  -3.209 126.572  0.00  0.00    +0.138 A 
ATOM      6  O   LIG A   1      -9.213  -3.604 127.792  0.00  0.00    -0.490 OA
ATOM      7  C   LIG A   1      -8.181  -4.062 128.681  0.00  0.00    +0.249 C 
ATOM      8  C   LIG A   1      -7.180  -2.924 128.892  0.00  0.00    +0.097 C 
ATOM      9  C   LIG A   1      -6.132  -3.122 129.976  0.00  0.00    -0.023 A 
ATOM     10  C   LIG A   1      -4.829  -3.442 130.271  0.00  0.00    +0.054 A 
ATOM     11  C   LIG A   1      -4.592  -3.668 131.608  0.00  0.00    +0.167 A 
ATOM     12  C   LIG A   1      -5.608  -3.621 132.555  0.00  0.00    +0.167 A 
ATOM     13  O   LIG A   1      -5.173  -4.013 133.785  0.00  0.00    -0.453 OA
ATOM     14  C   LIG A   1      -3.750  -4.058 133.556  0.00  0.00    +0.466 C 
ATOM     15  O   LIG A   1      -3.387  -3.972 132.163  0.00  0.00    -0.453 OA
ATOM     16  C   LIG A   1      -6.874  -3.152 132.261  0.00  0.00    +0.053 A 
ATOM     17  C   LIG A   1      -7.037  -2.770 130.954  0.00  0.00    -0.038 A 
ATOM     18  C   LIG A   1      -7.826  -1.954 129.940  0.00  0.00    +0.058 C 
ATOM     19  C   LIG A   1      -6.552  -2.537 127.539  0.00  0.00    +0.184 C 
ATOM     20  O   LIG A   1      -5.378  -2.141 127.392  0.00  0.00    -0.291 OA
ATOM     21  C   LIG A   1      -9.638  -3.288 125.517  0.00  0.00    +0.092 A 
ENDROOT
BRANCH   1  22
ATOM     22  O   LIG A   1     -10.138  -3.108 123.222  0.00  0.00    -0.506 OA
ATOM     23  H   LIG A   1     -10.686  -3.897 123.362  0.00  0.00    +0.292 HD
ENDBRANCH   1  22
BRANCH   3  24
ATOM     24  O   LIG A   1      -5.703  -2.209 124.748  0.00  0.00    -0.506 OA
ATOM     25  H   LIG A   1      -5.139  -2.997 124.754  0.00  0.00    +0.292 HD
ENDBRANCH   3  24
TORSDOF 2
ENDMDL
MODEL 4
REMARK VINA RESULT:      -7.6      7.709      8.245
REMARK  Name = NuBBE_1415
REMARK  2 active torsions:
REMARK  status: ('A' for Active; 'I' for Inactive)
REMARK    1  A    between atoms: O_1  and  C_2
REMARK    2  A    between atoms: C_4  and  O_5
REMARK                            x       y       z     vdW  Elec       q    Type
REMARK                         _______ _______ _______ _____ _____    ______ ____
ROOT
ATOM      1  C   LIG A   1      -8.607   3.016 121.846  0.00  0.00    +0.124 A 
ATOM      2  C   LIG A   1      -9.681   2.133 121.880  0.00  0.00    +0.091 A 
ATOM      3  C   LIG A   1      -9.637   1.034 122.741  0.00  0.00    +0.134 A 
ATOM      4  C   LIG A   1      -8.527   0.817 123.571  0.00  0.00    +0.102 A 
ATOM      5  C   LIG A   1      -7.506   1.781 123.593  0.00  0.00    +0.138 A 
ATOM      6  O   LIG A   1      -6.446   1.765 124.464  0.00  0.00    -0.490 OA
ATOM      7  C   LIG A   1      -6.734   1.059 125.682  0.00  0.00    +0.249 C 
ATOM      8  C   LIG A   1      -7.106  -0.383 125.332  0.00  0.00    +0.097 C 
ATOM      9  C   LIG A   1      -7.229  -1.362 126.488  0.00  0.00    -0.023 A 
ATOM     10  C   LIG A   1      -8.070  -2.045 127.333  0.00  0.00    +0.054 A 
ATOM     11  C   LIG A   1      -7.435  -2.649 128.396  0.00  0.00    +0.167 A 
ATOM     12  C   LIG A   1      -6.067  -2.522 128.605  0.00  0.00    +0.167 A 
ATOM     13  O   LIG A   1      -5.682  -3.081 129.786  0.00  0.00    -0.453 OA
ATOM     14  C   LIG A   1      -6.891  -3.777 130.152  0.00  0.00    +0.466 C 
ATOM     15  O   LIG A   1      -8.034  -3.405 129.355  0.00  0.00    -0.453 OA
ATOM     16  C   LIG A   1      -5.222  -1.961 127.667  0.00  0.00    +0.053 A 
ATOM     17  C   LIG A   1      -5.860  -1.519 126.536  0.00  0.00    -0.038 A 
ATOM     18  C   LIG A   1      -5.758  -1.137 125.067  0.00  0.00    +0.058 C 
ATOM     19  C   LIG A   1      -8.358  -0.385 124.433  0.00  0.00    +0.184 C 
ATOM     20  O   LIG A   1      -9.240  -1.269 124.450  0.00  0.00    -0.291 OA
ATOM     21  C   LIG A   1      -7.524   2.850 122.698  0.00  0.00    +0.092 A 
ENDROOT
BRANCH   1  22
ATOM     22  O   LIG A   1      -8.587   4.078 120.992  0.00  0.00    -0.506 OA
ATOM     23  H   LIG A   1      -7.669   4.274 120.741  0.00  0.00    +0.292 HD
ENDBRANCH   1  22
BRANCH   3  24
ATOM     24  O   LIG A   1     -10.706   0.184 122.765  0.00  0.00    -0.506 OA
ATOM     25  H   LIG A   1     -10.636  -0.476 122.059  0.00  0.00    +0.292 HD
ENDBRANCH   3  24
TORSDOF 2
ENDMDL
MODEL 5
REMARK VINA RESULT:      -7.4      7.864     10.387
REMARK  Name = NuBBE_1415
REMARK  2 active torsions:
REMARK  status: ('A' for Active; 'I' for Inactive)
REMARK    1  A    between atoms: O_1  and  C_2
REMARK    2  A    between atoms: C_4  and  O_5
REMARK                            x       y       z     vdW  Elec       q    Type
REMARK                         _______ _______ _______ _____ _____    ______ ____
ROOT
ATOM      1  C   LIG A   1      -4.486  -1.141 133.004  0.00  0.00    +0.124 A 
ATOM      2  C   LIG A   1      -3.428  -1.428 132.148  0.00  0.00    +0.091 A 
ATOM      3  C   LIG A   1      -3.698  -1.837 130.840  0.00  0.00    +0.134 A 
ATOM      4  C   LIG A   1      -5.020  -1.956 130.384  0.00  0.00    +0.102 A 
ATOM      5  C   LIG A   1      -6.063  -1.559 131.235  0.00  0.00    +0.138 A 
ATOM      6  O   LIG A   1      -7.381  -1.483 130.862  0.00  0.00    -0.490 OA
ATOM      7  C   LIG A   1      -7.549  -1.284 129.448  0.00  0.00    +0.249 C 
ATOM      8  C   LIG A   1      -6.893  -2.453 128.710  0.00  0.00    +0.097 C 
ATOM      9  C   LIG A   1      -7.153  -2.555 127.216  0.00  0.00    -0.023 A 
ATOM     10  C   LIG A   1      -6.670  -2.341 125.947  0.00  0.00    +0.054 A 
ATOM     11  C   LIG A   1      -7.615  -2.469 124.954  0.00  0.00    +0.167 A 
ATOM     12  C   LIG A   1      -8.949  -2.741 125.237  0.00  0.00    +0.167 A 
ATOM     13  O   LIG A   1      -9.725  -2.684 124.119  0.00  0.00    -0.453 OA
ATOM     14  C   LIG A   1      -8.709  -2.604 123.099  0.00  0.00    +0.466 C 
ATOM     15  O   LIG A   1      -7.391  -2.336 123.619  0.00  0.00    -0.453 OA
ATOM     16  C   LIG A   1      -9.381  -3.100 126.500  0.00  0.00    +0.053 A 
ATOM     17  C   LIG A   1      -8.384  -3.132 127.441  0.00  0.00    -0.038 A 
ATOM     18  C   LIG A   1      -7.903  -3.649 128.789  0.00  0.00    +0.058 C 
ATOM     19  C   LIG A   1      -5.389  -2.489 129.044  0.00  0.00    +0.184 C 
ATOM     20  O   LIG A   1      -4.498  -2.853 128.250  0.00  0.00    -0.291 OA
ATOM     21  C   LIG A   1      -5.798  -1.199 132.557  0.00  0.00    +0.092 A 
ENDROOT
BRANCH   1  22
ATOM     22  O   LIG A   1      -4.273  -0.778 134.301  0.00  0.00    -0.506 OA
ATOM     23  H   LIG A   1      -4.180   0.188 134.355  0.00  0.00    +0.292 HD
ENDBRANCH   1  22
BRANCH   3  24
ATOM     24  O   LIG A   1      -2.645  -2.105 130.013  0.00  0.00    -0.506 OA
ATOM     25  H   LIG A   1      -1.901  -2.475 130.513  0.00  0.00    +0.292 HD
ENDBRANCH   3  24
TORSDOF 2
ENDMDL
MODEL 6
REMARK VINA RESULT:      -7.3      6.750      8.207
REMARK  Name = NuBBE_1415
REMARK  2 active torsions:
REMARK  status: ('A' for Active; 'I' for Inactive)
REMARK    1  A    between atoms: O_1  and  C_2
REMARK    2  A    between atoms: C_4  and  O_5
REMARK                            x       y       z     vdW  Elec       q    Type
REMARK                         _______ _______ _______ _____ _____    ______ ____
ROOT
ATOM      1  C   LIG A   1      -6.566   4.595 119.562  0.00  0.00    +0.124 A 
ATOM      2  C   LIG A   1      -5.337   4.897 120.142  0.00  0.00    +0.091 A 
ATOM      3  C   LIG A   1      -5.110   4.559 121.478  0.00  0.00    +0.134 A 
ATOM      4  C   LIG A   1      -6.102   3.917 122.235  0.00  0.00    +0.102 A 
ATOM      5  C   LIG A   1      -7.291   3.530 121.595  0.00  0.00    +0.138 A 
ATOM      6  O   LIG A   1      -8.270   2.768 122.178  0.00  0.00    -0.490 OA
ATOM      7  C   LIG A   1      -7.773   1.936 123.239  0.00  0.00    +0.249 C 
ATOM      8  C   LIG A   1      -7.145   2.834 124.307  0.00  0.00    +0.097 C 
ATOM      9  C   LIG A   1      -6.760   2.174 125.621  0.00  0.00    -0.023 A 
ATOM     10  C   LIG A   1      -5.750   1.659 126.398  0.00  0.00    +0.054 A 
ATOM     11  C   LIG A   1      -6.186   0.951 127.495  0.00  0.00    +0.167 A 
ATOM     12  C   LIG A   1      -7.536   0.742 127.749  0.00  0.00    +0.167 A 
ATOM     13  O   LIG A   1      -7.730  -0.099 128.802  0.00  0.00    -0.453 OA
ATOM     14  C   LIG A   1      -6.387  -0.179 129.322  0.00  0.00    +0.466 C 
ATOM     15  O   LIG A   1      -5.392   0.368 128.434  0.00  0.00    -0.453 OA
ATOM     16  C   LIG A   1      -8.532   1.391 127.044  0.00  0.00    +0.053 A 
ATOM     17  C   LIG A   1      -8.065   2.228 126.063  0.00  0.00    -0.038 A 
ATOM     18  C   LIG A   1      -8.331   3.416 125.150  0.00  0.00    +0.058 C 
ATOM     19  C   LIG A   1      -5.976   3.624 123.688  0.00  0.00    +0.184 C 
ATOM     20  O   LIG A   1      -4.937   3.946 124.302  0.00  0.00    -0.291 OA
ATOM     21  C   LIG A   1      -7.540   3.912 120.276  0.00  0.00    +0.092 A 
ENDROOT
BRANCH   1  22
ATOM     22  O   LIG A   1      -6.848   4.942 118.274  0.00  0.00    -0.506 OA
ATOM     23  H   LIG A   1      -6.234   4.488 117.675  0.00  0.00    +0.292 HD
ENDBRANCH   1  22
BRANCH   3  24
ATOM     24  O   LIG A   1      -3.894   4.856 122.025  0.00  0.00    -0.506 OA
ATOM     25  H   LIG A   1      -3.963   4.944 122.987  0.00  0.00    +0.292 HD
ENDBRANCH   3  24
TORSDOF 2
ENDMDL
MODEL 7
REMARK VINA RESULT:      -7.3      2.407      3.591
REMARK  Name = NuBBE_1415
REMARK  2 active torsions:
REMARK  status: ('A' for Active; 'I' for Inactive)
REMARK    1  A    between atoms: O_1  and  C_2
REMARK    2  A    between atoms: C_4  and  O_5
REMARK                            x       y       z     vdW  Elec       q    Type
REMARK                         _______ _______ _______ _____ _____    ______ ____
ROOT
ATOM      1  C   LIG A   1     -11.479   8.181 129.236  0.00  0.00    +0.124 A 
ATOM      2  C   LIG A   1     -12.221   7.601 130.260  0.00  0.00    +0.091 A 
ATOM      3  C   LIG A   1     -11.577   6.789 131.197  0.00  0.00    +0.134 A 
ATOM      4  C   LIG A   1     -10.195   6.560 131.118  0.00  0.00    +0.102 A 
ATOM      5  C   LIG A   1      -9.455   7.242 130.139  0.00  0.00    +0.138 A 
ATOM      6  O   LIG A   1      -8.086   7.223 130.050  0.00  0.00    -0.490 OA
ATOM      7  C   LIG A   1      -7.449   6.948 131.308  0.00  0.00    +0.249 C 
ATOM      8  C   LIG A   1      -7.931   5.585 131.810  0.00  0.00    +0.097 C 
ATOM      9  C   LIG A   1      -7.208   5.001 133.014  0.00  0.00    -0.023 A 
ATOM     10  C   LIG A   1      -7.230   4.772 134.369  0.00  0.00    +0.054 A 
ATOM     11  C   LIG A   1      -6.028   4.347 134.889  0.00  0.00    +0.167 A 
ATOM     12  C   LIG A   1      -4.890   4.217 134.103  0.00  0.00    +0.167 A 
ATOM     13  O   LIG A   1      -3.790   3.921 134.849  0.00  0.00    -0.453 OA
ATOM     14  C   LIG A   1      -4.407   3.634 136.121  0.00  0.00    +0.466 C 
ATOM     15  O   LIG A   1      -5.792   4.026 136.190  0.00  0.00    -0.453 OA
ATOM     16  C   LIG A   1      -4.926   4.306 132.724  0.00  0.00    +0.053 A 
ATOM     17  C   LIG A   1      -6.174   4.562 132.215  0.00  0.00    -0.038 A 
ATOM     18  C   LIG A   1      -7.112   4.508 131.019  0.00  0.00    +0.058 C 
ATOM     19  C   LIG A   1      -9.458   5.623 132.010  0.00  0.00    +0.184 C 
ATOM     20  O   LIG A   1     -10.071   4.995 132.898  0.00  0.00    -0.291 OA
ATOM     21  C   LIG A   1     -10.103   8.011 129.172  0.00  0.00    +0.092 A 
ENDROOT
BRANCH   1  22
ATOM     22  O   LIG A   1     -12.070   8.947 128.276  0.00  0.00    -0.506 OA
ATOM     23  H   LIG A   1     -11.392   9.278 127.664  0.00  0.00    +0.292 HD
ENDBRANCH   1  22
BRANCH   3  24
ATOM     24  O   LIG A   1     -12.323   6.237 132.199  0.00  0.00    -0.506 OA
ATOM     25  H   LIG A   1     -11.981   5.362 132.439  0.00  0.00    +0.292 HD
ENDBRANCH   3  24
TORSDOF 2
ENDMDL
MODEL 8
REMARK VINA RESULT:      -7.1      2.749      7.679
REMARK  Name = NuBBE_1415
REMARK  2 active torsions:
REMARK  status: ('A' for Active; 'I' for Inactive)
REMARK    1  A    between atoms: O_1  and  C_2
REMARK    2  A    between atoms: C_4  and  O_5
REMARK                            x       y       z     vdW  Elec       q    Type
REMARK                         _______ _______ _______ _____ _____    ______ ____
ROOT
ATOM      1  C   LIG A   1      -4.464   3.521 135.431  0.00  0.00    +0.124 A 
ATOM      2  C   LIG A   1      -5.295   4.151 136.352  0.00  0.00    +0.091 A 
ATOM      3  C   LIG A   1      -6.403   4.869 135.894  0.00  0.00    +0.134 A 
ATOM      4  C   LIG A   1      -6.686   4.955 134.523  0.00  0.00    +0.102 A 
ATOM      5  C   LIG A   1      -5.893   4.222 133.626  0.00  0.00    +0.138 A 
ATOM      6  O   LIG A   1      -6.153   4.100 132.284  0.00  0.00    -0.490 OA
ATOM      7  C   LIG A   1      -7.543   4.277 131.967  0.00  0.00    +0.249 C 
ATOM      8  C   LIG A   1      -7.974   5.671 132.429  0.00  0.00    +0.097 C 
ATOM      9  C   LIG A   1      -9.348   6.147 131.986  0.00  0.00    -0.023 A 
ATOM     10  C   LIG A   1     -10.664   6.346 132.332  0.00  0.00    +0.054 A 
ATOM     11  C   LIG A   1     -11.490   6.630 131.268  0.00  0.00    +0.167 A 
ATOM     12  C   LIG A   1     -11.024   6.659 129.959  0.00  0.00    +0.167 A 
ATOM     13  O   LIG A   1     -12.037   6.821 129.064  0.00  0.00    -0.453 OA
ATOM     14  C   LIG A   1     -13.124   7.141 129.956  0.00  0.00    +0.466 C 
ATOM     15  O   LIG A   1     -12.823   6.895 131.344  0.00  0.00    -0.453 OA
ATOM     16  C   LIG A   1      -9.677   6.606 129.651  0.00  0.00    +0.053 A 
ATOM     17  C   LIG A   1      -8.859   6.494 130.745  0.00  0.00    -0.038 A 
ATOM     18  C   LIG A   1      -7.469   6.675 131.337  0.00  0.00    +0.058 C 
ATOM     19  C   LIG A   1      -7.780   5.788 133.953  0.00  0.00    +0.184 C 
ATOM     20  O   LIG A   1      -8.515   6.456 134.710  0.00  0.00    -0.291 OA
ATOM     21  C   LIG A   1      -4.757   3.547 134.075  0.00  0.00    +0.092 A 
ENDROOT
BRANCH   1  22
ATOM     22  O   LIG A   1      -3.349   2.844 135.827  0.00  0.00    -0.506 OA
ATOM     23  H   LIG A   1      -3.582   1.920 136.015  0.00  0.00    +0.292 HD
ENDBRANCH   1  22
BRANCH   3  24
ATOM     24  O   LIG A   1      -7.211   5.473 136.816  0.00  0.00    -0.506 OA
ATOM     25  H   LIG A   1      -8.144   5.345 136.590  0.00  0.00    +0.292 HD
ENDBRANCH   3  24
TORSDOF 2
ENDMDL
MODEL 9
REMARK VINA RESULT:      -7.1      7.203      8.338
REMARK  Name = NuBBE_1415
REMARK  2 active torsions:
REMARK  status: ('A' for Active; 'I' for Inactive)
REMARK    1  A    between atoms: O_1  and  C_2
REMARK    2  A    between atoms: C_4  and  O_5
REMARK                            x       y       z     vdW  Elec       q    Type
REMARK                         _______ _______ _______ _____ _____    ______ ____
ROOT
ATOM      1  C   LIG A   1      -5.651   4.162 122.106  0.00  0.00    +0.124 A 
ATOM      2  C   LIG A   1      -5.331   4.601 123.387  0.00  0.00    +0.091 A 
ATOM      3  C   LIG A   1      -5.727   3.840 124.490  0.00  0.00    +0.134 A 
ATOM      4  C   LIG A   1      -6.435   2.641 124.317  0.00  0.00    +0.102 A 
ATOM      5  C   LIG A   1      -6.651   2.170 123.012  0.00  0.00    +0.138 A 
ATOM      6  O   LIG A   1      -7.193   0.946 122.711  0.00  0.00    -0.490 OA
ATOM      7  C   LIG A   1      -7.001  -0.022 123.756  0.00  0.00    +0.249 C 
ATOM      8  C   LIG A   1      -7.654   0.507 125.035  0.00  0.00    +0.097 C 
ATOM      9  C   LIG A   1      -7.762  -0.462 126.202  0.00  0.00    -0.023 A 
ATOM     10  C   LIG A   1      -7.253  -0.866 127.413  0.00  0.00    +0.054 A 
ATOM     11  C   LIG A   1      -7.750  -2.070 127.861  0.00  0.00    +0.167 A 
ATOM     12  C   LIG A   1      -8.650  -2.819 127.113  0.00  0.00    +0.167 A 
ATOM     13  O   LIG A   1      -8.896  -4.032 127.683  0.00  0.00    -0.453 OA
ATOM     14  C   LIG A   1      -8.264  -3.849 128.967  0.00  0.00    +0.466 C 
ATOM     15  O   LIG A   1      -7.432  -2.674 129.037  0.00  0.00    -0.453 OA
ATOM     16  C   LIG A   1      -9.261  -2.326 125.975  0.00  0.00    +0.053 A 
ATOM     17  C   LIG A   1      -8.875  -1.053 125.644  0.00  0.00    -0.038 A 
ATOM     18  C   LIG A   1      -9.190   0.233 124.894  0.00  0.00    +0.058 C 
ATOM     19  C   LIG A   1      -6.984   1.834 125.441  0.00  0.00    +0.184 C 
ATOM     20  O   LIG A   1      -6.816   2.210 126.619  0.00  0.00    -0.291 OA
ATOM     21  C   LIG A   1      -6.303   2.952 121.911  0.00  0.00    +0.092 A 
ENDROOT
BRANCH   1  22
ATOM     22  O   LIG A   1      -5.322   4.891 121.002  0.00  0.00    -0.506 OA
ATOM     23  H   LIG A   1      -5.401   5.838 121.205  0.00  0.00    +0.292 HD
ENDBRANCH   1  22
BRANCH   3  24
ATOM     24  O   LIG A   1      -5.395   4.285 125.738  0.00  0.00    -0.506 OA
ATOM     25  H   LIG A   1      -4.438   4.222 125.881  0.00  0.00    +0.292 HD
ENDBRANCH   3  24
TORSDOF 2
ENDMDL
