MODEL 1
REMARK VINA RESULT:      -7.3      0.000      0.000
REMARK  Name = NuBBE_927
REMARK  17 active torsions:
REMARK  status: ('A' for Active; 'I' for Inactive)
REMARK    1  A    between atoms: C_6  and  O_12
REMARK    2  A    between atoms: C_7  and  O_10
REMARK    3  A    between atoms: C_8  and  O_9
REMARK    4  A    between atoms: O_10  and  C_11
REMARK    5  A    between atoms: O_12  and  C_13
REMARK    6  A    between atoms: C_16  and  C_18
REMARK    7  A    between atoms: C_18  and  O_19
REMARK    8  A    between atoms: C_20  and  O_28
REMARK    9  A    between atoms: C_22  and  O_27
REMARK   10  A    between atoms: C_24  and  O_26
REMARK   11  A    between atoms: C_31  and  C_32
REMARK   12  A    between atoms: C_33  and  O_34
REMARK   13  A    between atoms: O_34  and  C_35
REMARK   14  A    between atoms: C_37  and  O_42
REMARK   15  A    between atoms: C_38  and  O_40
REMARK   16  A    between atoms: O_40  and  C_41
REMARK   17  A    between atoms: O_42  and  C_43
REMARK                            x       y       z     vdW  Elec       q    Type
REMARK                         _______ _______ _______ _____ _____    ______ ____
ROOT
ATOM      1  O   LIG A   1      -4.394   6.312 127.524  0.00  0.00    -0.286 OA
ATOM      2  C   LIG A   1      -4.434   5.146 127.799  0.00  0.00    +0.204 A 
ATOM      3  C   LIG A   1      -4.899   4.138 126.804  0.00  0.00    +0.110 A 
ATOM      4  C   LIG A   1      -4.629   2.806 127.060  0.00  0.00    +0.146 A 
ATOM      5  C   LIG A   1      -5.032   1.810 126.182  0.00  0.00    +0.096 A 
ATOM      6  C   LIG A   1      -5.814   2.115 125.070  0.00  0.00    +0.173 A 
ATOM      7  C   LIG A   1      -6.099   3.461 124.765  0.00  0.00    +0.204 A 
ATOM      8  C   LIG A   1      -5.610   4.482 125.637  0.00  0.00    +0.177 A 
ATOM      9  O   LIG A   1      -4.010   2.360 128.200  0.00  0.00    -0.462 OA
ATOM     10  C   LIG A   1      -3.899   3.255 129.237  0.00  0.00    +0.208 A 
ATOM     11  C   LIG A   1      -4.059   4.578 129.145  0.00  0.00    +0.068 A 
ENDROOT
BRANCH  11  12
ATOM     12  C   LIG A   1      -3.873   5.409 130.344  0.00  0.00    +0.034 A 
ATOM     13  C   LIG A   1      -4.928   6.102 130.951  0.00  0.00    +0.132 A 
ATOM     14  C   LIG A   1      -4.689   6.764 132.155  0.00  0.00    +0.095 A 
ATOM     15  C   LIG A   1      -3.443   6.800 132.779  0.00  0.00    +0.165 A 
ATOM     16  C   LIG A   1      -2.380   6.126 132.179  0.00  0.00    +0.162 A 
ATOM     17  C   LIG A   1      -2.608   5.429 130.974  0.00  0.00    +0.061 A 
BRANCH  13  18
ATOM     18  O   LIG A   1      -6.192   6.080 130.405  0.00  0.00    -0.494 OA
ATOM     19  C   LIG A   1      -7.181   6.790 131.170  0.00  0.00    +0.277 C 
ENDBRANCH  13  18
BRANCH  16  20
ATOM     20  O   LIG A   1      -1.105   5.979 132.657  0.00  0.00    -0.491 OA
ATOM     21  C   LIG A   1      -0.246   7.112 132.663  0.00  0.00    +0.277 C 
ENDBRANCH  16  20
BRANCH  15  22
ATOM     22  O   LIG A   1      -3.276   7.504 133.944  0.00  0.00    -0.491 OA
ATOM     23  C   LIG A   1      -3.583   6.795 135.145  0.00  0.00    +0.277 C 
ENDBRANCH  15  22
ENDBRANCH  11  12
BRANCH   8  24
ATOM     24  O   LIG A   1      -5.863   5.800 125.341  0.00  0.00    -0.503 OA
ATOM     25  H   LIG A   1      -6.145   5.858 124.397  0.00  0.00    +0.292 HD
ENDBRANCH   8  24
BRANCH   7  26
ATOM     26  O   LIG A   1      -6.895   3.863 123.710  0.00  0.00    -0.488 OA
ATOM     27  C   LIG A   1      -6.346   3.805 122.390  0.00  0.00    +0.277 C 
ENDBRANCH   7  26
BRANCH   6  28
ATOM     28  O   LIG A   1      -6.281   1.133 124.244  0.00  0.00    -0.457 OA
BRANCH  28  29
ATOM     29  C   LIG A   1      -7.442   0.371 124.603  0.00  0.00    +0.339 C 
ATOM     30  O   LIG A   1      -7.050  -0.999 124.591  0.00  0.00    -0.331 OA
ATOM     31  C   LIG A   1      -8.087  -1.961 124.591  0.00  0.00    +0.179 C 
ATOM     32  C   LIG A   1      -8.968  -1.761 123.356  0.00  0.00    +0.177 C 
ATOM     33  C   LIG A   1      -9.607  -0.384 123.480  0.00  0.00    +0.180 C 
ATOM     34  C   LIG A   1      -8.537   0.702 123.548  0.00  0.00    +0.214 C 
BRANCH  34  35
ATOM     35  O   LIG A   1      -9.199   1.948 123.838  0.00  0.00    -0.383 OA
ATOM     36  H   LIG A   1      -9.142   2.469 123.010  0.00  0.00    +0.210 HD
ENDBRANCH  34  35
BRANCH  33  37
ATOM     37  O   LIG A   1     -10.469  -0.148 122.356  0.00  0.00    -0.386 OA
ATOM     38  H   LIG A   1     -10.500  -1.005 121.883  0.00  0.00    +0.210 HD
ENDBRANCH  33  37
BRANCH  32  39
ATOM     39  O   LIG A   1     -10.019  -2.720 123.241  0.00  0.00    -0.387 OA
ATOM     40  H   LIG A   1      -9.620  -3.589 123.463  0.00  0.00    +0.210 HD
ENDBRANCH  32  39
BRANCH  31  41
ATOM     41  C   LIG A   1      -7.404  -3.332 124.595  0.00  0.00    +0.190 C 
BRANCH  41  42
ATOM     42  O   LIG A   1      -8.315  -4.377 124.899  0.00  0.00    -0.392 OA
ATOM     43  H   LIG A   1      -7.847  -5.011 125.474  0.00  0.00    +0.209 HD
ENDBRANCH  41  42
ENDBRANCH  31  41
ENDBRANCH  28  29
ENDBRANCH   6  28
TORSDOF 13
ENDMDL
MODEL 2
REMARK VINA RESULT:      -7.2      5.846      9.164
REMARK  Name = NuBBE_927
REMARK  17 active torsions:
REMARK  status: ('A' for Active; 'I' for Inactive)
REMARK    1  A    between atoms: C_6  and  O_12
REMARK    2  A    between atoms: C_7  and  O_10
REMARK    3  A    between atoms: C_8  and  O_9
REMARK    4  A    between atoms: O_10  and  C_11
REMARK    5  A    between atoms: O_12  and  C_13
REMARK    6  A    between atoms: C_16  and  C_18
REMARK    7  A    between atoms: C_18  and  O_19
REMARK    8  A    between atoms: C_20  and  O_28
REMARK    9  A    between atoms: C_22  and  O_27
REMARK   10  A    between atoms: C_24  and  O_26
REMARK   11  A    between atoms: C_31  and  C_32
REMARK   12  A    between atoms: C_33  and  O_34
REMARK   13  A    between atoms: O_34  and  C_35
REMARK   14  A    between atoms: C_37  and  O_42
REMARK   15  A    between atoms: C_38  and  O_40
REMARK   16  A    between atoms: O_40  and  C_41
REMARK   17  A    between atoms: O_42  and  C_43
REMARK                            x       y       z     vdW  Elec       q    Type
REMARK                         _______ _______ _______ _____ _____    ______ ____
ROOT
ATOM      1  O   LIG A   1      -5.883   0.400 130.225  0.00  0.00    -0.286 OA
ATOM      2  C   LIG A   1      -6.930   0.655 130.748  0.00  0.00    +0.204 A 
ATOM      3  C   LIG A   1      -7.542   2.008 130.622  0.00  0.00    +0.110 A 
ATOM      4  C   LIG A   1      -8.873   2.150 130.969  0.00  0.00    +0.146 A 
ATOM      5  C   LIG A   1      -9.511   3.379 130.881  0.00  0.00    +0.096 A 
ATOM      6  C   LIG A   1      -8.800   4.528 130.540  0.00  0.00    +0.173 A 
ATOM      7  C   LIG A   1      -7.445   4.424 130.165  0.00  0.00    +0.204 A 
ATOM      8  C   LIG A   1      -6.822   3.139 130.186  0.00  0.00    +0.177 A 
ATOM      9  O   LIG A   1      -9.641   1.132 131.475  0.00  0.00    -0.462 OA
ATOM     10  C   LIG A   1      -8.978   0.004 131.895  0.00  0.00    +0.208 A 
ATOM     11  C   LIG A   1      -7.717  -0.318 131.592  0.00  0.00    +0.068 A 
ENDROOT
BRANCH  11  12
ATOM     12  C   LIG A   1      -7.159  -1.582 132.092  0.00  0.00    +0.034 A 
ATOM     13  C   LIG A   1      -7.086  -2.737 131.302  0.00  0.00    +0.132 A 
ATOM     14  C   LIG A   1      -6.428  -3.856 131.812  0.00  0.00    +0.095 A 
ATOM     15  C   LIG A   1      -5.860  -3.902 133.084  0.00  0.00    +0.165 A 
ATOM     16  C   LIG A   1      -5.937  -2.764 133.887  0.00  0.00    +0.162 A 
ATOM     17  C   LIG A   1      -6.576  -1.613 133.378  0.00  0.00    +0.061 A 
BRANCH  13  18
ATOM     18  O   LIG A   1      -7.597  -2.750 130.023  0.00  0.00    -0.494 OA
ATOM     19  C   LIG A   1      -6.609  -2.902 128.990  0.00  0.00    +0.277 C 
ENDBRANCH  13  18
BRANCH  16  20
ATOM     20  O   LIG A   1      -5.390  -2.577 135.127  0.00  0.00    -0.491 OA
ATOM     21  C   LIG A   1      -5.951  -1.584 135.977  0.00  0.00    +0.277 C 
ENDBRANCH  16  20
BRANCH  15  22
ATOM     22  O   LIG A   1      -5.261  -5.051 133.531  0.00  0.00    -0.491 OA
ATOM     23  C   LIG A   1      -3.839  -5.094 133.414  0.00  0.00    +0.277 C 
ENDBRANCH  15  22
ENDBRANCH  11  12
BRANCH   8  24
ATOM     24  O   LIG A   1      -5.508   3.020 129.803  0.00  0.00    -0.503 OA
ATOM     25  H   LIG A   1      -5.484   2.751 128.854  0.00  0.00    +0.292 HD
ENDBRANCH   8  24
BRANCH   7  26
ATOM     26  O   LIG A   1      -6.646   5.506 129.849  0.00  0.00    -0.488 OA
ATOM     27  C   LIG A   1      -6.067   6.253 130.924  0.00  0.00    +0.277 C 
ENDBRANCH   7  26
BRANCH   6  28
ATOM     28  O   LIG A   1      -9.402   5.753 130.527  0.00  0.00    -0.457 OA
BRANCH  28  29
ATOM     29  C   LIG A   1     -10.726   5.908 129.996  0.00  0.00    +0.339 C 
ATOM     30  O   LIG A   1     -10.578   6.449 128.686  0.00  0.00    -0.331 OA
ATOM     31  C   LIG A   1     -11.737   6.995 128.085  0.00  0.00    +0.179 C 
ATOM     32  C   LIG A   1     -12.275   8.132 128.955  0.00  0.00    +0.177 C 
ATOM     33  C   LIG A   1     -12.683   7.522 130.289  0.00  0.00    +0.180 C 
ATOM     34  C   LIG A   1     -11.487   6.858 130.966  0.00  0.00    +0.214 C 
BRANCH  34  35
ATOM     35  O   LIG A   1     -11.977   6.157 132.125  0.00  0.00    -0.383 OA
ATOM     36  H   LIG A   1     -12.008   6.828 132.839  0.00  0.00    +0.210 HD
ENDBRANCH  34  35
BRANCH  33  37
ATOM     37  O   LIG A   1     -13.221   8.543 131.144  0.00  0.00    -0.386 OA
ATOM     38  H   LIG A   1     -13.111   8.189 132.051  0.00  0.00    +0.210 HD
ENDBRANCH  33  37
BRANCH  32  39
ATOM     39  O   LIG A   1     -13.420   8.782 128.404  0.00  0.00    -0.387 OA
ATOM     40  H   LIG A   1     -13.758   8.188 127.700  0.00  0.00    +0.210 HD
ENDBRANCH  32  39
BRANCH  31  41
ATOM     41  C   LIG A   1     -11.313   7.483 126.696  0.00  0.00    +0.190 C 
BRANCH  41  42
ATOM     42  O   LIG A   1     -10.422   6.576 126.065  0.00  0.00    -0.392 OA
ATOM     43  H   LIG A   1      -9.872   6.176 126.765  0.00  0.00    +0.209 HD
ENDBRANCH  41  42
ENDBRANCH  31  41
ENDBRANCH  28  29
ENDBRANCH   6  28
TORSDOF 13
ENDMDL
MODEL 3
REMARK VINA RESULT:      -7.2      5.927      8.822
REMARK  Name = NuBBE_927
REMARK  17 active torsions:
REMARK  status: ('A' for Active; 'I' for Inactive)
REMARK    1  A    between atoms: C_6  and  O_12
REMARK    2  A    between atoms: C_7  and  O_10
REMARK    3  A    between atoms: C_8  and  O_9
REMARK    4  A    between atoms: O_10  and  C_11
REMARK    5  A    between atoms: O_12  and  C_13
REMARK    6  A    between atoms: C_16  and  C_18
REMARK    7  A    between atoms: C_18  and  O_19
REMARK    8  A    between atoms: C_20  and  O_28
REMARK    9  A    between atoms: C_22  and  O_27
REMARK   10  A    between atoms: C_24  and  O_26
REMARK   11  A    between atoms: C_31  and  C_32
REMARK   12  A    between atoms: C_33  and  O_34
REMARK   13  A    between atoms: O_34  and  C_35
REMARK   14  A    between atoms: C_37  and  O_42
REMARK   15  A    between atoms: C_38  and  O_40
REMARK   16  A    between atoms: O_40  and  C_41
REMARK   17  A    between atoms: O_42  and  C_43
REMARK                            x       y       z     vdW  Elec       q    Type
REMARK                         _______ _______ _______ _____ _____    ______ ____
ROOT
ATOM      1  O   LIG A   1      -7.292  -0.700 129.952  0.00  0.00    -0.286 OA
ATOM      2  C   LIG A   1      -7.335   0.085 130.856  0.00  0.00    +0.204 A 
ATOM      3  C   LIG A   1      -7.919   1.444 130.667  0.00  0.00    +0.110 A 
ATOM      4  C   LIG A   1      -8.228   2.178 131.798  0.00  0.00    +0.146 A 
ATOM      5  C   LIG A   1      -8.772   3.451 131.701  0.00  0.00    +0.096 A 
ATOM      6  C   LIG A   1      -8.925   4.067 130.462  0.00  0.00    +0.173 A 
ATOM      7  C   LIG A   1      -8.636   3.348 129.284  0.00  0.00    +0.204 A 
ATOM      8  C   LIG A   1      -8.149   2.010 129.397  0.00  0.00    +0.177 A 
ATOM      9  O   LIG A   1      -7.974   1.749 133.076  0.00  0.00    -0.462 OA
ATOM     10  C   LIG A   1      -7.141   0.665 133.214  0.00  0.00    +0.208 A 
ATOM     11  C   LIG A   1      -6.798  -0.183 132.241  0.00  0.00    +0.068 A 
ENDROOT
BRANCH  11  12
ATOM     12  C   LIG A   1      -5.921  -1.320 132.556  0.00  0.00    +0.034 A 
ATOM     13  C   LIG A   1      -6.414  -2.613 132.773  0.00  0.00    +0.132 A 
ATOM     14  C   LIG A   1      -5.504  -3.656 132.941  0.00  0.00    +0.095 A 
ATOM     15  C   LIG A   1      -4.122  -3.480 132.937  0.00  0.00    +0.165 A 
ATOM     16  C   LIG A   1      -3.617  -2.196 132.736  0.00  0.00    +0.162 A 
ATOM     17  C   LIG A   1      -4.521  -1.132 132.537  0.00  0.00    +0.061 A 
BRANCH  13  18
ATOM     18  O   LIG A   1      -7.769  -2.863 132.757  0.00  0.00    -0.494 OA
ATOM     19  C   LIG A   1      -8.305  -3.307 134.015  0.00  0.00    +0.277 C 
ENDBRANCH  13  18
BRANCH  16  20
ATOM     20  O   LIG A   1      -2.305  -1.820 132.627  0.00  0.00    -0.491 OA
ATOM     21  C   LIG A   1      -1.661  -1.258 133.763  0.00  0.00    +0.277 C 
ENDBRANCH  16  20
BRANCH  15  22
ATOM     22  O   LIG A   1      -3.289  -4.550 133.146  0.00  0.00    -0.491 OA
ATOM     23  C   LIG A   1      -2.894  -4.771 134.500  0.00  0.00    +0.277 C 
ENDBRANCH  15  22
ENDBRANCH  11  12
BRANCH   8  24
ATOM     24  O   LIG A   1      -7.883   1.291 128.257  0.00  0.00    -0.503 OA
ATOM     25  H   LIG A   1      -8.497   0.519 128.226  0.00  0.00    +0.292 HD
ENDBRANCH   8  24
BRANCH   7  26
ATOM     26  O   LIG A   1      -8.717   3.883 128.012  0.00  0.00    -0.488 OA
ATOM     27  C   LIG A   1      -7.515   4.368 127.407  0.00  0.00    +0.277 C 
ENDBRANCH   7  26
BRANCH   6  28
ATOM     28  O   LIG A   1      -9.386   5.349 130.362  0.00  0.00    -0.457 OA
BRANCH  28  29
ATOM     29  C   LIG A   1     -10.741   5.606 129.968  0.00  0.00    +0.339 C 
ATOM     30  O   LIG A   1     -10.684   6.182 128.666  0.00  0.00    -0.331 OA
ATOM     31  C   LIG A   1     -11.857   6.821 128.198  0.00  0.00    +0.179 C 
ATOM     32  C   LIG A   1     -12.233   7.958 129.150  0.00  0.00    +0.177 C 
ATOM     33  C   LIG A   1     -12.551   7.328 130.499  0.00  0.00    +0.180 C 
ATOM     34  C   LIG A   1     -11.342   6.566 131.035  0.00  0.00    +0.214 C 
BRANCH  34  35
ATOM     35  O   LIG A   1     -11.763   5.856 132.215  0.00  0.00    -0.383 OA
ATOM     36  H   LIG A   1     -12.644   5.487 131.994  0.00  0.00    +0.210 HD
ENDBRANCH  34  35
BRANCH  33  37
ATOM     37  O   LIG A   1     -12.936   8.349 131.432  0.00  0.00    -0.386 OA
ATOM     38  H   LIG A   1     -13.795   8.679 131.096  0.00  0.00    +0.210 HD
ENDBRANCH  33  37
BRANCH  32  39
ATOM     39  O   LIG A   1     -13.380   8.698 128.732  0.00  0.00    -0.387 OA
ATOM     40  H   LIG A   1     -13.628   9.269 129.491  0.00  0.00    +0.210 HD
ENDBRANCH  32  39
BRANCH  31  41
ATOM     41  C   LIG A   1     -11.536   7.331 126.789  0.00  0.00    +0.190 C 
BRANCH  41  42
ATOM     42  O   LIG A   1     -10.509   6.571 126.172  0.00  0.00    -0.392 OA
ATOM     43  H   LIG A   1     -10.789   6.395 125.254  0.00  0.00    +0.209 HD
ENDBRANCH  41  42
ENDBRANCH  31  41
ENDBRANCH  28  29
ENDBRANCH   6  28
TORSDOF 13
ENDMDL
MODEL 4
REMARK VINA RESULT:      -7.0      3.493      5.860
REMARK  Name = NuBBE_927
REMARK  17 active torsions:
REMARK  status: ('A' for Active; 'I' for Inactive)
REMARK    1  A    between atoms: C_6  and  O_12
REMARK    2  A    between atoms: C_7  and  O_10
REMARK    3  A    between atoms: C_8  and  O_9
REMARK    4  A    between atoms: O_10  and  C_11
REMARK    5  A    between atoms: O_12  and  C_13
REMARK    6  A    between atoms: C_16  and  C_18
REMARK    7  A    between atoms: C_18  and  O_19
REMARK    8  A    between atoms: C_20  and  O_28
REMARK    9  A    between atoms: C_22  and  O_27
REMARK   10  A    between atoms: C_24  and  O_26
REMARK   11  A    between atoms: C_31  and  C_32
REMARK   12  A    between atoms: C_33  and  O_34
REMARK   13  A    between atoms: O_34  and  C_35
REMARK   14  A    between atoms: C_37  and  O_42
REMARK   15  A    between atoms: C_38  and  O_40
REMARK   16  A    between atoms: O_40  and  C_41
REMARK   17  A    between atoms: O_42  and  C_43
REMARK                            x       y       z     vdW  Elec       q    Type
REMARK                         _______ _______ _______ _____ _____    ______ ____
ROOT
ATOM      1  O   LIG A   1      -7.506   5.490 129.549  0.00  0.00    -0.286 OA
ATOM      2  C   LIG A   1      -7.954   4.388 129.407  0.00  0.00    +0.204 A 
ATOM      3  C   LIG A   1      -7.220   3.355 128.622  0.00  0.00    +0.110 A 
ATOM      4  C   LIG A   1      -7.618   2.037 128.756  0.00  0.00    +0.146 A 
ATOM      5  C   LIG A   1      -6.985   1.021 128.056  0.00  0.00    +0.096 A 
ATOM      6  C   LIG A   1      -5.998   1.311 127.117  0.00  0.00    +0.173 A 
ATOM      7  C   LIG A   1      -5.552   2.639 126.961  0.00  0.00    +0.204 A 
ATOM      8  C   LIG A   1      -6.160   3.666 127.746  0.00  0.00    +0.177 A 
ATOM      9  O   LIG A   1      -8.684   1.639 129.523  0.00  0.00    -0.462 OA
ATOM     10  C   LIG A   1      -9.539   2.623 129.958  0.00  0.00    +0.208 A 
ATOM     11  C   LIG A   1      -9.281   3.933 129.962  0.00  0.00    +0.068 A 
ENDROOT
BRANCH  11  12
ATOM     12  C   LIG A   1     -10.290   4.862 130.494  0.00  0.00    +0.034 A 
ATOM     13  C   LIG A   1     -10.233   5.369 131.798  0.00  0.00    +0.132 A 
ATOM     14  C   LIG A   1     -11.158   6.340 132.179  0.00  0.00    +0.095 A 
ATOM     15  C   LIG A   1     -12.164   6.816 131.340  0.00  0.00    +0.165 A 
ATOM     16  C   LIG A   1     -12.242   6.310 130.043  0.00  0.00    +0.162 A 
ATOM     17  C   LIG A   1     -11.298   5.346 129.630  0.00  0.00    +0.061 A 
BRANCH  13  18
ATOM     18  O   LIG A   1      -9.244   4.966 132.668  0.00  0.00    -0.494 OA
ATOM     19  C   LIG A   1      -8.252   5.970 132.946  0.00  0.00    +0.277 C 
ENDBRANCH  13  18
BRANCH  16  20
ATOM     20  O   LIG A   1     -13.101   6.689 129.047  0.00  0.00    -0.491 OA
ATOM     21  C   LIG A   1     -12.556   7.171 127.825  0.00  0.00    +0.277 C 
ENDBRANCH  16  20
BRANCH  15  22
ATOM     22  O   LIG A   1     -13.061   7.746 131.798  0.00  0.00    -0.491 OA
ATOM     23  C   LIG A   1     -12.979   9.037 131.193  0.00  0.00    +0.277 C 
ENDBRANCH  15  22
ENDBRANCH  11  12
BRANCH   8  24
ATOM     24  O   LIG A   1      -5.722   4.962 127.619  0.00  0.00    -0.503 OA
ATOM     25  H   LIG A   1      -6.322   5.434 126.995  0.00  0.00    +0.292 HD
ENDBRANCH   8  24
BRANCH   7  26
ATOM     26  O   LIG A   1      -4.608   3.033 126.032  0.00  0.00    -0.488 OA
ATOM     27  C   LIG A   1      -3.230   3.002 126.416  0.00  0.00    +0.277 C 
ENDBRANCH   7  26
BRANCH   6  28
ATOM     28  O   LIG A   1      -5.424   0.325 126.367  0.00  0.00    -0.457 OA
BRANCH  28  29
ATOM     29  C   LIG A   1      -6.023  -0.092 125.132  0.00  0.00    +0.339 C 
ATOM     30  O   LIG A   1      -6.871   0.972 124.711  0.00  0.00    -0.331 OA
ATOM     31  C   LIG A   1      -7.816   0.676 123.701  0.00  0.00    +0.179 C 
ATOM     32  C   LIG A   1      -8.744  -0.440 124.183  0.00  0.00    +0.177 C 
ATOM     33  C   LIG A   1      -7.884  -1.678 124.396  0.00  0.00    +0.180 C 
ATOM     34  C   LIG A   1      -6.799  -1.407 125.434  0.00  0.00    +0.214 C 
BRANCH  34  35
ATOM     35  O   LIG A   1      -5.924  -2.550 125.458  0.00  0.00    -0.383 OA
ATOM     36  H   LIG A   1      -5.688  -2.676 126.401  0.00  0.00    +0.210 HD
ENDBRANCH  34  35
BRANCH  33  37
ATOM     37  O   LIG A   1      -8.708  -2.772 124.828  0.00  0.00    -0.386 OA
ATOM     38  H   LIG A   1      -8.261  -3.571 124.479  0.00  0.00    +0.210 HD
ENDBRANCH  33  37
BRANCH  32  39
ATOM     39  O   LIG A   1      -9.769  -0.776 123.247  0.00  0.00    -0.387 OA
ATOM     40  H   LIG A   1     -10.615  -0.492 123.654  0.00  0.00    +0.210 HD
ENDBRANCH  32  39
BRANCH  31  41
ATOM     41  C   LIG A   1      -8.575   1.978 123.425  0.00  0.00    +0.190 C 
BRANCH  41  42
ATOM     42  O   LIG A   1      -9.814   2.025 124.115  0.00  0.00    -0.392 OA
ATOM     43  H   LIG A   1     -10.463   2.443 123.518  0.00  0.00    +0.209 HD
ENDBRANCH  41  42
ENDBRANCH  31  41
ENDBRANCH  28  29
ENDBRANCH   6  28
TORSDOF 13
ENDMDL
MODEL 5
REMARK VINA RESULT:      -7.0      5.101      8.256
REMARK  Name = NuBBE_927
REMARK  17 active torsions:
REMARK  status: ('A' for Active; 'I' for Inactive)
REMARK    1  A    between atoms: C_6  and  O_12
REMARK    2  A    between atoms: C_7  and  O_10
REMARK    3  A    between atoms: C_8  and  O_9
REMARK    4  A    between atoms: O_10  and  C_11
REMARK    5  A    between atoms: O_12  and  C_13
REMARK    6  A    between atoms: C_16  and  C_18
REMARK    7  A    between atoms: C_18  and  O_19
REMARK    8  A    between atoms: C_20  and  O_28
REMARK    9  A    between atoms: C_22  and  O_27
REMARK   10  A    between atoms: C_24  and  O_26
REMARK   11  A    between atoms: C_31  and  C_32
REMARK   12  A    between atoms: C_33  and  O_34
REMARK   13  A    between atoms: O_34  and  C_35
REMARK   14  A    between atoms: C_37  and  O_42
REMARK   15  A    between atoms: C_38  and  O_40
REMARK   16  A    between atoms: O_40  and  C_41
REMARK   17  A    between atoms: O_42  and  C_43
REMARK                            x       y       z     vdW  Elec       q    Type
REMARK                         _______ _______ _______ _____ _____    ______ ____
ROOT
ATOM      1  O   LIG A   1      -8.238  -4.017 128.528  0.00  0.00    -0.286 OA
ATOM      2  C   LIG A   1      -7.885  -2.883 128.684  0.00  0.00    +0.204 A 
ATOM      3  C   LIG A   1      -8.040  -1.875 127.597  0.00  0.00    +0.110 A 
ATOM      4  C   LIG A   1      -7.915  -0.538 127.931  0.00  0.00    +0.146 A 
ATOM      5  C   LIG A   1      -8.043   0.457 126.974  0.00  0.00    +0.096 A 
ATOM      6  C   LIG A   1      -8.197   0.135 125.628  0.00  0.00    +0.173 A 
ATOM      7  C   LIG A   1      -8.344  -1.215 125.246  0.00  0.00    +0.204 A 
ATOM      8  C   LIG A   1      -8.287  -2.225 126.254  0.00  0.00    +0.177 A 
ATOM      9  O   LIG A   1      -7.601  -0.096 129.192  0.00  0.00    -0.462 OA
ATOM     10  C   LIG A   1      -7.136  -1.034 130.082  0.00  0.00    +0.208 A 
ATOM     11  C   LIG A   1      -7.239  -2.359 129.943  0.00  0.00    +0.068 A 
ENDROOT
BRANCH  11  12
ATOM     12  C   LIG A   1      -6.721  -3.234 131.004  0.00  0.00    +0.034 A 
ATOM     13  C   LIG A   1      -5.550  -3.988 130.852  0.00  0.00    +0.132 A 
ATOM     14  C   LIG A   1      -5.062  -4.693 131.952  0.00  0.00    +0.095 A 
ATOM     15  C   LIG A   1      -5.693  -4.717 133.194  0.00  0.00    +0.165 A 
ATOM     16  C   LIG A   1      -6.868  -3.982 133.355  0.00  0.00    +0.162 A 
ATOM     17  C   LIG A   1      -7.363  -3.241 132.262  0.00  0.00    +0.061 A 
BRANCH  13  18
ATOM     18  O   LIG A   1      -4.857  -3.983 129.661  0.00  0.00    -0.494 OA
ATOM     19  C   LIG A   1      -3.613  -3.264 129.701  0.00  0.00    +0.277 C 
ENDBRANCH  13  18
BRANCH  16  20
ATOM     20  O   LIG A   1      -7.599  -3.815 134.500  0.00  0.00    -0.491 OA
ATOM     21  C   LIG A   1      -7.124  -2.906 135.485  0.00  0.00    +0.277 C 
ENDBRANCH  16  20
BRANCH  15  22
ATOM     22  O   LIG A   1      -5.172  -5.464 134.218  0.00  0.00    -0.491 OA
ATOM     23  C   LIG A   1      -3.935  -6.120 133.940  0.00  0.00    +0.277 C 
ENDBRANCH  15  22
ENDBRANCH  11  12
BRANCH   8  24
ATOM     24  O   LIG A   1      -8.450  -3.542 125.899  0.00  0.00    -0.503 OA
ATOM     25  H   LIG A   1      -8.967  -3.994 126.608  0.00  0.00    +0.292 HD
ENDBRANCH   8  24
BRANCH   7  26
ATOM     26  O   LIG A   1      -8.463  -1.638 123.936  0.00  0.00    -0.488 OA
ATOM     27  C   LIG A   1      -7.267  -1.790 123.165  0.00  0.00    +0.277 C 
ENDBRANCH   7  26
BRANCH   6  28
ATOM     28  O   LIG A   1      -8.246   1.106 124.669  0.00  0.00    -0.457 OA
BRANCH  28  29
ATOM     29  C   LIG A   1      -7.121   1.969 124.450  0.00  0.00    +0.339 C 
ATOM     30  O   LIG A   1      -6.181   1.682 125.481  0.00  0.00    -0.331 OA
ATOM     31  C   LIG A   1      -5.140   2.620 125.677  0.00  0.00    +0.179 C 
ATOM     32  C   LIG A   1      -5.741   3.984 126.020  0.00  0.00    +0.177 C 
ATOM     33  C   LIG A   1      -6.554   4.433 124.812  0.00  0.00    +0.180 C 
ATOM     34  C   LIG A   1      -7.661   3.428 124.506  0.00  0.00    +0.214 C 
BRANCH  34  35
ATOM     35  O   LIG A   1      -8.271   3.819 123.262  0.00  0.00    -0.383 OA
ATOM     36  H   LIG A   1      -7.525   4.023 122.660  0.00  0.00    +0.210 HD
ENDBRANCH  34  35
BRANCH  33  37
ATOM     37  O   LIG A   1      -7.126   5.725 125.066  0.00  0.00    -0.386 OA
ATOM     38  H   LIG A   1      -6.355   6.319 125.178  0.00  0.00    +0.210 HD
ENDBRANCH  33  37
BRANCH  32  39
ATOM     39  O   LIG A   1      -4.763   4.990 126.285  0.00  0.00    -0.387 OA
ATOM     40  H   LIG A   1      -5.055   5.790 125.797  0.00  0.00    +0.210 HD
ENDBRANCH  32  39
BRANCH  31  41
ATOM     41  C   LIG A   1      -4.272   2.071 126.814  0.00  0.00    +0.190 C 
BRANCH  41  42
ATOM     42  O   LIG A   1      -2.914   2.458 126.678  0.00  0.00    -0.392 OA
ATOM     43  H   LIG A   1      -2.454   1.742 126.202  0.00  0.00    +0.209 HD
ENDBRANCH  41  42
ENDBRANCH  31  41
ENDBRANCH  28  29
ENDBRANCH   6  28
TORSDOF 13
ENDMDL
MODEL 6
REMARK VINA RESULT:      -6.8      2.518      4.248
REMARK  Name = NuBBE_927
REMARK  17 active torsions:
REMARK  status: ('A' for Active; 'I' for Inactive)
REMARK    1  A    between atoms: C_6  and  O_12
REMARK    2  A    between atoms: C_7  and  O_10
REMARK    3  A    between atoms: C_8  and  O_9
REMARK    4  A    between atoms: O_10  and  C_11
REMARK    5  A    between atoms: O_12  and  C_13
REMARK    6  A    between atoms: C_16  and  C_18
REMARK    7  A    between atoms: C_18  and  O_19
REMARK    8  A    between atoms: C_20  and  O_28
REMARK    9  A    between atoms: C_22  and  O_27
REMARK   10  A    between atoms: C_24  and  O_26
REMARK   11  A    between atoms: C_31  and  C_32
REMARK   12  A    between atoms: C_33  and  O_34
REMARK   13  A    between atoms: O_34  and  C_35
REMARK   14  A    between atoms: C_37  and  O_42
REMARK   15  A    between atoms: C_38  and  O_40
REMARK   16  A    between atoms: O_40  and  C_41
REMARK   17  A    between atoms: O_42  and  C_43
REMARK                            x       y       z     vdW  Elec       q    Type
REMARK                         _______ _______ _______ _____ _____    ______ ____
ROOT
ATOM      1  O   LIG A   1      -5.180   6.047 131.707  0.00  0.00    -0.286 OA
ATOM      2  C   LIG A   1      -4.521   6.034 130.706  0.00  0.00    +0.204 A 
ATOM      3  C   LIG A   1      -4.962   5.269 129.506  0.00  0.00    +0.110 A 
ATOM      4  C   LIG A   1      -4.340   5.542 128.300  0.00  0.00    +0.146 A 
ATOM      5  C   LIG A   1      -4.695   4.868 127.140  0.00  0.00    +0.096 A 
ATOM      6  C   LIG A   1      -5.615   3.823 127.177  0.00  0.00    +0.173 A 
ATOM      7  C   LIG A   1      -6.282   3.522 128.382  0.00  0.00    +0.204 A 
ATOM      8  C   LIG A   1      -5.962   4.277 129.552  0.00  0.00    +0.177 A 
ATOM      9  O   LIG A   1      -3.306   6.433 128.162  0.00  0.00    -0.462 OA
ATOM     10  C   LIG A   1      -2.700   6.865 129.317  0.00  0.00    +0.208 A 
ATOM     11  C   LIG A   1      -3.198   6.743 130.551  0.00  0.00    +0.068 A 
ENDROOT
BRANCH  11  12
ATOM     12  C   LIG A   1      -2.442   7.291 131.687  0.00  0.00    +0.034 A 
ATOM     13  C   LIG A   1      -1.455   6.557 132.358  0.00  0.00    +0.132 A 
ATOM     14  C   LIG A   1      -0.700   7.195 133.342  0.00  0.00    +0.095 A 
ATOM     15  C   LIG A   1      -0.893   8.522 133.721  0.00  0.00    +0.165 A 
ATOM     16  C   LIG A   1      -1.882   9.261 133.071  0.00  0.00    +0.162 A 
ATOM     17  C   LIG A   1      -2.638   8.640 132.054  0.00  0.00    +0.061 A 
BRANCH  13  18
ATOM     18  O   LIG A   1      -1.189   5.251 132.011  0.00  0.00    -0.494 OA
ATOM     19  C   LIG A   1      -1.895   4.273 132.794  0.00  0.00    +0.277 C 
ENDBRANCH  13  18
BRANCH  16  20
ATOM     20  O   LIG A   1      -2.184  10.585 133.241  0.00  0.00    -0.491 OA
ATOM     21  C   LIG A   1      -1.337  11.558 132.644  0.00  0.00    +0.277 C 
ENDBRANCH  16  20
BRANCH  15  22
ATOM     22  O   LIG A   1      -0.136   9.071 134.723  0.00  0.00    -0.491 OA
ATOM     23  C   LIG A   1      -0.398   8.577 136.038  0.00  0.00    +0.277 C 
ENDBRANCH  15  22
ENDBRANCH  11  12
BRANCH   8  24
ATOM     24  O   LIG A   1      -6.620   4.009 130.728  0.00  0.00    -0.503 OA
ATOM     25  H   LIG A   1      -6.051   4.306 131.478  0.00  0.00    +0.292 HD
ENDBRANCH   8  24
BRANCH   7  26
ATOM     26  O   LIG A   1      -7.180   2.482 128.530  0.00  0.00    -0.488 OA
ATOM     27  C   LIG A   1      -6.659   1.169 128.753  0.00  0.00    +0.277 C 
ENDBRANCH   7  26
BRANCH   6  28
ATOM     28  O   LIG A   1      -5.912   3.103 126.056  0.00  0.00    -0.457 OA
BRANCH  28  29
ATOM     29  C   LIG A   1      -7.015   3.481 125.219  0.00  0.00    +0.339 C 
ATOM     30  O   LIG A   1      -7.989   2.448 125.340  0.00  0.00    -0.331 OA
ATOM     31  C   LIG A   1      -9.019   2.424 124.370  0.00  0.00    +0.179 C 
ATOM     32  C   LIG A   1      -8.404   2.267 122.978  0.00  0.00    +0.177 C 
ATOM     33  C   LIG A   1      -7.550   3.502 122.723  0.00  0.00    +0.180 C 
ATOM     34  C   LIG A   1      -6.452   3.624 123.775  0.00  0.00    +0.214 C 
BRANCH  34  35
ATOM     35  O   LIG A   1      -5.800   4.892 123.580  0.00  0.00    -0.383 OA
ATOM     36  H   LIG A   1      -6.186   5.488 124.256  0.00  0.00    +0.210 HD
ENDBRANCH  34  35
BRANCH  33  37
ATOM     37  O   LIG A   1      -6.964   3.423 121.415  0.00  0.00    -0.386 OA
ATOM     38  H   LIG A   1      -7.639   2.971 120.867  0.00  0.00    +0.210 HD
ENDBRANCH  33  37
BRANCH  32  39
ATOM     39  O   LIG A   1      -9.372   2.182 121.932  0.00  0.00    -0.387 OA
ATOM     40  H   LIG A   1      -9.794   1.301 122.021  0.00  0.00    +0.210 HD
ENDBRANCH  32  39
BRANCH  31  41
ATOM     41  C   LIG A   1      -9.927   1.245 124.735  0.00  0.00    +0.190 C 
BRANCH  41  42
ATOM     42  O   LIG A   1     -11.203   1.350 124.121  0.00  0.00    -0.392 OA
ATOM     43  H   LIG A   1     -11.271   0.628 123.469  0.00  0.00    +0.209 HD
ENDBRANCH  41  42
ENDBRANCH  31  41
ENDBRANCH  28  29
ENDBRANCH   6  28
TORSDOF 13
ENDMDL
MODEL 7
REMARK VINA RESULT:      -6.7      4.805      7.746
REMARK  Name = NuBBE_927
REMARK  17 active torsions:
REMARK  status: ('A' for Active; 'I' for Inactive)
REMARK    1  A    between atoms: C_6  and  O_12
REMARK    2  A    between atoms: C_7  and  O_10
REMARK    3  A    between atoms: C_8  and  O_9
REMARK    4  A    between atoms: O_10  and  C_11
REMARK    5  A    between atoms: O_12  and  C_13
REMARK    6  A    between atoms: C_16  and  C_18
REMARK    7  A    between atoms: C_18  and  O_19
REMARK    8  A    between atoms: C_20  and  O_28
REMARK    9  A    between atoms: C_22  and  O_27
REMARK   10  A    between atoms: C_24  and  O_26
REMARK   11  A    between atoms: C_31  and  C_32
REMARK   12  A    between atoms: C_33  and  O_34
REMARK   13  A    between atoms: O_34  and  C_35
REMARK   14  A    between atoms: C_37  and  O_42
REMARK   15  A    between atoms: C_38  and  O_40
REMARK   16  A    between atoms: O_40  and  C_41
REMARK   17  A    between atoms: O_42  and  C_43
REMARK                            x       y       z     vdW  Elec       q    Type
REMARK                         _______ _______ _______ _____ _____    ______ ____
ROOT
ATOM      1  O   LIG A   1      -1.259   6.692 130.853  0.00  0.00    -0.286 OA
ATOM      2  C   LIG A   1      -2.135   6.557 131.660  0.00  0.00    +0.204 A 
ATOM      3  C   LIG A   1      -3.231   5.571 131.446  0.00  0.00    +0.110 A 
ATOM      4  C   LIG A   1      -4.021   5.236 132.531  0.00  0.00    +0.146 A 
ATOM      5  C   LIG A   1      -5.063   4.328 132.408  0.00  0.00    +0.096 A 
ATOM      6  C   LIG A   1      -5.410   3.806 131.164  0.00  0.00    +0.173 A 
ATOM      7  C   LIG A   1      -4.622   4.111 130.035  0.00  0.00    +0.204 A 
ATOM      8  C   LIG A   1      -3.505   4.987 130.192  0.00  0.00    +0.177 A 
ATOM      9  O   LIG A   1      -3.887   5.802 133.773  0.00  0.00    -0.462 OA
ATOM     10  C   LIG A   1      -3.111   6.933 133.860  0.00  0.00    +0.208 A 
ATOM     11  C   LIG A   1      -2.247   7.358 132.934  0.00  0.00    +0.068 A 
ENDROOT
BRANCH  11  12
ATOM     12  C   LIG A   1      -1.460   8.573 133.191  0.00  0.00    +0.034 A 
ATOM     13  C   LIG A   1      -0.152   8.532 133.690  0.00  0.00    +0.132 A 
ATOM     14  C   LIG A   1       0.566   9.723 133.785  0.00  0.00    +0.095 A 
ATOM     15  C   LIG A   1       0.042  10.967 133.438  0.00  0.00    +0.165 A 
ATOM     16  C   LIG A   1      -1.264  11.026 132.952  0.00  0.00    +0.162 A 
ATOM     17  C   LIG A   1      -1.997   9.828 132.824  0.00  0.00    +0.061 A 
BRANCH  13  18
ATOM     18  O   LIG A   1       0.438   7.332 134.022  0.00  0.00    -0.494 OA
ATOM     19  C   LIG A   1       0.738   7.184 135.420  0.00  0.00    +0.277 C 
ENDBRANCH  13  18
BRANCH  16  20
ATOM     20  O   LIG A   1      -1.937  12.126 132.493  0.00  0.00    -0.491 OA
ATOM     21  C   LIG A   1      -2.489  13.030 133.441  0.00  0.00    +0.277 C 
ENDBRANCH  16  20
BRANCH  15  22
ATOM     22  O   LIG A   1       0.797  12.101 133.594  0.00  0.00    -0.491 OA
ATOM     23  C   LIG A   1       1.810  12.038 134.598  0.00  0.00    +0.277 C 
ENDBRANCH  15  22
ENDBRANCH  11  12
BRANCH   8  24
ATOM     24  O   LIG A   1      -2.716   5.276 129.105  0.00  0.00    -0.503 OA
ATOM     25  H   LIG A   1      -2.103   6.010 129.351  0.00  0.00    +0.292 HD
ENDBRANCH   8  24
BRANCH   7  26
ATOM     26  O   LIG A   1      -4.905   3.676 128.754  0.00  0.00    -0.488 OA
ATOM     27  C   LIG A   1      -4.404   2.398 128.350  0.00  0.00    +0.277 C 
ENDBRANCH   7  26
BRANCH   6  28
ATOM     28  O   LIG A   1      -6.482   2.973 131.021  0.00  0.00    -0.457 OA
BRANCH  28  29
ATOM     29  C   LIG A   1      -7.819   3.488 131.098  0.00  0.00    +0.339 C 
ATOM     30  O   LIG A   1      -7.740   4.875 130.785  0.00  0.00    -0.331 OA
ATOM     31  C   LIG A   1      -8.865   5.669 131.110  0.00  0.00    +0.179 C 
ATOM     32  C   LIG A   1      -9.128   5.589 132.615  0.00  0.00    +0.177 C 
ATOM     33  C   LIG A   1      -9.471   4.140 132.933  0.00  0.00    +0.180 C 
ATOM     34  C   LIG A   1      -8.319   3.216 132.547  0.00  0.00    +0.214 C 
BRANCH  34  35
ATOM     35  O   LIG A   1      -8.774   1.860 132.710  0.00  0.00    -0.383 OA
ATOM     36  H   LIG A   1      -8.098   1.427 133.273  0.00  0.00    +0.210 HD
ENDBRANCH  34  35
BRANCH  33  37
ATOM     37  O   LIG A   1      -9.753   4.005 134.335  0.00  0.00    -0.386 OA
ATOM     38  H   LIG A   1      -8.873   3.918 134.757  0.00  0.00    +0.210 HD
ENDBRANCH  33  37
BRANCH  32  39
ATOM     39  O   LIG A   1     -10.219   6.400 133.049  0.00  0.00    -0.387 OA
ATOM     40  H   LIG A   1     -10.272   7.148 132.415  0.00  0.00    +0.210 HD
ENDBRANCH  32  39
BRANCH  31  41
ATOM     41  C   LIG A   1      -8.531   7.095 130.659  0.00  0.00    +0.190 C 
BRANCH  41  42
ATOM     42  O   LIG A   1      -9.306   7.491 129.537  0.00  0.00    -0.392 OA
ATOM     43  H   LIG A   1      -9.863   8.240 129.820  0.00  0.00    +0.209 HD
ENDBRANCH  41  42
ENDBRANCH  31  41
ENDBRANCH  28  29
ENDBRANCH   6  28
TORSDOF 13
ENDMDL
MODEL 8
REMARK VINA RESULT:      -6.7      1.859      3.423
REMARK  Name = NuBBE_927
REMARK  17 active torsions:
REMARK  status: ('A' for Active; 'I' for Inactive)
REMARK    1  A    between atoms: C_6  and  O_12
REMARK    2  A    between atoms: C_7  and  O_10
REMARK    3  A    between atoms: C_8  and  O_9
REMARK    4  A    between atoms: O_10  and  C_11
REMARK    5  A    between atoms: O_12  and  C_13
REMARK    6  A    between atoms: C_16  and  C_18
REMARK    7  A    between atoms: C_18  and  O_19
REMARK    8  A    between atoms: C_20  and  O_28
REMARK    9  A    between atoms: C_22  and  O_27
REMARK   10  A    between atoms: C_24  and  O_26
REMARK   11  A    between atoms: C_31  and  C_32
REMARK   12  A    between atoms: C_33  and  O_34
REMARK   13  A    between atoms: O_34  and  C_35
REMARK   14  A    between atoms: C_37  and  O_42
REMARK   15  A    between atoms: C_38  and  O_40
REMARK   16  A    between atoms: O_40  and  C_41
REMARK   17  A    between atoms: O_42  and  C_43
REMARK                            x       y       z     vdW  Elec       q    Type
REMARK                         _______ _______ _______ _____ _____    ______ ____
ROOT
ATOM      1  O   LIG A   1      -6.671   3.737 129.894  0.00  0.00    -0.286 OA
ATOM      2  C   LIG A   1      -5.739   3.417 129.212  0.00  0.00    +0.204 A 
ATOM      3  C   LIG A   1      -5.871   2.346 128.184  0.00  0.00    +0.110 A 
ATOM      4  C   LIG A   1      -4.877   2.241 127.228  0.00  0.00    +0.146 A 
ATOM      5  C   LIG A   1      -4.929   1.267 126.241  0.00  0.00    +0.096 A 
ATOM      6  C   LIG A   1      -5.932   0.301 126.247  0.00  0.00    +0.173 A 
ATOM      7  C   LIG A   1      -6.973   0.381 127.195  0.00  0.00    +0.204 A 
ATOM      8  C   LIG A   1      -6.947   1.435 128.158  0.00  0.00    +0.177 A 
ATOM      9  O   LIG A   1      -3.753   3.027 127.210  0.00  0.00    -0.462 OA
ATOM     10  C   LIG A   1      -3.491   3.763 128.340  0.00  0.00    +0.208 A 
ATOM     11  C   LIG A   1      -4.359   4.018 129.323  0.00  0.00    +0.068 A 
ENDROOT
BRANCH  11  12
ATOM     12  C   LIG A   1      -3.936   4.854 130.456  0.00  0.00    +0.034 A 
ATOM     13  C   LIG A   1      -4.022   6.252 130.432  0.00  0.00    +0.132 A 
ATOM     14  C   LIG A   1      -3.717   6.961 131.594  0.00  0.00    +0.095 A 
ATOM     15  C   LIG A   1      -3.301   6.355 132.778  0.00  0.00    +0.165 A 
ATOM     16  C   LIG A   1      -3.197   4.964 132.812  0.00  0.00    +0.162 A 
ATOM     17  C   LIG A   1      -3.526   4.228 131.654  0.00  0.00    +0.061 A 
BRANCH  13  18
ATOM     18  O   LIG A   1      -4.458   6.913 129.305  0.00  0.00    -0.494 OA
ATOM     19  C   LIG A   1      -3.416   7.558 128.554  0.00  0.00    +0.277 C 
ENDBRANCH  13  18
BRANCH  16  20
ATOM     20  O   LIG A   1      -2.877   4.175 133.884  0.00  0.00    -0.491 OA
ATOM     21  C   LIG A   1      -3.331   2.828 133.897  0.00  0.00    +0.277 C 
ENDBRANCH  16  20
BRANCH  15  22
ATOM     22  O   LIG A   1      -2.983   7.121 133.870  0.00  0.00    -0.491 OA
ATOM     23  C   LIG A   1      -1.601   7.446 134.018  0.00  0.00    +0.277 C 
ENDBRANCH  15  22
ENDBRANCH  11  12
BRANCH   8  24
ATOM     24  O   LIG A   1      -7.965   1.538 129.074  0.00  0.00    -0.503 OA
ATOM     25  H   LIG A   1      -7.749   0.961 129.845  0.00  0.00    +0.292 HD
ENDBRANCH   8  24
BRANCH   7  26
ATOM     26  O   LIG A   1      -7.989  -0.549 127.307  0.00  0.00    -0.488 OA
ATOM     27  C   LIG A   1      -7.708  -1.777 127.985  0.00  0.00    +0.277 C 
ENDBRANCH   7  26
BRANCH   6  28
ATOM     28  O   LIG A   1      -5.948  -0.707 125.326  0.00  0.00    -0.457 OA
BRANCH  28  29
ATOM     29  C   LIG A   1      -6.673  -0.559 124.097  0.00  0.00    +0.339 C 
ATOM     30  O   LIG A   1      -7.311   0.714 124.152  0.00  0.00    -0.331 OA
ATOM     31  C   LIG A   1      -8.340   0.955 123.212  0.00  0.00    +0.179 C 
ATOM     32  C   LIG A   1      -9.450  -0.082 123.394  0.00  0.00    +0.177 C 
ATOM     33  C   LIG A   1      -8.844  -1.445 123.086  0.00  0.00    +0.180 C 
ATOM     34  C   LIG A   1      -7.681  -1.743 124.028  0.00  0.00    +0.214 C 
BRANCH  34  35
ATOM     35  O   LIG A   1      -7.050  -2.955 123.572  0.00  0.00    -0.383 OA
ATOM     36  H   LIG A   1      -6.589  -3.317 124.357  0.00  0.00    +0.210 HD
ENDBRANCH  34  35
BRANCH  33  37
ATOM     37  O   LIG A   1      -9.849  -2.463 123.217  0.00  0.00    -0.386 OA
ATOM     38  H   LIG A   1     -10.016  -2.765 122.300  0.00  0.00    +0.210 HD
ENDBRANCH  33  37
BRANCH  32  39
ATOM     39  O   LIG A   1     -10.561   0.109 122.519  0.00  0.00    -0.387 OA
ATOM     40  H   LIG A   1     -10.888   1.018 122.688  0.00  0.00    +0.210 HD
ENDBRANCH  32  39
BRANCH  31  41
ATOM     41  C   LIG A   1      -8.837   2.381 123.471  0.00  0.00    +0.190 C 
BRANCH  41  42
ATOM     42  O   LIG A   1      -9.919   2.406 124.390  0.00  0.00    -0.392 OA
ATOM     43  H   LIG A   1     -10.672   2.832 123.939  0.00  0.00    +0.209 HD
ENDBRANCH  41  42
ENDBRANCH  31  41
ENDBRANCH  28  29
ENDBRANCH   6  28
TORSDOF 13
ENDMDL
MODEL 9
REMARK VINA RESULT:      -6.6      6.393     11.478
REMARK  Name = NuBBE_927
REMARK  17 active torsions:
REMARK  status: ('A' for Active; 'I' for Inactive)
REMARK    1  A    between atoms: C_6  and  O_12
REMARK    2  A    between atoms: C_7  and  O_10
REMARK    3  A    between atoms: C_8  and  O_9
REMARK    4  A    between atoms: O_10  and  C_11
REMARK    5  A    between atoms: O_12  and  C_13
REMARK    6  A    between atoms: C_16  and  C_18
REMARK    7  A    between atoms: C_18  and  O_19
REMARK    8  A    between atoms: C_20  and  O_28
REMARK    9  A    between atoms: C_22  and  O_27
REMARK   10  A    between atoms: C_24  and  O_26
REMARK   11  A    between atoms: C_31  and  C_32
REMARK   12  A    between atoms: C_33  and  O_34
REMARK   13  A    between atoms: O_34  and  C_35
REMARK   14  A    between atoms: C_37  and  O_42
REMARK   15  A    between atoms: C_38  and  O_40
REMARK   16  A    between atoms: O_40  and  C_41
REMARK   17  A    between atoms: O_42  and  C_43
REMARK                            x       y       z     vdW  Elec       q    Type
REMARK                         _______ _______ _______ _____ _____    ______ ____
ROOT
ATOM      1  O   LIG A   1      -8.416  -2.897 129.601  0.00  0.00    -0.286 OA
ATOM      2  C   LIG A   1      -7.264  -2.598 129.459  0.00  0.00    +0.204 A 
ATOM      3  C   LIG A   1      -6.258  -2.890 130.520  0.00  0.00    +0.110 A 
ATOM      4  C   LIG A   1      -4.919  -2.816 130.179  0.00  0.00    +0.146 A 
ATOM      5  C   LIG A   1      -3.925  -3.072 131.112  0.00  0.00    +0.096 A 
ATOM      6  C   LIG A   1      -4.246  -3.307 132.447  0.00  0.00    +0.173 A 
ATOM      7  C   LIG A   1      -5.599  -3.406 132.833  0.00  0.00    +0.204 A 
ATOM      8  C   LIG A   1      -6.611  -3.217 131.844  0.00  0.00    +0.177 A 
ATOM      9  O   LIG A   1      -4.469  -2.435 128.940  0.00  0.00    -0.462 OA
ATOM     10  C   LIG A   1      -5.386  -1.852 128.098  0.00  0.00    +0.208 A 
ATOM     11  C   LIG A   1      -6.713  -1.891 128.245  0.00  0.00    +0.068 A 
ENDROOT
BRANCH  11  12
ATOM     12  C   LIG A   1      -7.566  -1.246 127.236  0.00  0.00    +0.034 A 
ATOM     13  C   LIG A   1      -8.183  -1.963 126.203  0.00  0.00    +0.132 A 
ATOM     14  C   LIG A   1      -9.075  -1.295 125.365  0.00  0.00    +0.095 A 
ATOM     15  C   LIG A   1      -9.367   0.063 125.477  0.00  0.00    +0.165 A 
ATOM     16  C   LIG A   1      -8.749   0.793 126.492  0.00  0.00    +0.162 A 
ATOM     17  C   LIG A   1      -7.864   0.129 127.367  0.00  0.00    +0.061 A 
BRANCH  13  18
ATOM     18  O   LIG A   1      -7.965  -3.315 126.055  0.00  0.00    -0.494 OA
ATOM     19  C   LIG A   1      -8.232  -3.819 124.735  0.00  0.00    +0.277 C 
ENDBRANCH  13  18
BRANCH  16  20
ATOM     20  O   LIG A   1      -8.948   2.108 126.817  0.00  0.00    -0.491 OA
ATOM     21  C   LIG A   1      -7.905   3.039 126.558  0.00  0.00    +0.277 C 
ENDBRANCH  16  20
BRANCH  15  22
ATOM     22  O   LIG A   1     -10.227   0.660 124.592  0.00  0.00    -0.491 OA
ATOM     23  C   LIG A   1      -9.621   1.252 123.442  0.00  0.00    +0.277 C 
ENDBRANCH  15  22
ENDBRANCH  11  12
BRANCH   8  24
ATOM     24  O   LIG A   1      -7.933  -3.330 132.202  0.00  0.00    -0.503 OA
ATOM     25  H   LIG A   1      -8.015  -3.119 133.163  0.00  0.00    +0.292 HD
ENDBRANCH   8  24
BRANCH   7  26
ATOM     26  O   LIG A   1      -6.019  -3.598 134.136  0.00  0.00    -0.488 OA
ATOM     27  C   LIG A   1      -6.121  -4.940 134.620  0.00  0.00    +0.277 C 
ENDBRANCH   7  26
BRANCH   6  28
ATOM     28  O   LIG A   1      -3.272  -3.482 133.388  0.00  0.00    -0.457 OA
BRANCH  28  29
ATOM     29  C   LIG A   1      -2.651  -2.349 134.012  0.00  0.00    +0.339 C 
ATOM     30  O   LIG A   1      -1.256  -2.448 133.740  0.00  0.00    -0.331 OA
ATOM     31  C   LIG A   1      -0.394  -1.637 134.515  0.00  0.00    +0.179 C 
ATOM     32  C   LIG A   1      -0.562  -1.984 135.995  0.00  0.00    +0.177 C 
ATOM     33  C   LIG A   1      -1.996  -1.640 136.376  0.00  0.00    +0.180 C 
ATOM     34  C   LIG A   1      -2.984  -2.438 135.530  0.00  0.00    +0.214 C 
BRANCH  34  35
ATOM     35  O   LIG A   1      -4.305  -1.939 135.817  0.00  0.00    -0.383 OA
ATOM     36  H   LIG A   1      -4.166  -1.153 136.386  0.00  0.00    +0.210 HD
ENDBRANCH  34  35
BRANCH  33  37
ATOM     37  O   LIG A   1      -2.209  -1.922 137.768  0.00  0.00    -0.386 OA
ATOM     38  H   LIG A   1      -3.182  -1.901 137.879  0.00  0.00    +0.210 HD
ENDBRANCH  33  37
BRANCH  32  39
ATOM     39  O   LIG A   1       0.306  -1.249 136.857  0.00  0.00    -0.387 OA
ATOM     40  H   LIG A   1       1.211  -1.366 136.497  0.00  0.00    +0.210 HD
ENDBRANCH  32  39
BRANCH  31  41
ATOM     41  C   LIG A   1       1.027  -1.918 134.015  0.00  0.00    +0.190 C 
BRANCH  41  42
ATOM     42  O   LIG A   1       1.291  -3.310 133.925  0.00  0.00    -0.392 OA
ATOM     43  H   LIG A   1       1.823  -3.453 133.120  0.00  0.00    +0.209 HD
ENDBRANCH  41  42
ENDBRANCH  31  41
ENDBRANCH  28  29
ENDBRANCH   6  28
TORSDOF 13
ENDMDL
