MODEL 1
REMARK VINA RESULT:      -8.9      0.000      0.000
REMARK  Name = NuBBE_1877
REMARK  13 active torsions:
REMARK  status: ('A' for Active; 'I' for Inactive)
REMARK    1  A    between atoms: C_4  and  O_39
REMARK    2  A    between atoms: C_5  and  O_6
REMARK    3  A    between atoms: C_7  and  O_37
REMARK    4  A    between atoms: C_11  and  C_12
REMARK    5  A    between atoms: C_13  and  O_14
REMARK    6  A    between atoms: O_14  and  C_15
REMARK    7  A    between atoms: C_21  and  O_22
REMARK    8  A    between atoms: O_22  and  C_23
REMARK    9  A    between atoms: C_29  and  O_32
REMARK   10  A    between atoms: O_32  and  C_33
REMARK   11  A    between atoms: C_34  and  O_35
REMARK   12  A    between atoms: O_35  and  C_36
REMARK   13  A    between atoms: O_37  and  C_38
REMARK                            x       y       z     vdW  Elec       q    Type
REMARK                         _______ _______ _______ _____ _____    ______ ____
ROOT
ATOM      1  C   LIG A   1      -7.410   3.769 127.357  0.00  0.00    +0.067 A 
ATOM      2  C   LIG A   1      -6.414   2.754 127.046  0.00  0.00    +0.185 A 
ATOM      3  C   LIG A   1      -6.324   2.228 125.724  0.00  0.00    +0.212 A 
ATOM      4  C   LIG A   1      -6.574   3.180 124.725  0.00  0.00    +0.166 A 
ATOM      5  C   LIG A   1      -7.402   4.280 124.977  0.00  0.00    +0.050 A 
ATOM      6  C   LIG A   1      -7.848   4.537 126.265  0.00  0.00    +0.019 A 
ENDROOT
BRANCH   1  16
ATOM      7  O   LIG A   1      -8.660   4.284 132.183  0.00  0.00    -0.283 OA
ATOM      8  C   LIG A   1      -8.819   4.483 131.031  0.00  0.00    +0.238 A 
ATOM      9  C   LIG A   1      -9.814   5.469 130.604  0.00  0.00    +0.113 A 
ATOM     10  C   LIG A   1     -10.737   5.970 131.514  0.00  0.00    +0.177 A 
ATOM     11  C   LIG A   1     -11.787   6.771 131.055  0.00  0.00    +0.202 A 
ATOM     12  C   LIG A   1     -11.886   7.093 129.694  0.00  0.00    +0.169 A 
ATOM     13  C   LIG A   1     -10.892   6.628 128.820  0.00  0.00    +0.096 A 
ATOM     14  C   LIG A   1      -9.862   5.807 129.279  0.00  0.00    +0.147 A 
ATOM     15  O   LIG A   1      -8.952   5.343 128.369  0.00  0.00    -0.451 OA
ATOM     16  C   LIG A   1      -8.154   4.187 128.664  0.00  0.00    +0.184 A 
ATOM     17  C   LIG A   1      -8.053   3.747 129.955  0.00  0.00    +0.211 A 
BRANCH  11  18
ATOM     18  O   LIG A   1     -12.687   7.225 131.982  0.00  0.00    -0.501 OA
ATOM     19  H   LIG A   1     -12.762   6.496 132.637  0.00  0.00    +0.292 HD
ENDBRANCH  11  18
BRANCH  17  20
ATOM     20  O   LIG A   1      -7.243   2.829 130.602  0.00  0.00    -0.488 OA
ATOM     21  C   LIG A   1      -7.514   1.462 130.520  0.00  0.00    +0.277 C 
ENDBRANCH  17  20
BRANCH  12  22
ATOM     22  O   LIG A   1     -12.964   7.822 129.255  0.00  0.00    -0.491 OA
ATOM     23  C   LIG A   1     -12.692   9.203 129.010  0.00  0.00    +0.277 C 
ENDBRANCH  12  22
BRANCH  10  24
ATOM     24  O   LIG A   1     -10.702   5.694 132.860  0.00  0.00    -0.503 OA
ATOM     25  H   LIG A   1      -9.956   6.222 133.251  0.00  0.00    +0.292 HD
ENDBRANCH  10  24
ENDBRANCH   1  16
BRANCH   4  26
ATOM     26  O   LIG A   1      -5.947   3.204 123.501  0.00  0.00    -0.491 OA
ATOM     27  C   LIG A   1      -6.859   3.158 122.395  0.00  0.00    +0.277 C 
ENDBRANCH   4  26
BRANCH   2  28
ATOM     28  O   LIG A   1      -5.373   2.302 127.904  0.00  0.00    -0.452 OA
BRANCH  28  29
ATOM     29  C   LIG A   1      -4.233   3.030 128.092  0.00  0.00    +0.129 A 
ATOM     30  C   LIG A   1      -3.990   3.763 129.218  0.00  0.00    +0.046 A 
ATOM     31  C   LIG A   1      -3.317   4.932 129.264  0.00  0.00    +0.004 A 
ATOM     32  C   LIG A   1      -2.539   5.149 128.171  0.00  0.00    +0.000 A 
ATOM     33  C   LIG A   1      -2.322   4.082 127.274  0.00  0.00    +0.004 A 
ATOM     34  C   LIG A   1      -3.146   2.952 127.276  0.00  0.00    +0.046 A 
ENDBRANCH  28  29
ENDBRANCH   2  28
BRANCH   3  35
ATOM     35  O   LIG A   1      -6.104   0.905 125.231  0.00  0.00    -0.449 OA
BRANCH  35  36
ATOM     36  C   LIG A   1      -7.023   0.019 124.674  0.00  0.00    +0.129 A 
ATOM     37  C   LIG A   1      -8.097  -0.441 125.377  0.00  0.00    +0.046 A 
ATOM     38  C   LIG A   1      -8.911  -1.525 125.075  0.00  0.00    +0.004 A 
ATOM     39  C   LIG A   1      -8.761  -2.137 123.863  0.00  0.00    +0.000 A 
ATOM     40  C   LIG A   1      -7.797  -1.619 122.997  0.00  0.00    +0.004 A 
ATOM     41  C   LIG A   1      -6.923  -0.552 123.396  0.00  0.00    +0.046 A 
ENDBRANCH  35  36
ENDBRANCH   3  35
TORSDOF 10
ENDMDL
MODEL 2
REMARK VINA RESULT:      -8.8      2.197      7.533
REMARK  Name = NuBBE_1877
REMARK  13 active torsions:
REMARK  status: ('A' for Active; 'I' for Inactive)
REMARK    1  A    between atoms: C_4  and  O_39
REMARK    2  A    between atoms: C_5  and  O_6
REMARK    3  A    between atoms: C_7  and  O_37
REMARK    4  A    between atoms: C_11  and  C_12
REMARK    5  A    between atoms: C_13  and  O_14
REMARK    6  A    between atoms: O_14  and  C_15
REMARK    7  A    between atoms: C_21  and  O_22
REMARK    8  A    between atoms: O_22  and  C_23
REMARK    9  A    between atoms: C_29  and  O_32
REMARK   10  A    between atoms: O_32  and  C_33
REMARK   11  A    between atoms: C_34  and  O_35
REMARK   12  A    between atoms: O_35  and  C_36
REMARK   13  A    between atoms: O_37  and  C_38
REMARK                            x       y       z     vdW  Elec       q    Type
REMARK                         _______ _______ _______ _____ _____    ______ ____
ROOT
ATOM      1  C   LIG A   1      -8.459   2.942 129.341  0.00  0.00    +0.067 A 
ATOM      2  C   LIG A   1      -8.101   4.337 129.126  0.00  0.00    +0.185 A 
ATOM      3  C   LIG A   1      -8.916   5.372 129.668  0.00  0.00    +0.212 A 
ATOM      4  C   LIG A   1      -9.460   5.057 130.922  0.00  0.00    +0.166 A 
ATOM      5  C   LIG A   1      -9.702   3.726 131.282  0.00  0.00    +0.050 A 
ATOM      6  C   LIG A   1      -9.248   2.692 130.477  0.00  0.00    +0.019 A 
ENDROOT
BRANCH   1  16
ATOM      7  O   LIG A   1      -6.958  -1.689 128.151  0.00  0.00    -0.283 OA
ATOM      8  C   LIG A   1      -7.478  -0.659 127.905  0.00  0.00    +0.238 A 
ATOM      9  C   LIG A   1      -8.228  -0.515 126.657  0.00  0.00    +0.113 A 
ATOM     10  C   LIG A   1      -8.116  -1.476 125.658  0.00  0.00    +0.177 A 
ATOM     11  C   LIG A   1      -8.697  -1.236 124.409  0.00  0.00    +0.202 A 
ATOM     12  C   LIG A   1      -9.413  -0.054 124.178  0.00  0.00    +0.169 A 
ATOM     13  C   LIG A   1      -9.566   0.856 125.235  0.00  0.00    +0.096 A 
ATOM     14  C   LIG A   1      -8.963   0.625 126.471  0.00  0.00    +0.147 A 
ATOM     15  O   LIG A   1      -9.104   1.575 127.446  0.00  0.00    -0.451 OA
ATOM     16  C   LIG A   1      -8.190   1.623 128.551  0.00  0.00    +0.184 A 
ATOM     17  C   LIG A   1      -7.390   0.546 128.815  0.00  0.00    +0.211 A 
BRANCH  11  18
ATOM     18  O   LIG A   1      -8.542  -2.199 123.447  0.00  0.00    -0.501 OA
ATOM     19  H   LIG A   1      -8.937  -3.009 123.836  0.00  0.00    +0.292 HD
ENDBRANCH  11  18
BRANCH  17  20
ATOM     20  O   LIG A   1      -6.575   0.184 129.875  0.00  0.00    -0.488 OA
ATOM     21  C   LIG A   1      -5.348   0.821 130.075  0.00  0.00    +0.277 C 
ENDBRANCH  17  20
BRANCH  12  22
ATOM     22  O   LIG A   1      -9.914   0.191 122.923  0.00  0.00    -0.491 OA
ATOM     23  C   LIG A   1      -9.813   1.551 122.494  0.00  0.00    +0.277 C 
ENDBRANCH  12  22
BRANCH  10  24
ATOM     24  O   LIG A   1      -7.428  -2.655 125.814  0.00  0.00    -0.503 OA
ATOM     25  H   LIG A   1      -8.001  -3.262 126.354  0.00  0.00    +0.292 HD
ENDBRANCH  10  24
ENDBRANCH   1  16
BRANCH   4  26
ATOM     26  O   LIG A   1      -9.669   5.970 131.930  0.00  0.00    -0.491 OA
ATOM     27  C   LIG A   1      -8.768   5.810 133.035  0.00  0.00    +0.277 C 
ENDBRANCH   4  26
BRANCH   2  28
ATOM     28  O   LIG A   1      -6.899   4.818 128.534  0.00  0.00    -0.452 OA
BRANCH  28  29
ATOM     29  C   LIG A   1      -6.313   4.176 127.480  0.00  0.00    +0.129 A 
ATOM     30  C   LIG A   1      -6.779   4.259 126.200  0.00  0.00    +0.046 A 
ATOM     31  C   LIG A   1      -6.735   3.271 125.282  0.00  0.00    +0.004 A 
ATOM     32  C   LIG A   1      -5.832   2.300 125.579  0.00  0.00    +0.000 A 
ATOM     33  C   LIG A   1      -4.903   2.536 126.616  0.00  0.00    +0.004 A 
ATOM     34  C   LIG A   1      -5.107   3.549 127.557  0.00  0.00    +0.046 A 
ENDBRANCH  28  29
ENDBRANCH   2  28
BRANCH   3  35
ATOM     35  O   LIG A   1      -9.342   6.632 129.145  0.00  0.00    -0.449 OA
BRANCH  35  36
ATOM     36  C   LIG A   1     -10.515   6.938 128.458  0.00  0.00    +0.129 A 
ATOM     37  C   LIG A   1     -11.733   6.922 129.070  0.00  0.00    +0.046 A 
ATOM     38  C   LIG A   1     -12.987   6.911 128.471  0.00  0.00    +0.004 A 
ATOM     39  C   LIG A   1     -13.066   7.097 127.121  0.00  0.00    +0.000 A 
ATOM     40  C   LIG A   1     -11.872   7.300 126.429  0.00  0.00    +0.004 A 
ATOM     41  C   LIG A   1     -10.599   7.214 127.084  0.00  0.00    +0.046 A 
ENDBRANCH  35  36
ENDBRANCH   3  35
TORSDOF 10
ENDMDL
MODEL 3
REMARK VINA RESULT:      -8.5      2.141      7.542
REMARK  Name = NuBBE_1877
REMARK  13 active torsions:
REMARK  status: ('A' for Active; 'I' for Inactive)
REMARK    1  A    between atoms: C_4  and  O_39
REMARK    2  A    between atoms: C_5  and  O_6
REMARK    3  A    between atoms: C_7  and  O_37
REMARK    4  A    between atoms: C_11  and  C_12
REMARK    5  A    between atoms: C_13  and  O_14
REMARK    6  A    between atoms: O_14  and  C_15
REMARK    7  A    between atoms: C_21  and  O_22
REMARK    8  A    between atoms: O_22  and  C_23
REMARK    9  A    between atoms: C_29  and  O_32
REMARK   10  A    between atoms: O_32  and  C_33
REMARK   11  A    between atoms: C_34  and  O_35
REMARK   12  A    between atoms: O_35  and  C_36
REMARK   13  A    between atoms: O_37  and  C_38
REMARK                            x       y       z     vdW  Elec       q    Type
REMARK                         _______ _______ _______ _____ _____    ______ ____
ROOT
ATOM      1  C   LIG A   1      -8.271   2.775 129.299  0.00  0.00    +0.067 A 
ATOM      2  C   LIG A   1      -7.916   4.181 129.172  0.00  0.00    +0.185 A 
ATOM      3  C   LIG A   1      -8.562   5.155 129.988  0.00  0.00    +0.212 A 
ATOM      4  C   LIG A   1      -8.842   4.700 131.285  0.00  0.00    +0.166 A 
ATOM      5  C   LIG A   1      -9.049   3.339 131.536  0.00  0.00    +0.050 A 
ATOM      6  C   LIG A   1      -8.812   2.402 130.541  0.00  0.00    +0.019 A 
ENDROOT
BRANCH   1  16
ATOM      7  O   LIG A   1      -7.681  -1.854 127.473  0.00  0.00    -0.283 OA
ATOM      8  C   LIG A   1      -7.953  -0.711 127.366  0.00  0.00    +0.238 A 
ATOM      9  C   LIG A   1      -8.554  -0.230 126.122  0.00  0.00    +0.113 A 
ATOM     10  C   LIG A   1      -8.566  -1.040 124.991  0.00  0.00    +0.177 A 
ATOM     11  C   LIG A   1      -8.981  -0.504 123.769  0.00  0.00    +0.202 A 
ATOM     12  C   LIG A   1      -9.414   0.827 123.692  0.00  0.00    +0.169 A 
ATOM     13  C   LIG A   1      -9.457   1.589 124.870  0.00  0.00    +0.096 A 
ATOM     14  C   LIG A   1      -9.017   1.057 126.082  0.00  0.00    +0.147 A 
ATOM     15  O   LIG A   1      -9.034   1.866 127.185  0.00  0.00    -0.451 OA
ATOM     16  C   LIG A   1      -8.221   1.556 128.326  0.00  0.00    +0.184 A 
ATOM     17  C   LIG A   1      -7.687   0.303 128.456  0.00  0.00    +0.211 A 
BRANCH  11  18
ATOM     18  O   LIG A   1      -8.955  -1.330 122.676  0.00  0.00    -0.501 OA
ATOM     19  H   LIG A   1      -9.603  -0.939 122.051  0.00  0.00    +0.292 HD
ENDBRANCH  11  18
BRANCH  17  20
ATOM     20  O   LIG A   1      -7.054  -0.375 129.484  0.00  0.00    -0.488 OA
ATOM     21  C   LIG A   1      -5.784   0.016 129.914  0.00  0.00    +0.277 C 
ENDBRANCH  17  20
BRANCH  12  22
ATOM     22  O   LIG A   1      -9.750   1.352 122.468  0.00  0.00    -0.491 OA
ATOM     23  C   LIG A   1      -9.063   2.558 122.126  0.00  0.00    +0.277 C 
ENDBRANCH  12  22
BRANCH  10  24
ATOM     24  O   LIG A   1      -8.154  -2.351 124.994  0.00  0.00    -0.503 OA
ATOM     25  H   LIG A   1      -7.809  -2.551 125.904  0.00  0.00    +0.292 HD
ENDBRANCH  10  24
ENDBRANCH   1  16
BRANCH   4  26
ATOM     26  O   LIG A   1      -8.801   5.490 132.411  0.00  0.00    -0.491 OA
ATOM     27  C   LIG A   1      -7.468   5.747 132.876  0.00  0.00    +0.277 C 
ENDBRANCH   4  26
BRANCH   2  28
ATOM     28  O   LIG A   1      -6.849   4.715 128.396  0.00  0.00    -0.452 OA
BRANCH  28  29
ATOM     29  C   LIG A   1      -5.608   4.145 128.395  0.00  0.00    +0.129 A 
ATOM     30  C   LIG A   1      -4.800   4.110 129.494  0.00  0.00    +0.046 A 
ATOM     31  C   LIG A   1      -3.453   4.188 129.482  0.00  0.00    +0.004 A 
ATOM     32  C   LIG A   1      -2.908   3.904 128.270  0.00  0.00    +0.000 A 
ATOM     33  C   LIG A   1      -3.733   3.335 127.275  0.00  0.00    +0.004 A 
ATOM     34  C   LIG A   1      -5.127   3.391 127.369  0.00  0.00    +0.046 A 
ENDBRANCH  28  29
ENDBRANCH   2  28
BRANCH   3  35
ATOM     35  O   LIG A   1      -9.043   6.472 129.713  0.00  0.00    -0.449 OA
BRANCH  35  36
ATOM     36  C   LIG A   1     -10.312   6.866 129.295  0.00  0.00    +0.129 A 
ATOM     37  C   LIG A   1     -10.515   8.021 128.599  0.00  0.00    +0.046 A 
ATOM     38  C   LIG A   1     -11.716   8.683 128.379  0.00  0.00    +0.004 A 
ATOM     39  C   LIG A   1     -12.877   8.063 128.742  0.00  0.00    +0.000 A 
ATOM     40  C   LIG A   1     -12.779   6.791 129.304  0.00  0.00    +0.004 A 
ATOM     41  C   LIG A   1     -11.506   6.191 129.590  0.00  0.00    +0.046 A 
ENDBRANCH  35  36
ENDBRANCH   3  35
TORSDOF 10
ENDMDL
MODEL 4
REMARK VINA RESULT:      -8.4      2.153      8.180
REMARK  Name = NuBBE_1877
REMARK  13 active torsions:
REMARK  status: ('A' for Active; 'I' for Inactive)
REMARK    1  A    between atoms: C_4  and  O_39
REMARK    2  A    between atoms: C_5  and  O_6
REMARK    3  A    between atoms: C_7  and  O_37
REMARK    4  A    between atoms: C_11  and  C_12
REMARK    5  A    between atoms: C_13  and  O_14
REMARK    6  A    between atoms: O_14  and  C_15
REMARK    7  A    between atoms: C_21  and  O_22
REMARK    8  A    between atoms: O_22  and  C_23
REMARK    9  A    between atoms: C_29  and  O_32
REMARK   10  A    between atoms: O_32  and  C_33
REMARK   11  A    between atoms: C_34  and  O_35
REMARK   12  A    between atoms: O_35  and  C_36
REMARK   13  A    between atoms: O_37  and  C_38
REMARK                            x       y       z     vdW  Elec       q    Type
REMARK                         _______ _______ _______ _____ _____    ______ ____
ROOT
ATOM      1  C   LIG A   1      -8.144   2.874 128.524  0.00  0.00    +0.067 A 
ATOM      2  C   LIG A   1      -7.604   4.189 128.840  0.00  0.00    +0.185 A 
ATOM      3  C   LIG A   1      -8.060   4.886 129.996  0.00  0.00    +0.212 A 
ATOM      4  C   LIG A   1      -8.328   4.046 131.087  0.00  0.00    +0.166 A 
ATOM      5  C   LIG A   1      -8.710   2.715 130.887  0.00  0.00    +0.050 A 
ATOM      6  C   LIG A   1      -8.662   2.158 129.617  0.00  0.00    +0.019 A 
ENDROOT
BRANCH   1  16
ATOM      7  O   LIG A   1      -8.606   1.705 123.673  0.00  0.00    -0.283 OA
ATOM      8  C   LIG A   1      -8.547   1.427 124.818  0.00  0.00    +0.238 A 
ATOM      9  C   LIG A   1      -8.438   0.022 125.210  0.00  0.00    +0.113 A 
ATOM     10  C   LIG A   1      -8.664  -0.984 124.277  0.00  0.00    +0.177 A 
ATOM     11  C   LIG A   1      -8.730  -2.314 124.705  0.00  0.00    +0.202 A 
ATOM     12  C   LIG A   1      -8.537  -2.630 126.057  0.00  0.00    +0.169 A 
ATOM     13  C   LIG A   1      -8.239  -1.594 126.954  0.00  0.00    +0.096 A 
ATOM     14  C   LIG A   1      -8.200  -0.267 126.526  0.00  0.00    +0.147 A 
ATOM     15  O   LIG A   1      -7.955   0.705 127.459  0.00  0.00    -0.451 OA
ATOM     16  C   LIG A   1      -8.320   2.068 127.200  0.00  0.00    +0.184 A 
ATOM     17  C   LIG A   1      -8.602   2.462 125.920  0.00  0.00    +0.211 A 
BRANCH  11  18
ATOM     18  O   LIG A   1      -8.977  -3.271 123.757  0.00  0.00    -0.501 OA
ATOM     19  H   LIG A   1      -9.792  -3.725 124.064  0.00  0.00    +0.292 HD
ENDBRANCH  11  18
BRANCH  17  20
ATOM     20  O   LIG A   1      -8.780   3.689 125.304  0.00  0.00    -0.488 OA
ATOM     21  C   LIG A   1      -7.707   4.570 125.154  0.00  0.00    +0.277 C 
ENDBRANCH  17  20
BRANCH  12  22
ATOM     22  O   LIG A   1      -8.677  -3.934 126.466  0.00  0.00    -0.491 OA
ATOM     23  C   LIG A   1      -8.938  -4.099 127.861  0.00  0.00    +0.277 C 
ENDBRANCH  12  22
BRANCH  10  24
ATOM     24  O   LIG A   1      -8.863  -0.746 122.938  0.00  0.00    -0.503 OA
ATOM     25  H   LIG A   1      -8.244  -1.341 122.437  0.00  0.00    +0.292 HD
ENDBRANCH  10  24
ENDBRANCH   1  16
BRANCH   4  26
ATOM     26  O   LIG A   1      -8.114   4.389 132.402  0.00  0.00    -0.491 OA
ATOM     27  C   LIG A   1      -8.686   3.458 133.332  0.00  0.00    +0.277 C 
ENDBRANCH   4  26
BRANCH   2  28
ATOM     28  O   LIG A   1      -6.518   4.834 128.185  0.00  0.00    -0.452 OA
BRANCH  28  29
ATOM     29  C   LIG A   1      -5.276   4.268 128.131  0.00  0.00    +0.129 A 
ATOM     30  C   LIG A   1      -4.355   4.385 129.132  0.00  0.00    +0.046 A 
ATOM     31  C   LIG A   1      -3.019   4.461 128.966  0.00  0.00    +0.004 A 
ATOM     32  C   LIG A   1      -2.601   4.011 127.753  0.00  0.00    +0.000 A 
ATOM     33  C   LIG A   1      -3.517   3.311 126.940  0.00  0.00    +0.004 A 
ATOM     34  C   LIG A   1      -4.894   3.380 127.173  0.00  0.00    +0.046 A 
ENDBRANCH  28  29
ENDBRANCH   2  28
BRANCH   3  35
ATOM     35  O   LIG A   1      -8.366   6.263 130.228  0.00  0.00    -0.449 OA
BRANCH  35  36
ATOM     36  C   LIG A   1      -9.612   6.885 130.252  0.00  0.00    +0.129 A 
ATOM     37  C   LIG A   1     -10.530   6.623 131.227  0.00  0.00    +0.046 A 
ATOM     38  C   LIG A   1     -11.885   6.926 131.223  0.00  0.00    +0.004 A 
ATOM     39  C   LIG A   1     -12.374   7.719 130.225  0.00  0.00    +0.000 A 
ATOM     40  C   LIG A   1     -11.468   8.184 129.272  0.00  0.00    +0.004 A 
ATOM     41  C   LIG A   1     -10.094   7.768 129.274  0.00  0.00    +0.046 A 
ENDBRANCH  35  36
ENDBRANCH   3  35
TORSDOF 10
ENDMDL
MODEL 5
REMARK VINA RESULT:      -8.4      2.649      7.736
REMARK  Name = NuBBE_1877
REMARK  13 active torsions:
REMARK  status: ('A' for Active; 'I' for Inactive)
REMARK    1  A    between atoms: C_4  and  O_39
REMARK    2  A    between atoms: C_5  and  O_6
REMARK    3  A    between atoms: C_7  and  O_37
REMARK    4  A    between atoms: C_11  and  C_12
REMARK    5  A    between atoms: C_13  and  O_14
REMARK    6  A    between atoms: O_14  and  C_15
REMARK    7  A    between atoms: C_21  and  O_22
REMARK    8  A    between atoms: O_22  and  C_23
REMARK    9  A    between atoms: C_29  and  O_32
REMARK   10  A    between atoms: O_32  and  C_33
REMARK   11  A    between atoms: C_34  and  O_35
REMARK   12  A    between atoms: O_35  and  C_36
REMARK   13  A    between atoms: O_37  and  C_38
REMARK                            x       y       z     vdW  Elec       q    Type
REMARK                         _______ _______ _______ _____ _____    ______ ____
ROOT
ATOM      1  C   LIG A   1      -8.156   2.742 129.497  0.00  0.00    +0.067 A 
ATOM      2  C   LIG A   1      -7.133   3.660 129.979  0.00  0.00    +0.185 A 
ATOM      3  C   LIG A   1      -7.502   4.955 130.444  0.00  0.00    +0.212 A 
ATOM      4  C   LIG A   1      -8.728   4.977 131.126  0.00  0.00    +0.166 A 
ATOM      5  C   LIG A   1      -9.723   4.036 130.837  0.00  0.00    +0.050 A 
ATOM      6  C   LIG A   1      -9.449   2.966 129.998  0.00  0.00    +0.019 A 
ENDROOT
BRANCH   1  16
ATOM      7  O   LIG A   1      -7.763  -1.853 127.536  0.00  0.00    -0.283 OA
ATOM      8  C   LIG A   1      -7.977  -0.695 127.461  0.00  0.00    +0.238 A 
ATOM      9  C   LIG A   1      -8.536  -0.148 126.224  0.00  0.00    +0.113 A 
ATOM     10  C   LIG A   1      -8.569  -0.921 125.069  0.00  0.00    +0.177 A 
ATOM     11  C   LIG A   1      -8.940  -0.328 123.858  0.00  0.00    +0.202 A 
ATOM     12  C   LIG A   1      -9.307   1.024 123.817  0.00  0.00    +0.169 A 
ATOM     13  C   LIG A   1      -9.331   1.751 125.017  0.00  0.00    +0.096 A 
ATOM     14  C   LIG A   1      -8.935   1.161 126.218  0.00  0.00    +0.147 A 
ATOM     15  O   LIG A   1      -8.930   1.936 127.345  0.00  0.00    -0.451 OA
ATOM     16  C   LIG A   1      -8.150   1.552 128.487  0.00  0.00    +0.184 A 
ATOM     17  C   LIG A   1      -7.680   0.271 128.586  0.00  0.00    +0.211 A 
BRANCH  11  18
ATOM     18  O   LIG A   1      -8.937  -1.121 122.741  0.00  0.00    -0.501 OA
ATOM     19  H   LIG A   1      -8.258  -1.807 122.921  0.00  0.00    +0.292 HD
ENDBRANCH  11  18
BRANCH  17  20
ATOM     20  O   LIG A   1      -7.096  -0.467 129.600  0.00  0.00    -0.488 OA
ATOM     21  C   LIG A   1      -5.754  -0.274 129.936  0.00  0.00    +0.277 C 
ENDBRANCH  17  20
BRANCH  12  22
ATOM     22  O   LIG A   1      -9.598   1.602 122.605  0.00  0.00    -0.491 OA
ATOM     23  C   LIG A   1      -8.817   2.756 122.290  0.00  0.00    +0.277 C 
ENDBRANCH  12  22
BRANCH  10  24
ATOM     24  O   LIG A   1      -8.221  -2.250 125.036  0.00  0.00    -0.503 OA
ATOM     25  H   LIG A   1      -7.710  -2.442 125.866  0.00  0.00    +0.292 HD
ENDBRANCH  10  24
ENDBRANCH   1  16
BRANCH   4  26
ATOM     26  O   LIG A   1      -9.007   5.797 132.195  0.00  0.00    -0.491 OA
ATOM     27  C   LIG A   1      -8.556   5.266 133.450  0.00  0.00    +0.277 C 
ENDBRANCH   4  26
BRANCH   2  28
ATOM     28  O   LIG A   1      -5.759   3.356 130.189  0.00  0.00    -0.452 OA
BRANCH  28  29
ATOM     29  C   LIG A   1      -4.791   3.782 129.324  0.00  0.00    +0.129 A 
ATOM     30  C   LIG A   1      -3.496   3.998 129.697  0.00  0.00    +0.046 A 
ATOM     31  C   LIG A   1      -2.683   4.950 129.195  0.00  0.00    +0.004 A 
ATOM     32  C   LIG A   1      -3.100   5.438 127.998  0.00  0.00    +0.000 A 
ATOM     33  C   LIG A   1      -4.134   4.761 127.316  0.00  0.00    +0.004 A 
ATOM     34  C   LIG A   1      -4.964   3.850 127.976  0.00  0.00    +0.046 A 
ENDBRANCH  28  29
ENDBRANCH   2  28
BRANCH   3  35
ATOM     35  O   LIG A   1      -6.900   6.241 130.281  0.00  0.00    -0.449 OA
BRANCH  35  36
ATOM     36  C   LIG A   1      -5.765   6.755 130.904  0.00  0.00    +0.129 A 
ATOM     37  C   LIG A   1      -4.997   7.720 130.320  0.00  0.00    +0.046 A 
ATOM     38  C   LIG A   1      -3.710   8.109 130.667  0.00  0.00    +0.004 A 
ATOM     39  C   LIG A   1      -3.166   7.612 131.817  0.00  0.00    +0.000 A 
ATOM     40  C   LIG A   1      -3.951   6.748 132.579  0.00  0.00    +0.004 A 
ATOM     41  C   LIG A   1      -5.242   6.310 132.128  0.00  0.00    +0.046 A 
ENDBRANCH  35  36
ENDBRANCH   3  35
TORSDOF 10
ENDMDL
MODEL 6
REMARK VINA RESULT:      -8.4      2.651      8.028
REMARK  Name = NuBBE_1877
REMARK  13 active torsions:
REMARK  status: ('A' for Active; 'I' for Inactive)
REMARK    1  A    between atoms: C_4  and  O_39
REMARK    2  A    between atoms: C_5  and  O_6
REMARK    3  A    between atoms: C_7  and  O_37
REMARK    4  A    between atoms: C_11  and  C_12
REMARK    5  A    between atoms: C_13  and  O_14
REMARK    6  A    between atoms: O_14  and  C_15
REMARK    7  A    between atoms: C_21  and  O_22
REMARK    8  A    between atoms: O_22  and  C_23
REMARK    9  A    between atoms: C_29  and  O_32
REMARK   10  A    between atoms: O_32  and  C_33
REMARK   11  A    between atoms: C_34  and  O_35
REMARK   12  A    between atoms: O_35  and  C_36
REMARK   13  A    between atoms: O_37  and  C_38
REMARK                            x       y       z     vdW  Elec       q    Type
REMARK                         _______ _______ _______ _____ _____    ______ ____
ROOT
ATOM      1  C   LIG A   1      -5.529   2.987 127.127  0.00  0.00    +0.067 A 
ATOM      2  C   LIG A   1      -5.783   3.911 128.223  0.00  0.00    +0.185 A 
ATOM      3  C   LIG A   1      -4.774   4.152 129.200  0.00  0.00    +0.212 A 
ATOM      4  C   LIG A   1      -3.475   4.157 128.671  0.00  0.00    +0.166 A 
ATOM      5  C   LIG A   1      -3.166   3.415 127.525  0.00  0.00    +0.050 A 
ATOM      6  C   LIG A   1      -4.176   2.803 126.797  0.00  0.00    +0.019 A 
ENDROOT
BRANCH   1  16
ATOM      7  O   LIG A   1      -8.208   1.270 123.256  0.00  0.00    -0.283 OA
ATOM      8  C   LIG A   1      -7.779   1.191 124.352  0.00  0.00    +0.238 A 
ATOM      9  C   LIG A   1      -7.934  -0.061 125.094  0.00  0.00    +0.113 A 
ATOM     10  C   LIG A   1      -8.794  -1.049 124.628  0.00  0.00    +0.177 A 
ATOM     11  C   LIG A   1      -9.065  -2.158 125.435  0.00  0.00    +0.202 A 
ATOM     12  C   LIG A   1      -8.449  -2.288 126.687  0.00  0.00    +0.169 A 
ATOM     13  C   LIG A   1      -7.531  -1.306 127.089  0.00  0.00    +0.096 A 
ATOM     14  C   LIG A   1      -7.284  -0.188 126.292  0.00  0.00    +0.147 A 
ATOM     15  O   LIG A   1      -6.418   0.761 126.762  0.00  0.00    -0.451 OA
ATOM     16  C   LIG A   1      -6.444   2.095 126.232  0.00  0.00    +0.184 A 
ATOM     17  C   LIG A   1      -7.087   2.340 125.050  0.00  0.00    +0.211 A 
BRANCH  11  18
ATOM     18  O   LIG A   1      -9.936  -3.096 124.946  0.00  0.00    -0.501 OA
ATOM     19  H   LIG A   1      -9.857  -3.027 123.969  0.00  0.00    +0.292 HD
ENDBRANCH  11  18
BRANCH  17  20
ATOM     20  O   LIG A   1      -7.133   3.418 124.182  0.00  0.00    -0.488 OA
ATOM     21  C   LIG A   1      -5.965   3.904 123.592  0.00  0.00    +0.277 C 
ENDBRANCH  17  20
BRANCH  12  22
ATOM     22  O   LIG A   1      -8.785  -3.349 127.491  0.00  0.00    -0.491 OA
ATOM     23  C   LIG A   1      -8.321  -3.248 128.839  0.00  0.00    +0.277 C 
ENDBRANCH  12  22
BRANCH  10  24
ATOM     24  O   LIG A   1      -9.434  -0.986 123.413  0.00  0.00    -0.503 OA
ATOM     25  H   LIG A   1      -9.555  -0.025 123.192  0.00  0.00    +0.292 HD
ENDBRANCH  10  24
ENDBRANCH   1  16
BRANCH   4  26
ATOM     26  O   LIG A   1      -2.457   4.967 129.121  0.00  0.00    -0.491 OA
ATOM     27  C   LIG A   1      -2.387   6.225 128.436  0.00  0.00    +0.277 C 
ENDBRANCH   4  26
BRANCH   2  28
ATOM     28  O   LIG A   1      -6.920   4.755 128.368  0.00  0.00    -0.452 OA
BRANCH  28  29
ATOM     29  C   LIG A   1      -8.067   4.316 128.965  0.00  0.00    +0.129 A 
ATOM     30  C   LIG A   1      -9.030   5.156 129.445  0.00  0.00    +0.046 A 
ATOM     31  C   LIG A   1      -9.797   4.933 130.532  0.00  0.00    +0.004 A 
ATOM     32  C   LIG A   1      -9.835   3.626 130.904  0.00  0.00    +0.000 A 
ATOM     33  C   LIG A   1      -9.315   2.657 130.020  0.00  0.00    +0.004 A 
ATOM     34  C   LIG A   1      -8.461   3.013 128.973  0.00  0.00    +0.046 A 
ENDBRANCH  28  29
ENDBRANCH   2  28
BRANCH   3  35
ATOM     35  O   LIG A   1      -4.830   4.312 130.619  0.00  0.00    -0.449 OA
BRANCH  35  36
ATOM     36  C   LIG A   1      -5.778   3.822 131.513  0.00  0.00    +0.129 A 
ATOM     37  C   LIG A   1      -6.492   4.648 132.331  0.00  0.00    +0.046 A 
ATOM     38  C   LIG A   1      -7.234   4.303 133.453  0.00  0.00    +0.004 A 
ATOM     39  C   LIG A   1      -7.436   2.979 133.719  0.00  0.00    +0.000 A 
ATOM     40  C   LIG A   1      -6.888   2.054 132.830  0.00  0.00    +0.004 A 
ATOM     41  C   LIG A   1      -6.056   2.464 131.735  0.00  0.00    +0.046 A 
ENDBRANCH  35  36
ENDBRANCH   3  35
TORSDOF 10
ENDMDL
MODEL 7
REMARK VINA RESULT:      -8.3      2.760      3.658
REMARK  Name = NuBBE_1877
REMARK  13 active torsions:
REMARK  status: ('A' for Active; 'I' for Inactive)
REMARK    1  A    between atoms: C_4  and  O_39
REMARK    2  A    between atoms: C_5  and  O_6
REMARK    3  A    between atoms: C_7  and  O_37
REMARK    4  A    between atoms: C_11  and  C_12
REMARK    5  A    between atoms: C_13  and  O_14
REMARK    6  A    between atoms: O_14  and  C_15
REMARK    7  A    between atoms: C_21  and  O_22
REMARK    8  A    between atoms: O_22  and  C_23
REMARK    9  A    between atoms: C_29  and  O_32
REMARK   10  A    between atoms: O_32  and  C_33
REMARK   11  A    between atoms: C_34  and  O_35
REMARK   12  A    between atoms: O_35  and  C_36
REMARK   13  A    between atoms: O_37  and  C_38
REMARK                            x       y       z     vdW  Elec       q    Type
REMARK                         _______ _______ _______ _____ _____    ______ ____
ROOT
ATOM      1  C   LIG A   1      -7.386   1.170 128.613  0.00  0.00    +0.067 A 
ATOM      2  C   LIG A   1      -6.100   0.556 128.316  0.00  0.00    +0.185 A 
ATOM      3  C   LIG A   1      -6.019  -0.499 127.362  0.00  0.00    +0.212 A 
ATOM      4  C   LIG A   1      -6.897  -0.343 126.280  0.00  0.00    +0.166 A 
ATOM      5  C   LIG A   1      -8.096   0.364 126.428  0.00  0.00    +0.050 A 
ATOM      6  C   LIG A   1      -8.350   1.068 127.596  0.00  0.00    +0.019 A 
ENDROOT
BRANCH   1  16
ATOM      7  O   LIG A   1      -8.764   2.247 133.309  0.00  0.00    -0.283 OA
ATOM      8  C   LIG A   1      -8.669   2.498 132.160  0.00  0.00    +0.238 A 
ATOM      9  C   LIG A   1      -8.987   3.847 131.692  0.00  0.00    +0.113 A 
ATOM     10  C   LIG A   1      -9.638   4.744 132.531  0.00  0.00    +0.177 A 
ATOM     11  C   LIG A   1     -10.090   5.962 132.014  0.00  0.00    +0.202 A 
ATOM     12  C   LIG A   1      -9.859   6.288 130.671  0.00  0.00    +0.169 A 
ATOM     13  C   LIG A   1      -9.133   5.388 129.876  0.00  0.00    +0.096 A 
ATOM     14  C   LIG A   1      -8.707   4.163 130.390  0.00  0.00    +0.147 A 
ATOM     15  O   LIG A   1      -8.049   3.305 129.551  0.00  0.00    -0.451 OA
ATOM     16  C   LIG A   1      -7.970   1.906 129.859  0.00  0.00    +0.184 A 
ATOM     17  C   LIG A   1      -8.251   1.475 131.127  0.00  0.00    +0.211 A 
BRANCH  11  18
ATOM     18  O   LIG A   1     -10.747   6.806 132.870  0.00  0.00    -0.501 OA
ATOM     19  H   LIG A   1     -11.407   6.238 133.325  0.00  0.00    +0.292 HD
ENDBRANCH  11  18
BRANCH  17  20
ATOM     20  O   LIG A   1      -8.083   0.277 131.799  0.00  0.00    -0.488 OA
ATOM     21  C   LIG A   1      -6.819  -0.309 131.899  0.00  0.00    +0.277 C 
ENDBRANCH  17  20
BRANCH  12  22
ATOM     22  O   LIG A   1     -10.374   7.457 130.167  0.00  0.00    -0.491 OA
ATOM     23  C   LIG A   1     -11.584   7.305 129.421  0.00  0.00    +0.277 C 
ENDBRANCH  12  22
BRANCH  10  24
ATOM     24  O   LIG A   1      -9.900   4.490 133.856  0.00  0.00    -0.503 OA
ATOM     25  H   LIG A   1     -10.540   3.731 133.890  0.00  0.00    +0.292 HD
ENDBRANCH  10  24
ENDBRANCH   1  16
BRANCH   4  26
ATOM     26  O   LIG A   1      -6.616  -0.729 124.989  0.00  0.00    -0.491 OA
ATOM     27  C   LIG A   1      -7.601  -1.613 124.434  0.00  0.00    +0.277 C 
ENDBRANCH   4  26
BRANCH   2  28
ATOM     28  O   LIG A   1      -4.828   0.998 128.777  0.00  0.00    -0.452 OA
BRANCH  28  29
ATOM     29  C   LIG A   1      -4.287   2.182 128.363  0.00  0.00    +0.129 A 
ATOM     30  C   LIG A   1      -4.069   2.487 127.051  0.00  0.00    +0.046 A 
ATOM     31  C   LIG A   1      -3.046   3.227 126.576  0.00  0.00    +0.004 A 
ATOM     32  C   LIG A   1      -2.452   3.998 127.525  0.00  0.00    +0.000 A 
ATOM     33  C   LIG A   1      -3.089   4.136 128.777  0.00  0.00    +0.004 A 
ATOM     34  C   LIG A   1      -4.088   3.247 129.186  0.00  0.00    +0.046 A 
ENDBRANCH  28  29
ENDBRANCH   2  28
BRANCH   3  35
ATOM     35  O   LIG A   1      -5.270  -1.715 127.338  0.00  0.00    -0.449 OA
BRANCH  35  36
ATOM     36  C   LIG A   1      -5.137  -2.676 128.338  0.00  0.00    +0.129 A 
ATOM     37  C   LIG A   1      -6.213  -3.153 129.026  0.00  0.00    +0.046 A 
ATOM     38  C   LIG A   1      -6.213  -3.867 130.218  0.00  0.00    +0.004 A 
ATOM     39  C   LIG A   1      -5.020  -4.305 130.716  0.00  0.00    +0.000 A 
ATOM     40  C   LIG A   1      -3.871  -4.014 129.981  0.00  0.00    +0.004 A 
ATOM     41  C   LIG A   1      -3.919  -3.198 128.802  0.00  0.00    +0.046 A 
ENDBRANCH  35  36
ENDBRANCH   3  35
TORSDOF 10
ENDMDL
MODEL 8
REMARK VINA RESULT:      -8.1      4.220      8.719
REMARK  Name = NuBBE_1877
REMARK  13 active torsions:
REMARK  status: ('A' for Active; 'I' for Inactive)
REMARK    1  A    between atoms: C_4  and  O_39
REMARK    2  A    between atoms: C_5  and  O_6
REMARK    3  A    between atoms: C_7  and  O_37
REMARK    4  A    between atoms: C_11  and  C_12
REMARK    5  A    between atoms: C_13  and  O_14
REMARK    6  A    between atoms: O_14  and  C_15
REMARK    7  A    between atoms: C_21  and  O_22
REMARK    8  A    between atoms: O_22  and  C_23
REMARK    9  A    between atoms: C_29  and  O_32
REMARK   10  A    between atoms: O_32  and  C_33
REMARK   11  A    between atoms: C_34  and  O_35
REMARK   12  A    between atoms: O_35  and  C_36
REMARK   13  A    between atoms: O_37  and  C_38
REMARK                            x       y       z     vdW  Elec       q    Type
REMARK                         _______ _______ _______ _____ _____    ______ ____
ROOT
ATOM      1  C   LIG A   1      -5.399   3.430 131.251  0.00  0.00    +0.067 A 
ATOM      2  C   LIG A   1      -6.393   4.212 130.529  0.00  0.00    +0.185 A 
ATOM      3  C   LIG A   1      -6.226   5.621 130.392  0.00  0.00    +0.212 A 
ATOM      4  C   LIG A   1      -4.889   6.012 130.228  0.00  0.00    +0.166 A 
ATOM      5  C   LIG A   1      -3.848   5.241 130.758  0.00  0.00    +0.050 A 
ATOM      6  C   LIG A   1      -4.112   3.992 131.302  0.00  0.00    +0.019 A 
ENDROOT
BRANCH   1  16
ATOM      7  O   LIG A   1      -6.436  -0.040 134.715  0.00  0.00    -0.283 OA
ATOM      8  C   LIG A   1      -5.929   0.324 133.713  0.00  0.00    +0.238 A 
ATOM      9  C   LIG A   1      -5.309  -0.660 132.825  0.00  0.00    +0.113 A 
ATOM     10  C   LIG A   1      -5.085  -1.959 133.266  0.00  0.00    +0.177 A 
ATOM     11  C   LIG A   1      -4.335  -2.832 132.473  0.00  0.00    +0.202 A 
ATOM     12  C   LIG A   1      -3.844  -2.412 131.230  0.00  0.00    +0.169 A 
ATOM     13  C   LIG A   1      -4.155  -1.117 130.787  0.00  0.00    +0.096 A 
ATOM     14  C   LIG A   1      -4.881  -0.241 131.594  0.00  0.00    +0.147 A 
ATOM     15  O   LIG A   1      -5.108   1.026 131.129  0.00  0.00    -0.451 OA
ATOM     16  C   LIG A   1      -5.447   2.083 132.038  0.00  0.00    +0.184 A 
ATOM     17  C   LIG A   1      -5.867   1.779 133.304  0.00  0.00    +0.211 A 
BRANCH  11  18
ATOM     18  O   LIG A   1      -4.118  -4.095 132.957  0.00  0.00    -0.501 OA
ATOM     19  H   LIG A   1      -5.007  -4.418 133.225  0.00  0.00    +0.292 HD
ENDBRANCH  11  18
BRANCH  17  20
ATOM     20  O   LIG A   1      -6.445   2.505 134.331  0.00  0.00    -0.488 OA
ATOM     21  C   LIG A   1      -7.380   3.505 134.053  0.00  0.00    +0.277 C 
ENDBRANCH  17  20
BRANCH  12  22
ATOM     22  O   LIG A   1      -3.051  -3.264 130.500  0.00  0.00    -0.491 OA
ATOM     23  C   LIG A   1      -3.531  -3.549 129.185  0.00  0.00    +0.277 C 
ENDBRANCH  12  22
BRANCH  10  24
ATOM     24  O   LIG A   1      -5.534  -2.437 134.474  0.00  0.00    -0.503 OA
ATOM     25  H   LIG A   1      -6.525  -2.366 134.469  0.00  0.00    +0.292 HD
ENDBRANCH  10  24
ENDBRANCH   1  16
BRANCH   4  26
ATOM     26  O   LIG A   1      -4.479   7.067 129.445  0.00  0.00    -0.491 OA
ATOM     27  C   LIG A   1      -3.852   8.119 130.192  0.00  0.00    +0.277 C 
ENDBRANCH   4  26
BRANCH   2  28
ATOM     28  O   LIG A   1      -7.492   3.699 129.785  0.00  0.00    -0.452 OA
BRANCH  28  29
ATOM     29  C   LIG A   1      -8.222   2.633 130.227  0.00  0.00    +0.129 A 
ATOM     30  C   LIG A   1      -9.324   2.758 131.022  0.00  0.00    +0.046 A 
ATOM     31  C   LIG A   1      -9.702   1.890 131.983  0.00  0.00    +0.004 A 
ATOM     32  C   LIG A   1      -9.137   0.661 131.852  0.00  0.00    +0.000 A 
ATOM     33  C   LIG A   1      -8.458   0.355 130.653  0.00  0.00    +0.004 A 
ATOM     34  C   LIG A   1      -8.047   1.362 129.774  0.00  0.00    +0.046 A 
ENDBRANCH  28  29
ENDBRANCH   2  28
BRANCH   3  35
ATOM     35  O   LIG A   1      -7.150   6.708 130.464  0.00  0.00    -0.449 OA
BRANCH  35  36
ATOM     36  C   LIG A   1      -8.470   6.700 130.909  0.00  0.00    +0.129 A 
ATOM     37  C   LIG A   1      -8.808   6.259 132.155  0.00  0.00    +0.046 A 
ATOM     38  C   LIG A   1     -10.071   5.918 132.623  0.00  0.00    +0.004 A 
ATOM     39  C   LIG A   1     -11.154   6.190 131.837  0.00  0.00    +0.000 A 
ATOM     40  C   LIG A   1     -10.918   6.809 130.610  0.00  0.00    +0.004 A 
ATOM     41  C   LIG A   1      -9.586   7.059 130.137  0.00  0.00    +0.046 A 
ENDBRANCH  35  36
ENDBRANCH   3  35
TORSDOF 10
ENDMDL
MODEL 9
REMARK VINA RESULT:      -8.0      4.157      7.155
REMARK  Name = NuBBE_1877
REMARK  13 active torsions:
REMARK  status: ('A' for Active; 'I' for Inactive)
REMARK    1  A    between atoms: C_4  and  O_39
REMARK    2  A    between atoms: C_5  and  O_6
REMARK    3  A    between atoms: C_7  and  O_37
REMARK    4  A    between atoms: C_11  and  C_12
REMARK    5  A    between atoms: C_13  and  O_14
REMARK    6  A    between atoms: O_14  and  C_15
REMARK    7  A    between atoms: C_21  and  O_22
REMARK    8  A    between atoms: O_22  and  C_23
REMARK    9  A    between atoms: C_29  and  O_32
REMARK   10  A    between atoms: O_32  and  C_33
REMARK   11  A    between atoms: C_34  and  O_35
REMARK   12  A    between atoms: O_35  and  C_36
REMARK   13  A    between atoms: O_37  and  C_38
REMARK                            x       y       z     vdW  Elec       q    Type
REMARK                         _______ _______ _______ _____ _____    ______ ____
ROOT
ATOM      1  C   LIG A   1      -4.629  -0.044 131.366  0.00  0.00    +0.067 A 
ATOM      2  C   LIG A   1      -5.863  -0.721 131.737  0.00  0.00    +0.185 A 
ATOM      3  C   LIG A   1      -6.152  -2.013 131.208  0.00  0.00    +0.212 A 
ATOM      4  C   LIG A   1      -5.017  -2.824 131.064  0.00  0.00    +0.166 A 
ATOM      5  C   LIG A   1      -3.755  -2.257 130.854  0.00  0.00    +0.050 A 
ATOM      6  C   LIG A   1      -3.581  -0.885 130.958  0.00  0.00    +0.019 A 
ENDROOT
BRANCH   1  16
ATOM      7  O   LIG A   1      -2.579   4.406 132.422  0.00  0.00    -0.283 OA
ATOM      8  C   LIG A   1      -3.211   3.676 131.743  0.00  0.00    +0.238 A 
ATOM      9  C   LIG A   1      -3.608   4.108 130.403  0.00  0.00    +0.113 A 
ATOM     10  C   LIG A   1      -3.476   5.441 130.029  0.00  0.00    +0.177 A 
ATOM     11  C   LIG A   1      -4.022   5.869 128.816  0.00  0.00    +0.202 A 
ATOM     12  C   LIG A   1      -4.665   4.956 127.969  0.00  0.00    +0.169 A 
ATOM     13  C   LIG A   1      -4.712   3.606 128.349  0.00  0.00    +0.096 A 
ATOM     14  C   LIG A   1      -4.190   3.189 129.573  0.00  0.00    +0.147 A 
ATOM     15  O   LIG A   1      -4.312   1.868 129.910  0.00  0.00    -0.451 OA
ATOM     16  C   LIG A   1      -4.204   1.455 131.280  0.00  0.00    +0.184 A 
ATOM     17  C   LIG A   1      -3.657   2.306 132.201  0.00  0.00    +0.211 A 
BRANCH  11  18
ATOM     18  O   LIG A   1      -3.889   7.195 128.497  0.00  0.00    -0.501 OA
ATOM     19  H   LIG A   1      -4.353   7.295 127.637  0.00  0.00    +0.292 HD
ENDBRANCH  11  18
BRANCH  17  20
ATOM     20  O   LIG A   1      -3.229   2.165 133.510  0.00  0.00    -0.488 OA
ATOM     21  C   LIG A   1      -4.139   1.865 134.526  0.00  0.00    +0.277 C 
ENDBRANCH  17  20
BRANCH  12  22
ATOM     22  O   LIG A   1      -5.255   5.413 126.816  0.00  0.00    -0.491 OA
ATOM     23  C   LIG A   1      -5.862   4.399 126.012  0.00  0.00    +0.277 C 
ENDBRANCH  12  22
BRANCH  10  24
ATOM     24  O   LIG A   1      -2.860   6.390 130.810  0.00  0.00    -0.503 OA
ATOM     25  H   LIG A   1      -2.041   6.682 130.328  0.00  0.00    +0.292 HD
ENDBRANCH  10  24
ENDBRANCH   1  16
BRANCH   4  26
ATOM     26  O   LIG A   1      -5.009  -4.188 131.248  0.00  0.00    -0.491 OA
ATOM     27  C   LIG A   1      -4.480  -4.586 132.520  0.00  0.00    +0.277 C 
ENDBRANCH   4  26
BRANCH   2  28
ATOM     28  O   LIG A   1      -6.797  -0.294 132.723  0.00  0.00    -0.452 OA
BRANCH  28  29
ATOM     29  C   LIG A   1      -7.659   0.740 132.494  0.00  0.00    +0.129 A 
ATOM     30  C   LIG A   1      -7.431   2.014 132.926  0.00  0.00    +0.046 A 
ATOM     31  C   LIG A   1      -8.376   2.888 133.329  0.00  0.00    +0.004 A 
ATOM     32  C   LIG A   1      -9.626   2.564 132.903  0.00  0.00    +0.000 A 
ATOM     33  C   LIG A   1      -9.765   1.556 131.924  0.00  0.00    +0.004 A 
ATOM     34  C   LIG A   1      -8.728   0.657 131.656  0.00  0.00    +0.046 A 
ENDBRANCH  28  29
ENDBRANCH   2  28
BRANCH   3  35
ATOM     35  O   LIG A   1      -7.361  -2.606 130.730  0.00  0.00    -0.449 OA
BRANCH  35  36
ATOM     36  C   LIG A   1      -7.881  -2.602 129.438  0.00  0.00    +0.129 A 
ATOM     37  C   LIG A   1      -8.644  -3.630 128.965  0.00  0.00    +0.046 A 
ATOM     38  C   LIG A   1      -8.975  -3.907 127.645  0.00  0.00    +0.004 A 
ATOM     39  C   LIG A   1      -8.660  -2.987 126.687  0.00  0.00    +0.000 A 
ATOM     40  C   LIG A   1      -8.031  -1.814 127.104  0.00  0.00    +0.004 A 
ATOM     41  C   LIG A   1      -7.633  -1.618 128.469  0.00  0.00    +0.046 A 
ENDBRANCH  35  36
ENDBRANCH   3  35
TORSDOF 10
ENDMDL
