MODEL 1
REMARK VINA RESULT:      -7.9      0.000      0.000
REMARK  Name = NuBBE_1763
REMARK  8 active torsions:
REMARK  status: ('A' for Active; 'I' for Inactive)
REMARK    1  A    between atoms: C_1  and  C_2
REMARK    2  A    between atoms: C_1  and  C_4
REMARK    3  A    between atoms: C_6  and  O_7
REMARK    4  A    between atoms: O_7  and  C_8
REMARK    5  A    between atoms: C_11  and  O_14
REMARK    6  A    between atoms: O_14  and  C_15
REMARK    7  A    between atoms: C_17  and  C_22
REMARK    8  A    between atoms: C_19  and  C_21
REMARK                            x       y       z     vdW  Elec       q    Type
REMARK                         _______ _______ _______ _____ _____    ______ ____
ROOT
ATOM      1  C   LIG A   1      -7.541  -0.144 124.338  0.00  0.00    +0.044 C 
ATOM      2  C   LIG A   1      -6.527   0.680 125.077  0.00  0.00    +0.150 C 
ATOM      3  C   LIG A   1      -5.906   0.347 126.218  0.00  0.00    +0.203 C 
ATOM      4  C   LIG A   1      -6.355  -0.949 126.855  0.00  0.00    +0.229 C 
ATOM      5  O   LIG A   1      -5.601  -1.619 127.549  0.00  0.00    -0.286 OA
ATOM      6  C   LIG A   1      -7.846  -1.302 126.632  0.00  0.00    +0.193 C 
ATOM      7  C   LIG A   1      -8.148  -1.312 125.137  0.00  0.00    +0.055 C 
ATOM      8  O   LIG A   1      -6.344   1.909 124.459  0.00  0.00    -0.484 OA
ATOM      9  C   LIG A   1      -7.624   2.250 123.880  0.00  0.00    +0.207 C 
ATOM     10  C   LIG A   1      -8.530   0.991 123.981  0.00  0.00    +0.045 C 
ATOM     11  C   LIG A   1      -9.628   1.272 125.024  0.00  0.00    +0.012 C 
ENDROOT
BRANCH   9  12
ATOM     12  C   LIG A   1      -7.532   2.871 122.493  0.00  0.00    -0.003 A 
ATOM     13  C   LIG A   1      -6.314   3.326 121.960  0.00  0.00    +0.056 A 
ATOM     14  C   LIG A   1      -6.334   3.989 120.747  0.00  0.00    +0.167 A 
ATOM     15  C   LIG A   1      -7.500   4.207 120.054  0.00  0.00    +0.166 A 
ATOM     16  C   LIG A   1      -8.714   3.767 120.528  0.00  0.00    +0.050 A 
ATOM     17  C   LIG A   1      -8.727   3.100 121.758  0.00  0.00    +0.011 A 
ATOM     18  O   LIG A   1      -7.303   4.900 118.901  0.00  0.00    -0.453 OA
ATOM     19  C   LIG A   1      -5.878   5.117 118.957  0.00  0.00    +0.466 C 
ATOM     20  O   LIG A   1      -5.253   4.520 120.113  0.00  0.00    -0.453 OA
ENDBRANCH   9  12
BRANCH   3  21
ATOM     21  O   LIG A   1      -4.951   1.191 126.761  0.00  0.00    -0.489 OA
ATOM     22  C   LIG A   1      -5.349   1.992 127.866  0.00  0.00    +0.277 C 
ENDBRANCH   3  21
BRANCH   6  23
ATOM     23  O   LIG A   1      -8.191  -2.562 127.221  0.00  0.00    -0.372 OA
ATOM     24  C   LIG A   1      -8.650  -3.536 126.291  0.00  0.00    +0.195 C 
ENDBRANCH   6  23
BRANCH   1  25
ATOM     25  C   LIG A   1      -6.887  -0.729 123.041  0.00  0.00    +0.041 C 
BRANCH  25  26
ATOM     26  C   LIG A   1      -6.488  -2.186 123.146  0.00  0.00    -0.034 C 
ATOM     27  C   LIG A   1      -5.286  -2.612 123.555  0.00  0.00    +0.004 C 
ENDBRANCH  25  26
ENDBRANCH   1  25
TORSDOF 5
ENDMDL
MODEL 2
REMARK VINA RESULT:      -7.6      2.968      6.094
REMARK  Name = NuBBE_1763
REMARK  8 active torsions:
REMARK  status: ('A' for Active; 'I' for Inactive)
REMARK    1  A    between atoms: C_1  and  C_2
REMARK    2  A    between atoms: C_1  and  C_4
REMARK    3  A    between atoms: C_6  and  O_7
REMARK    4  A    between atoms: O_7  and  C_8
REMARK    5  A    between atoms: C_11  and  O_14
REMARK    6  A    between atoms: O_14  and  C_15
REMARK    7  A    between atoms: C_17  and  C_22
REMARK    8  A    between atoms: C_19  and  C_21
REMARK                            x       y       z     vdW  Elec       q    Type
REMARK                         _______ _______ _______ _____ _____    ______ ____
ROOT
ATOM      1  C   LIG A   1      -7.456   1.347 126.640  0.00  0.00    +0.044 C 
ATOM      2  C   LIG A   1      -7.744   2.246 125.473  0.00  0.00    +0.150 C 
ATOM      3  C   LIG A   1      -8.780   2.150 124.627  0.00  0.00    +0.203 C 
ATOM      4  C   LIG A   1      -9.685   0.957 124.832  0.00  0.00    +0.229 C 
ATOM      5  O   LIG A   1     -10.870   0.989 124.527  0.00  0.00    -0.286 OA
ATOM      6  C   LIG A   1      -8.978  -0.313 125.365  0.00  0.00    +0.193 C 
ATOM      7  C   LIG A   1      -8.239   0.022 126.657  0.00  0.00    +0.055 C 
ATOM      8  O   LIG A   1      -6.737   3.190 125.315  0.00  0.00    -0.484 OA
ATOM      9  C   LIG A   1      -5.523   2.541 125.756  0.00  0.00    +0.207 C 
ATOM     10  C   LIG A   1      -5.929   1.206 126.439  0.00  0.00    +0.045 C 
ATOM     11  C   LIG A   1      -5.480   0.046 125.530  0.00  0.00    +0.012 C 
ENDROOT
BRANCH   9  12
ATOM     12  C   LIG A   1      -4.605   3.436 126.578  0.00  0.00    -0.003 A 
ATOM     13  C   LIG A   1      -4.962   4.749 126.928  0.00  0.00    +0.056 A 
ATOM     14  C   LIG A   1      -4.025   5.538 127.569  0.00  0.00    +0.167 A 
ATOM     15  C   LIG A   1      -2.768   5.073 127.875  0.00  0.00    +0.166 A 
ATOM     16  C   LIG A   1      -2.378   3.791 127.567  0.00  0.00    +0.050 A 
ATOM     17  C   LIG A   1      -3.303   2.972 126.909  0.00  0.00    +0.011 A 
ATOM     18  O   LIG A   1      -1.994   6.014 128.477  0.00  0.00    -0.453 OA
ATOM     19  C   LIG A   1      -2.900   7.137 128.496  0.00  0.00    +0.466 C 
ATOM     20  O   LIG A   1      -4.199   6.835 127.943  0.00  0.00    -0.453 OA
ENDBRANCH   9  12
BRANCH   3  21
ATOM     21  O   LIG A   1      -8.943   3.087 123.620  0.00  0.00    -0.489 OA
ATOM     22  C   LIG A   1      -8.639   2.671 122.295  0.00  0.00    +0.277 C 
ENDBRANCH   3  21
BRANCH   6  23
ATOM     23  O   LIG A   1      -9.899  -1.388 125.581  0.00  0.00    -0.372 OA
ATOM     24  C   LIG A   1      -9.288  -2.666 125.717  0.00  0.00    +0.195 C 
ENDBRANCH   6  23
BRANCH   1  25
ATOM     25  C   LIG A   1      -7.766   2.114 127.971  0.00  0.00    +0.041 C 
BRANCH  25  26
ATOM     26  C   LIG A   1      -6.851   1.757 129.123  0.00  0.00    -0.034 C 
ATOM     27  C   LIG A   1      -6.181   2.653 129.860  0.00  0.00    +0.004 C 
ENDBRANCH  25  26
ENDBRANCH   1  25
TORSDOF 5
ENDMDL
MODEL 3
REMARK VINA RESULT:      -7.2      7.790      9.245
REMARK  Name = NuBBE_1763
REMARK  8 active torsions:
REMARK  status: ('A' for Active; 'I' for Inactive)
REMARK    1  A    between atoms: C_1  and  C_2
REMARK    2  A    between atoms: C_1  and  C_4
REMARK    3  A    between atoms: C_6  and  O_7
REMARK    4  A    between atoms: O_7  and  C_8
REMARK    5  A    between atoms: C_11  and  O_14
REMARK    6  A    between atoms: O_14  and  C_15
REMARK    7  A    between atoms: C_17  and  C_22
REMARK    8  A    between atoms: C_19  and  C_21
REMARK                            x       y       z     vdW  Elec       q    Type
REMARK                         _______ _______ _______ _____ _____    ______ ____
ROOT
ATOM      1  C   LIG A   1      -7.364   4.128 131.270  0.00  0.00    +0.044 C 
ATOM      2  C   LIG A   1      -6.601   5.005 130.320  0.00  0.00    +0.150 C 
ATOM      3  C   LIG A   1      -5.333   4.831 129.916  0.00  0.00    +0.203 C 
ATOM      4  C   LIG A   1      -4.590   3.685 130.565  0.00  0.00    +0.229 C 
ATOM      5  O   LIG A   1      -3.684   3.098 129.988  0.00  0.00    -0.286 OA
ATOM      6  C   LIG A   1      -5.004   3.384 132.026  0.00  0.00    +0.193 C 
ATOM      7  C   LIG A   1      -6.509   3.144 132.089  0.00  0.00    +0.055 C 
ATOM      8  O   LIG A   1      -7.360   6.103 129.941  0.00  0.00    -0.484 OA
ATOM      9  C   LIG A   1      -8.192   6.414 131.082  0.00  0.00    +0.207 C 
ATOM     10  C   LIG A   1      -8.054   5.242 132.093  0.00  0.00    +0.045 C 
ATOM     11  C   LIG A   1      -7.267   5.753 133.315  0.00  0.00    +0.012 C 
ENDROOT
BRANCH   9  12
ATOM     12  C   LIG A   1      -9.623   6.791 130.722  0.00  0.00    -0.003 A 
ATOM     13  C   LIG A   1      -9.926   7.574 129.594  0.00  0.00    +0.056 A 
ATOM     14  C   LIG A   1     -11.235   7.976 129.404  0.00  0.00    +0.167 A 
ATOM     15  C   LIG A   1     -12.238   7.630 130.278  0.00  0.00    +0.166 A 
ATOM     16  C   LIG A   1     -11.993   6.853 131.386  0.00  0.00    +0.050 A 
ATOM     17  C   LIG A   1     -10.675   6.438 131.609  0.00  0.00    +0.011 A 
ATOM     18  O   LIG A   1     -13.443   8.150 129.924  0.00  0.00    -0.453 OA
ATOM     19  C   LIG A   1     -13.081   8.886 128.738  0.00  0.00    +0.466 C 
ATOM     20  O   LIG A   1     -11.687   8.760 128.388  0.00  0.00    -0.453 OA
ENDBRANCH   9  12
BRANCH   3  21
ATOM     21  O   LIG A   1      -4.774   5.698 128.992  0.00  0.00    -0.489 OA
ATOM     22  C   LIG A   1      -3.852   6.661 129.486  0.00  0.00    +0.277 C 
ENDBRANCH   3  21
BRANCH   6  23
ATOM     23  O   LIG A   1      -4.296   2.260 132.562  0.00  0.00    -0.372 OA
ATOM     24  C   LIG A   1      -3.239   2.603 133.451  0.00  0.00    +0.195 C 
ENDBRANCH   6  23
BRANCH   1  25
ATOM     25  C   LIG A   1      -8.427   3.301 130.469  0.00  0.00    +0.041 C 
BRANCH  25  26
ATOM     26  C   LIG A   1      -9.682   2.975 131.250  0.00  0.00    -0.034 C 
ATOM     27  C   LIG A   1      -9.878   1.832 131.919  0.00  0.00    +0.004 C 
ENDBRANCH  25  26
ENDBRANCH   1  25
TORSDOF 5
ENDMDL
MODEL 4
REMARK VINA RESULT:      -7.0      3.552      5.493
REMARK  Name = NuBBE_1763
REMARK  8 active torsions:
REMARK  status: ('A' for Active; 'I' for Inactive)
REMARK    1  A    between atoms: C_1  and  C_2
REMARK    2  A    between atoms: C_1  and  C_4
REMARK    3  A    between atoms: C_6  and  O_7
REMARK    4  A    between atoms: O_7  and  C_8
REMARK    5  A    between atoms: C_11  and  O_14
REMARK    6  A    between atoms: O_14  and  C_15
REMARK    7  A    between atoms: C_17  and  C_22
REMARK    8  A    between atoms: C_19  and  C_21
REMARK                            x       y       z     vdW  Elec       q    Type
REMARK                         _______ _______ _______ _____ _____    ______ ____
ROOT
ATOM      1  C   LIG A   1      -7.597  -0.149 126.651  0.00  0.00    +0.044 C 
ATOM      2  C   LIG A   1      -7.289  -0.207 125.184  0.00  0.00    +0.150 C 
ATOM      3  C   LIG A   1      -7.787  -1.082 124.297  0.00  0.00    +0.203 C 
ATOM      4  C   LIG A   1      -8.674  -2.163 124.871  0.00  0.00    +0.229 C 
ATOM      5  O   LIG A   1      -9.565  -2.682 124.210  0.00  0.00    -0.286 OA
ATOM      6  C   LIG A   1      -8.308  -2.613 126.306  0.00  0.00    +0.193 C 
ATOM      7  C   LIG A   1      -8.286  -1.398 127.229  0.00  0.00    +0.055 C 
ATOM      8  O   LIG A   1      -6.335   0.741 124.840  0.00  0.00    -0.484 OA
ATOM      9  C   LIG A   1      -5.482   0.873 125.999  0.00  0.00    +0.207 C 
ATOM     10  C   LIG A   1      -6.163   0.109 127.169  0.00  0.00    +0.045 C 
ATOM     11  C   LIG A   1      -5.326  -1.149 127.471  0.00  0.00    +0.012 C 
ENDROOT
BRANCH   9  12
ATOM     12  C   LIG A   1      -5.079   2.308 126.312  0.00  0.00    -0.003 A 
ATOM     13  C   LIG A   1      -4.088   2.614 127.261  0.00  0.00    +0.056 A 
ATOM     14  C   LIG A   1      -3.867   3.942 127.578  0.00  0.00    +0.167 A 
ATOM     15  C   LIG A   1      -4.580   4.959 126.991  0.00  0.00    +0.166 A 
ATOM     16  C   LIG A   1      -5.548   4.710 126.046  0.00  0.00    +0.050 A 
ATOM     17  C   LIG A   1      -5.800   3.375 125.712  0.00  0.00    +0.011 A 
ATOM     18  O   LIG A   1      -4.228   6.185 127.462  0.00  0.00    -0.453 OA
ATOM     19  C   LIG A   1      -3.225   5.822 128.433  0.00  0.00    +0.466 C 
ATOM     20  O   LIG A   1      -2.973   4.402 128.495  0.00  0.00    -0.453 OA
ENDBRANCH   9  12
BRANCH   3  21
ATOM     21  O   LIG A   1      -7.447  -0.983 122.957  0.00  0.00    -0.489 OA
ATOM     22  C   LIG A   1      -6.442  -1.867 122.479  0.00  0.00    +0.277 C 
ENDBRANCH   3  21
BRANCH   6  23
ATOM     23  O   LIG A   1      -9.215  -3.603 126.805  0.00  0.00    -0.372 OA
ATOM     24  C   LIG A   1      -8.946  -4.028 128.136  0.00  0.00    +0.195 C 
ENDBRANCH   6  23
BRANCH   1  25
ATOM     25  C   LIG A   1      -8.514   1.089 126.937  0.00  0.00    +0.041 C 
BRANCH  25  26
ATOM     26  C   LIG A   1      -8.383   1.653 128.336  0.00  0.00    -0.034 C 
ATOM     27  C   LIG A   1      -8.039   2.918 128.610  0.00  0.00    +0.004 C 
ENDBRANCH  25  26
ENDBRANCH   1  25
TORSDOF 5
ENDMDL
MODEL 5
REMARK VINA RESULT:      -7.0      3.626      7.421
REMARK  Name = NuBBE_1763
REMARK  8 active torsions:
REMARK  status: ('A' for Active; 'I' for Inactive)
REMARK    1  A    between atoms: C_1  and  C_2
REMARK    2  A    between atoms: C_1  and  C_4
REMARK    3  A    between atoms: C_6  and  O_7
REMARK    4  A    between atoms: O_7  and  C_8
REMARK    5  A    between atoms: C_11  and  O_14
REMARK    6  A    between atoms: O_14  and  C_15
REMARK    7  A    between atoms: C_17  and  C_22
REMARK    8  A    between atoms: C_19  and  C_21
REMARK                            x       y       z     vdW  Elec       q    Type
REMARK                         _______ _______ _______ _____ _____    ______ ____
ROOT
ATOM      1  C   LIG A   1      -6.886  -1.348 126.359  0.00  0.00    +0.044 C 
ATOM      2  C   LIG A   1      -8.115  -0.700 125.790  0.00  0.00    +0.150 C 
ATOM      3  C   LIG A   1      -8.609  -0.871 124.555  0.00  0.00    +0.203 C 
ATOM      4  C   LIG A   1      -7.778  -1.733 123.631  0.00  0.00    +0.229 C 
ATOM      5  O   LIG A   1      -8.287  -2.378 122.723  0.00  0.00    -0.286 OA
ATOM      6  C   LIG A   1      -6.250  -1.662 123.871  0.00  0.00    +0.193 C 
ATOM      7  C   LIG A   1      -5.948  -1.999 125.327  0.00  0.00    +0.055 C 
ATOM      8  O   LIG A   1      -8.673   0.188 126.700  0.00  0.00    -0.484 OA
ATOM      9  C   LIG A   1      -7.561   0.726 127.451  0.00  0.00    +0.207 C 
ATOM     10  C   LIG A   1      -6.305  -0.114 127.089  0.00  0.00    +0.045 C 
ATOM     11  C   LIG A   1      -5.360   0.772 126.253  0.00  0.00    +0.012 C 
ENDROOT
BRANCH   9  12
ATOM     12  C   LIG A   1      -7.833   0.872 128.942  0.00  0.00    -0.003 A 
ATOM     13  C   LIG A   1      -8.662   1.886 129.453  0.00  0.00    +0.056 A 
ATOM     14  C   LIG A   1      -8.760   2.027 130.825  0.00  0.00    +0.167 A 
ATOM     15  C   LIG A   1      -8.080   1.207 131.693  0.00  0.00    +0.166 A 
ATOM     16  C   LIG A   1      -7.269   0.192 131.240  0.00  0.00    +0.050 A 
ATOM     17  C   LIG A   1      -7.144   0.030 129.856  0.00  0.00    +0.011 A 
ATOM     18  O   LIG A   1      -8.292   1.533 132.995  0.00  0.00    -0.453 OA
ATOM     19  C   LIG A   1      -9.167   2.670 132.850  0.00  0.00    +0.466 C 
ATOM     20  O   LIG A   1      -9.488   2.974 131.476  0.00  0.00    -0.453 OA
ENDBRANCH   9  12
BRANCH   3  21
ATOM     21  O   LIG A   1      -9.786  -0.243 124.184  0.00  0.00    -0.489 OA
ATOM     22  C   LIG A   1      -9.678   0.855 123.288  0.00  0.00    +0.277 C 
ENDBRANCH   3  21
BRANCH   6  23
ATOM     23  O   LIG A   1      -5.530  -2.536 122.995  0.00  0.00    -0.372 OA
ATOM     24  C   LIG A   1      -4.791  -3.554 123.660  0.00  0.00    +0.195 C 
ENDBRANCH   6  23
BRANCH   1  25
ATOM     25  C   LIG A   1      -7.312  -2.445 127.393  0.00  0.00    +0.041 C 
BRANCH  25  26
ATOM     26  C   LIG A   1      -8.536  -3.240 126.990  0.00  0.00    -0.034 C 
ATOM     27  C   LIG A   1      -9.192  -4.079 127.803  0.00  0.00    +0.004 C 
ENDBRANCH  25  26
ENDBRANCH   1  25
TORSDOF 5
ENDMDL
MODEL 6
REMARK VINA RESULT:      -7.0      2.975      8.268
REMARK  Name = NuBBE_1763
REMARK  8 active torsions:
REMARK  status: ('A' for Active; 'I' for Inactive)
REMARK    1  A    between atoms: C_1  and  C_2
REMARK    2  A    between atoms: C_1  and  C_4
REMARK    3  A    between atoms: C_6  and  O_7
REMARK    4  A    between atoms: O_7  and  C_8
REMARK    5  A    between atoms: C_11  and  O_14
REMARK    6  A    between atoms: O_14  and  C_15
REMARK    7  A    between atoms: C_17  and  C_22
REMARK    8  A    between atoms: C_19  and  C_21
REMARK                            x       y       z     vdW  Elec       q    Type
REMARK                         _______ _______ _______ _____ _____    ______ ____
ROOT
ATOM      1  C   LIG A   1      -6.751  -0.572 125.653  0.00  0.00    +0.044 C 
ATOM      2  C   LIG A   1      -7.858  -1.584 125.597  0.00  0.00    +0.150 C 
ATOM      3  C   LIG A   1      -8.826  -1.659 124.671  0.00  0.00    +0.203 C 
ATOM      4  C   LIG A   1      -8.838  -0.549 123.645  0.00  0.00    +0.229 C 
ATOM      5  O   LIG A   1      -9.277  -0.723 122.515  0.00  0.00    -0.286 OA
ATOM      6  C   LIG A   1      -8.343   0.823 124.163  0.00  0.00    +0.193 C 
ATOM      7  C   LIG A   1      -6.947   0.667 124.759  0.00  0.00    +0.055 C 
ATOM      8  O   LIG A   1      -7.809  -2.433 126.695  0.00  0.00    -0.484 OA
ATOM      9  C   LIG A   1      -7.288  -1.633 127.781  0.00  0.00    +0.207 C 
ATOM     10  C   LIG A   1      -6.782  -0.296 127.175  0.00  0.00    +0.045 C 
ATOM     11  C   LIG A   1      -7.733   0.828 127.630  0.00  0.00    +0.012 C 
ENDROOT
BRANCH   9  12
ATOM     12  C   LIG A   1      -6.285  -2.364 128.663  0.00  0.00    -0.003 A 
ATOM     13  C   LIG A   1      -6.680  -3.076 129.809  0.00  0.00    +0.056 A 
ATOM     14  C   LIG A   1      -5.698  -3.608 130.624  0.00  0.00    +0.167 A 
ATOM     15  C   LIG A   1      -4.360  -3.464 130.343  0.00  0.00    +0.166 A 
ATOM     16  C   LIG A   1      -3.926  -2.789 129.227  0.00  0.00    +0.050 A 
ATOM     17  C   LIG A   1      -4.897  -2.232 128.387  0.00  0.00    +0.011 A 
ATOM     18  O   LIG A   1      -3.563  -4.036 131.284  0.00  0.00    -0.453 OA
ATOM     19  C   LIG A   1      -4.553  -4.539 132.206  0.00  0.00    +0.466 C 
ATOM     20  O   LIG A   1      -5.910  -4.292 131.782  0.00  0.00    -0.453 OA
ENDBRANCH   9  12
BRANCH   3  21
ATOM     21  O   LIG A   1      -9.756  -2.685 124.720  0.00  0.00    -0.489 OA
ATOM     22  C   LIG A   1      -9.680  -3.675 123.703  0.00  0.00    +0.277 C 
ENDBRANCH   3  21
BRANCH   6  23
ATOM     23  O   LIG A   1      -8.336   1.815 123.130  0.00  0.00    -0.372 OA
ATOM     24  C   LIG A   1      -7.083   2.462 122.946  0.00  0.00    +0.195 C 
ENDBRANCH   6  23
BRANCH   1  25
ATOM     25  C   LIG A   1      -5.403  -1.257 125.247  0.00  0.00    +0.041 C 
BRANCH  25  26
ATOM     26  C   LIG A   1      -5.507  -2.182 124.052  0.00  0.00    -0.034 C 
ATOM     27  C   LIG A   1      -4.943  -3.395 123.986  0.00  0.00    +0.004 C 
ENDBRANCH  25  26
ENDBRANCH   1  25
TORSDOF 5
ENDMDL
MODEL 7
REMARK VINA RESULT:      -6.9      3.460      8.601
REMARK  Name = NuBBE_1763
REMARK  8 active torsions:
REMARK  status: ('A' for Active; 'I' for Inactive)
REMARK    1  A    between atoms: C_1  and  C_2
REMARK    2  A    between atoms: C_1  and  C_4
REMARK    3  A    between atoms: C_6  and  O_7
REMARK    4  A    between atoms: O_7  and  C_8
REMARK    5  A    between atoms: C_11  and  O_14
REMARK    6  A    between atoms: O_14  and  C_15
REMARK    7  A    between atoms: C_17  and  C_22
REMARK    8  A    between atoms: C_19  and  C_21
REMARK                            x       y       z     vdW  Elec       q    Type
REMARK                         _______ _______ _______ _____ _____    ______ ____
ROOT
ATOM      1  C   LIG A   1      -7.706  -0.992 126.871  0.00  0.00    +0.044 C 
ATOM      2  C   LIG A   1      -6.499  -1.550 126.175  0.00  0.00    +0.150 C 
ATOM      3  C   LIG A   1      -6.192  -1.414 124.876  0.00  0.00    +0.203 C 
ATOM      4  C   LIG A   1      -7.223  -0.703 124.030  0.00  0.00    +0.229 C 
ATOM      5  O   LIG A   1      -6.909  -0.073 123.028  0.00  0.00    -0.286 OA
ATOM      6  C   LIG A   1      -8.690  -0.910 124.479  0.00  0.00    +0.193 C 
ATOM      7  C   LIG A   1      -8.835  -0.508 125.943  0.00  0.00    +0.055 C 
ATOM      8  O   LIG A   1      -5.736  -2.316 127.046  0.00  0.00    -0.484 OA
ATOM      9  C   LIG A   1      -6.676  -2.910 127.969  0.00  0.00    +0.207 C 
ATOM     10  C   LIG A   1      -8.052  -2.226 127.737  0.00  0.00    +0.045 C 
ATOM     11  C   LIG A   1      -8.996  -3.255 127.086  0.00  0.00    +0.012 C 
ENDROOT
BRANCH   9  12
ATOM     12  C   LIG A   1      -6.199  -2.928 129.415  0.00  0.00    -0.003 A 
ATOM     13  C   LIG A   1      -4.846  -2.756 129.755  0.00  0.00    +0.056 A 
ATOM     14  C   LIG A   1      -4.475  -2.908 131.078  0.00  0.00    +0.167 A 
ATOM     15  C   LIG A   1      -5.387  -3.216 132.060  0.00  0.00    +0.166 A 
ATOM     16  C   LIG A   1      -6.723  -3.380 131.778  0.00  0.00    +0.050 A 
ATOM     17  C   LIG A   1      -7.126  -3.240 130.445  0.00  0.00    +0.011 A 
ATOM     18  O   LIG A   1      -4.812  -3.349 133.284  0.00  0.00    -0.453 OA
ATOM     19  C   LIG A   1      -3.427  -3.112 132.960  0.00  0.00    +0.466 C 
ATOM     20  O   LIG A   1      -3.209  -2.808 131.566  0.00  0.00    -0.453 OA
ENDBRANCH   9  12
BRANCH   3  21
ATOM     21  O   LIG A   1      -5.011  -1.946 124.383  0.00  0.00    -0.489 OA
ATOM     22  C   LIG A   1      -5.112  -3.138 123.614  0.00  0.00    +0.277 C 
ENDBRANCH   3  21
BRANCH   6  23
ATOM     23  O   LIG A   1      -9.608  -0.172 123.664  0.00  0.00    -0.372 OA
ATOM     24  C   LIG A   1      -9.938   1.115 124.171  0.00  0.00    +0.195 C 
ENDBRANCH   6  23
BRANCH   1  25
ATOM     25  C   LIG A   1      -7.270   0.209 127.777  0.00  0.00    +0.041 C 
BRANCH  25  26
ATOM     26  C   LIG A   1      -8.039   0.321 129.077  0.00  0.00    -0.034 C 
ATOM     27  C   LIG A   1      -7.469   0.492 130.277  0.00  0.00    +0.004 C 
ENDBRANCH  25  26
ENDBRANCH   1  25
TORSDOF 5
ENDMDL
MODEL 8
REMARK VINA RESULT:      -6.9      3.708      5.112
REMARK  Name = NuBBE_1763
REMARK  8 active torsions:
REMARK  status: ('A' for Active; 'I' for Inactive)
REMARK    1  A    between atoms: C_1  and  C_2
REMARK    2  A    between atoms: C_1  and  C_4
REMARK    3  A    between atoms: C_6  and  O_7
REMARK    4  A    between atoms: O_7  and  C_8
REMARK    5  A    between atoms: C_11  and  O_14
REMARK    6  A    between atoms: O_14  and  C_15
REMARK    7  A    between atoms: C_17  and  C_22
REMARK    8  A    between atoms: C_19  and  C_21
REMARK                            x       y       z     vdW  Elec       q    Type
REMARK                         _______ _______ _______ _____ _____    ______ ____
ROOT
ATOM      1  C   LIG A   1      -5.107   2.989 127.803  0.00  0.00    +0.044 C 
ATOM      2  C   LIG A   1      -4.983   4.485 127.834  0.00  0.00    +0.150 C 
ATOM      3  C   LIG A   1      -4.556   5.230 128.864  0.00  0.00    +0.203 C 
ATOM      4  C   LIG A   1      -4.264   4.476 130.141  0.00  0.00    +0.229 C 
ATOM      5  O   LIG A   1      -3.434   4.875 130.948  0.00  0.00    -0.286 OA
ATOM      6  C   LIG A   1      -5.150   3.229 130.380  0.00  0.00    +0.193 C 
ATOM      7  C   LIG A   1      -5.048   2.296 129.177  0.00  0.00    +0.055 C 
ATOM      8  O   LIG A   1      -5.445   5.044 126.650  0.00  0.00    -0.484 OA
ATOM      9  C   LIG A   1      -6.507   4.174 126.196  0.00  0.00    +0.207 C 
ATOM     10  C   LIG A   1      -6.470   2.895 127.078  0.00  0.00    +0.045 C 
ATOM     11  C   LIG A   1      -7.713   2.905 127.989  0.00  0.00    +0.012 C 
ENDROOT
BRANCH   9  12
ATOM     12  C   LIG A   1      -6.504   3.924 124.694  0.00  0.00    -0.003 A 
ATOM     13  C   LIG A   1      -5.533   4.485 123.847  0.00  0.00    +0.056 A 
ATOM     14  C   LIG A   1      -5.671   4.312 122.482  0.00  0.00    +0.167 A 
ATOM     15  C   LIG A   1      -6.719   3.608 121.939  0.00  0.00    +0.166 A 
ATOM     16  C   LIG A   1      -7.685   3.029 122.728  0.00  0.00    +0.050 A 
ATOM     17  C   LIG A   1      -7.576   3.194 124.113  0.00  0.00    +0.011 A 
ATOM     18  O   LIG A   1      -6.684   3.581 120.580  0.00  0.00    -0.453 OA
ATOM     19  C   LIG A   1      -5.503   4.370 120.326  0.00  0.00    +0.466 C 
ATOM     20  O   LIG A   1      -4.842   4.816 121.528  0.00  0.00    -0.453 OA
ENDBRANCH   9  12
BRANCH   3  21
ATOM     21  O   LIG A   1      -4.447   6.604 128.729  0.00  0.00    -0.489 OA
ATOM     22  C   LIG A   1      -3.180   7.116 128.336  0.00  0.00    +0.277 C 
ENDBRANCH   3  21
BRANCH   6  23
ATOM     23  O   LIG A   1      -4.788   2.537 131.581  0.00  0.00    -0.372 OA
ATOM     24  C   LIG A   1      -4.147   1.285 131.366  0.00  0.00    +0.195 C 
ENDBRANCH   6  23
BRANCH   1  25
ATOM     25  C   LIG A   1      -3.968   2.395 126.908  0.00  0.00    +0.041 C 
BRANCH  25  26
ATOM     26  C   LIG A   1      -2.808   3.337 126.666  0.00  0.00    -0.034 C 
ATOM     27  C   LIG A   1      -1.523   2.959 126.632  0.00  0.00    +0.004 C 
ENDBRANCH  25  26
ENDBRANCH   1  25
TORSDOF 5
ENDMDL
MODEL 9
REMARK VINA RESULT:      -6.9      4.058      6.417
REMARK  Name = NuBBE_1763
REMARK  8 active torsions:
REMARK  status: ('A' for Active; 'I' for Inactive)
REMARK    1  A    between atoms: C_1  and  C_2
REMARK    2  A    between atoms: C_1  and  C_4
REMARK    3  A    between atoms: C_6  and  O_7
REMARK    4  A    between atoms: O_7  and  C_8
REMARK    5  A    between atoms: C_11  and  O_14
REMARK    6  A    between atoms: O_14  and  C_15
REMARK    7  A    between atoms: C_17  and  C_22
REMARK    8  A    between atoms: C_19  and  C_21
REMARK                            x       y       z     vdW  Elec       q    Type
REMARK                         _______ _______ _______ _____ _____    ______ ____
ROOT
ATOM      1  C   LIG A   1      -6.832  -2.577 129.735  0.00  0.00    +0.044 C 
ATOM      2  C   LIG A   1      -5.351  -2.527 129.497  0.00  0.00    +0.150 C 
ATOM      3  C   LIG A   1      -4.388  -2.800 130.391  0.00  0.00    +0.203 C 
ATOM      4  C   LIG A   1      -4.863  -3.095 131.795  0.00  0.00    +0.229 C 
ATOM      5  O   LIG A   1      -4.228  -3.822 132.549  0.00  0.00    -0.286 OA
ATOM      6  C   LIG A   1      -6.148  -2.345 132.221  0.00  0.00    +0.193 C 
ATOM      7  C   LIG A   1      -7.259  -2.628 131.214  0.00  0.00    +0.055 C 
ATOM      8  O   LIG A   1      -5.071  -2.080 128.213  0.00  0.00    -0.484 OA
ATOM      9  C   LIG A   1      -6.131  -1.155 127.882  0.00  0.00    +0.207 C 
ATOM     10  C   LIG A   1      -7.220  -1.282 128.983  0.00  0.00    +0.045 C 
ATOM     11  C   LIG A   1      -7.204   0.009 129.825  0.00  0.00    +0.012 C 
ENDROOT
BRANCH   9  12
ATOM     12  C   LIG A   1      -6.640  -1.281 126.453  0.00  0.00    -0.003 A 
ATOM     13  C   LIG A   1      -7.802  -0.623 126.014  0.00  0.00    +0.056 A 
ATOM     14  C   LIG A   1      -8.266  -0.886 124.739  0.00  0.00    +0.167 A 
ATOM     15  C   LIG A   1      -7.624  -1.760 123.895  0.00  0.00    +0.166 A 
ATOM     16  C   LIG A   1      -6.476  -2.416 124.274  0.00  0.00    +0.050 A 
ATOM     17  C   LIG A   1      -5.987  -2.177 125.563  0.00  0.00    +0.011 A 
ATOM     18  O   LIG A   1      -8.259  -1.897 122.701  0.00  0.00    -0.453 OA
ATOM     19  C   LIG A   1      -9.391  -1.024 122.896  0.00  0.00    +0.466 C 
ATOM     20  O   LIG A   1      -9.389  -0.360 124.177  0.00  0.00    -0.453 OA
ENDBRANCH   9  12
BRANCH   3  21
ATOM     21  O   LIG A   1      -3.056  -2.759 130.012  0.00  0.00    -0.489 OA
ATOM     22  C   LIG A   1      -2.617  -3.749 129.091  0.00  0.00    +0.277 C 
ENDBRANCH   3  21
BRANCH   6  23
ATOM     23  O   LIG A   1      -6.567  -2.706 133.542  0.00  0.00    -0.372 OA
ATOM     24  C   LIG A   1      -6.369  -1.691 134.518  0.00  0.00    +0.195 C 
ENDBRANCH   6  23
BRANCH   1  25
ATOM     25  C   LIG A   1      -7.429  -3.831 129.012  0.00  0.00    +0.041 C 
BRANCH  25  26
ATOM     26  C   LIG A   1      -8.806  -3.613 128.420  0.00  0.00    -0.034 C 
ATOM     27  C   LIG A   1      -9.119  -3.836 127.137  0.00  0.00    +0.004 C 
ENDBRANCH  25  26
ENDBRANCH   1  25
TORSDOF 5
ENDMDL
