MODEL 1
REMARK VINA RESULT:      -6.8      0.000      0.000
REMARK  Name = NuBBE_1828
REMARK  4 active torsions:
REMARK  status: ('A' for Active; 'I' for Inactive)
REMARK    1  A    between atoms: C_2  and  O_3
REMARK    2  A    between atoms: C_2  and  C_11
REMARK    3  A    between atoms: O_3  and  C_4
REMARK    4  A    between atoms: C_4  and  C_5
REMARK                            x       y       z     vdW  Elec       q    Type
REMARK                         _______ _______ _______ _____ _____    ______ ____
ROOT
ATOM      1  O   LIG A   1     -10.313   0.133 122.734  0.00  0.00    -0.245 OA
ATOM      2  C   LIG A   1      -9.172   0.181 123.166  0.00  0.00    +0.340 C 
ENDROOT
BRANCH   2   3
ATOM      3  C   LIG A   1      -8.337  -1.020 123.437  0.00  0.00    +0.059 A 
ATOM      4  C   LIG A   1      -6.936  -0.968 123.431  0.00  0.00    +0.015 A 
ATOM      5  C   LIG A   1      -6.189  -2.106 123.735  0.00  0.00    +0.001 A 
ATOM      6  C   LIG A   1      -6.835  -3.302 124.044  0.00  0.00    +0.000 A 
ATOM      7  C   LIG A   1      -8.228  -3.365 124.043  0.00  0.00    +0.001 A 
ATOM      8  C   LIG A   1      -8.980  -2.228 123.739  0.00  0.00    +0.015 A 
ENDBRANCH   2   3
BRANCH   2   9
ATOM      9  O   LIG A   1      -8.485   1.296 123.502  0.00  0.00    -0.456 OA
BRANCH   9  10
ATOM     10  C   LIG A   1      -9.048   2.546 123.094  0.00  0.00    +0.268 C 
BRANCH  10  11
ATOM     11  C   LIG A   1      -8.181   3.101 121.994  0.00  0.00    -0.010 A 
ATOM     12  C   LIG A   1      -6.786   3.156 122.133  0.00  0.00    +0.007 A 
ATOM     13  C   LIG A   1      -5.997   3.694 121.116  0.00  0.00    +0.000 A 
ATOM     14  C   LIG A   1      -6.591   4.192 119.957  0.00  0.00    +0.000 A 
ATOM     15  C   LIG A   1      -7.976   4.155 119.815  0.00  0.00    +0.000 A 
ATOM     16  C   LIG A   1      -8.768   3.617 120.830  0.00  0.00    +0.007 A 
ENDBRANCH  10  11
ENDBRANCH   9  10
ENDBRANCH   2   9
TORSDOF 4
ENDMDL
MODEL 2
REMARK VINA RESULT:      -6.8      0.140      1.713
REMARK  Name = NuBBE_1828
REMARK  4 active torsions:
REMARK  status: ('A' for Active; 'I' for Inactive)
REMARK    1  A    between atoms: C_2  and  O_3
REMARK    2  A    between atoms: C_2  and  C_11
REMARK    3  A    between atoms: O_3  and  C_4
REMARK    4  A    between atoms: C_4  and  C_5
REMARK                            x       y       z     vdW  Elec       q    Type
REMARK                         _______ _______ _______ _____ _____    ______ ____
ROOT
ATOM      1  O   LIG A   1     -10.282   0.033 122.738  0.00  0.00    -0.245 OA
ATOM      2  C   LIG A   1      -9.161   0.112 123.219  0.00  0.00    +0.340 C 
ENDROOT
BRANCH   2   3
ATOM      3  C   LIG A   1      -8.321  -1.067 123.558  0.00  0.00    +0.059 A 
ATOM      4  C   LIG A   1      -8.878  -2.329 123.811  0.00  0.00    +0.015 A 
ATOM      5  C   LIG A   1      -8.053  -3.420 124.081  0.00  0.00    +0.001 A 
ATOM      6  C   LIG A   1      -6.669  -3.259 124.104  0.00  0.00    +0.000 A 
ATOM      7  C   LIG A   1      -6.106  -2.005 123.864  0.00  0.00    +0.001 A 
ATOM      8  C   LIG A   1      -6.929  -0.909 123.593  0.00  0.00    +0.015 A 
ENDBRANCH   2   3
BRANCH   2   9
ATOM      9  O   LIG A   1      -8.509   1.247 123.556  0.00  0.00    -0.456 OA
BRANCH   9  10
ATOM     10  C   LIG A   1      -9.097   2.479 123.128  0.00  0.00    +0.268 C 
BRANCH  10  11
ATOM     11  C   LIG A   1      -8.204   3.069 122.067  0.00  0.00    -0.010 A 
ATOM     12  C   LIG A   1      -8.741   3.597 120.885  0.00  0.00    +0.007 A 
ATOM     13  C   LIG A   1      -7.901   4.119 119.900  0.00  0.00    +0.000 A 
ATOM     14  C   LIG A   1      -6.519   4.110 120.082  0.00  0.00    +0.000 A 
ATOM     15  C   LIG A   1      -5.974   3.575 121.247  0.00  0.00    +0.000 A 
ATOM     16  C   LIG A   1      -6.812   3.053 122.234  0.00  0.00    +0.007 A 
ENDBRANCH  10  11
ENDBRANCH   9  10
ENDBRANCH   2   9
TORSDOF 4
ENDMDL
MODEL 3
REMARK VINA RESULT:      -6.8      9.682     11.365
REMARK  Name = NuBBE_1828
REMARK  4 active torsions:
REMARK  status: ('A' for Active; 'I' for Inactive)
REMARK    1  A    between atoms: C_2  and  O_3
REMARK    2  A    between atoms: C_2  and  C_11
REMARK    3  A    between atoms: O_3  and  C_4
REMARK    4  A    between atoms: C_4  and  C_5
REMARK                            x       y       z     vdW  Elec       q    Type
REMARK                         _______ _______ _______ _____ _____    ______ ____
ROOT
ATOM      1  O   LIG A   1     -13.184   7.036 131.517  0.00  0.00    -0.245 OA
ATOM      2  C   LIG A   1     -12.127   7.183 130.922  0.00  0.00    +0.340 C 
ENDROOT
BRANCH   2   3
ATOM      3  C   LIG A   1     -12.015   7.274 129.442  0.00  0.00    +0.059 A 
ATOM      4  C   LIG A   1     -13.031   6.814 128.590  0.00  0.00    +0.015 A 
ATOM      5  C   LIG A   1     -12.908   6.959 127.208  0.00  0.00    +0.001 A 
ATOM      6  C   LIG A   1     -11.773   7.560 126.668  0.00  0.00    +0.000 A 
ATOM      7  C   LIG A   1     -10.754   8.011 127.507  0.00  0.00    +0.001 A 
ATOM      8  C   LIG A   1     -10.872   7.868 128.892  0.00  0.00    +0.015 A 
ENDBRANCH   2   3
BRANCH   2   9
ATOM      9  O   LIG A   1     -10.895   7.253 131.475  0.00  0.00    -0.456 OA
BRANCH   9  10
ATOM     10  C   LIG A   1     -10.435   6.091 132.169  0.00  0.00    +0.268 C 
BRANCH  10  11
ATOM     11  C   LIG A   1      -8.928   6.127 132.174  0.00  0.00    -0.010 A 
ATOM     12  C   LIG A   1      -8.198   5.588 133.243  0.00  0.00    +0.007 A 
ATOM     13  C   LIG A   1      -6.803   5.649 133.246  0.00  0.00    +0.000 A 
ATOM     14  C   LIG A   1      -6.126   6.256 132.189  0.00  0.00    +0.000 A 
ATOM     15  C   LIG A   1      -6.843   6.807 131.129  0.00  0.00    +0.000 A 
ATOM     16  C   LIG A   1      -8.238   6.747 131.123  0.00  0.00    +0.007 A 
ENDBRANCH  10  11
ENDBRANCH   9  10
ENDBRANCH   2   9
TORSDOF 4
ENDMDL
MODEL 4
REMARK VINA RESULT:      -6.8      4.211      6.621
REMARK  Name = NuBBE_1828
REMARK  4 active torsions:
REMARK  status: ('A' for Active; 'I' for Inactive)
REMARK    1  A    between atoms: C_2  and  O_3
REMARK    2  A    between atoms: C_2  and  C_11
REMARK    3  A    between atoms: O_3  and  C_4
REMARK    4  A    between atoms: C_4  and  C_5
REMARK                            x       y       z     vdW  Elec       q    Type
REMARK                         _______ _______ _______ _____ _____    ______ ____
ROOT
ATOM      1  O   LIG A   1     -10.056  -3.453 123.228  0.00  0.00    -0.245 OA
ATOM      2  C   LIG A   1      -9.242  -2.944 123.984  0.00  0.00    +0.340 C 
ENDROOT
BRANCH   2   3
ATOM      3  C   LIG A   1      -7.780  -2.895 123.717  0.00  0.00    +0.059 A 
ATOM      4  C   LIG A   1      -6.882  -3.778 124.335  0.00  0.00    +0.015 A 
ATOM      5  C   LIG A   1      -5.523  -3.730 124.023  0.00  0.00    +0.001 A 
ATOM      6  C   LIG A   1      -5.052  -2.801 123.097  0.00  0.00    +0.000 A 
ATOM      7  C   LIG A   1      -5.937  -1.913 122.485  0.00  0.00    +0.001 A 
ATOM      8  C   LIG A   1      -7.299  -1.957 122.794  0.00  0.00    +0.015 A 
ENDBRANCH   2   3
BRANCH   2   9
ATOM      9  O   LIG A   1      -9.503  -2.378 125.184  0.00  0.00    -0.456 OA
BRANCH   9  10
ATOM     10  C   LIG A   1      -9.714  -3.270 126.283  0.00  0.00    +0.268 C 
BRANCH  10  11
ATOM     11  C   LIG A   1      -8.713  -2.921 127.354  0.00  0.00    -0.010 A 
ATOM     12  C   LIG A   1      -8.580  -3.715 128.502  0.00  0.00    +0.007 A 
ATOM     13  C   LIG A   1      -7.665  -3.368 129.498  0.00  0.00    +0.000 A 
ATOM     14  C   LIG A   1      -6.882  -2.223 129.361  0.00  0.00    +0.000 A 
ATOM     15  C   LIG A   1      -7.016  -1.420 128.230  0.00  0.00    +0.000 A 
ATOM     16  C   LIG A   1      -7.930  -1.764 127.233  0.00  0.00    +0.007 A 
ENDBRANCH  10  11
ENDBRANCH   9  10
ENDBRANCH   2   9
TORSDOF 4
ENDMDL
MODEL 5
REMARK VINA RESULT:      -6.7      1.549      6.047
REMARK  Name = NuBBE_1828
REMARK  4 active torsions:
REMARK  status: ('A' for Active; 'I' for Inactive)
REMARK    1  A    between atoms: C_2  and  O_3
REMARK    2  A    between atoms: C_2  and  C_11
REMARK    3  A    between atoms: O_3  and  C_4
REMARK    4  A    between atoms: C_4  and  C_5
REMARK                            x       y       z     vdW  Elec       q    Type
REMARK                         _______ _______ _______ _____ _____    ______ ____
ROOT
ATOM      1  O   LIG A   1      -8.707   3.455 124.248  0.00  0.00    -0.245 OA
ATOM      2  C   LIG A   1      -8.203   2.739 123.396  0.00  0.00    +0.340 C 
ENDROOT
BRANCH   2   3
ATOM      3  C   LIG A   1      -7.740   3.229 122.070  0.00  0.00    +0.059 A 
ATOM      4  C   LIG A   1      -8.640   3.604 121.061  0.00  0.00    +0.015 A 
ATOM      5  C   LIG A   1      -8.166   4.102 119.847  0.00  0.00    +0.001 A 
ATOM      6  C   LIG A   1      -6.795   4.226 119.632  0.00  0.00    +0.000 A 
ATOM      7  C   LIG A   1      -5.893   3.847 120.626  0.00  0.00    +0.001 A 
ATOM      8  C   LIG A   1      -6.363   3.347 121.843  0.00  0.00    +0.015 A 
ENDBRANCH   2   3
BRANCH   2   9
ATOM      9  O   LIG A   1      -8.010   1.404 123.479  0.00  0.00    -0.456 OA
BRANCH   9  10
ATOM     10  C   LIG A   1      -7.248   0.933 124.594  0.00  0.00    +0.268 C 
BRANCH  10  11
ATOM     11  C   LIG A   1      -6.630  -0.385 124.203  0.00  0.00    -0.010 A 
ATOM     12  C   LIG A   1      -6.686  -0.843 122.879  0.00  0.00    +0.007 A 
ATOM     13  C   LIG A   1      -6.130  -2.076 122.534  0.00  0.00    +0.000 A 
ATOM     14  C   LIG A   1      -5.523  -2.867 123.509  0.00  0.00    +0.000 A 
ATOM     15  C   LIG A   1      -5.474  -2.428 124.830  0.00  0.00    +0.000 A 
ATOM     16  C   LIG A   1      -6.029  -1.195 125.177  0.00  0.00    +0.007 A 
ENDBRANCH  10  11
ENDBRANCH   9  10
ENDBRANCH   2   9
TORSDOF 4
ENDMDL
MODEL 6
REMARK VINA RESULT:      -6.6      1.362      6.172
REMARK  Name = NuBBE_1828
REMARK  4 active torsions:
REMARK  status: ('A' for Active; 'I' for Inactive)
REMARK    1  A    between atoms: C_2  and  O_3
REMARK    2  A    between atoms: C_2  and  C_11
REMARK    3  A    between atoms: O_3  and  C_4
REMARK    4  A    between atoms: C_4  and  C_5
REMARK                            x       y       z     vdW  Elec       q    Type
REMARK                         _______ _______ _______ _____ _____    ______ ____
ROOT
ATOM      1  O   LIG A   1      -8.964   3.172 124.305  0.00  0.00    -0.245 OA
ATOM      2  C   LIG A   1      -8.231   2.556 123.545  0.00  0.00    +0.340 C 
ENDROOT
BRANCH   2   3
ATOM      3  C   LIG A   1      -7.775   3.079 122.229  0.00  0.00    +0.059 A 
ATOM      4  C   LIG A   1      -8.679   3.524 121.253  0.00  0.00    +0.015 A 
ATOM      5  C   LIG A   1      -8.211   4.050 120.049  0.00  0.00    +0.001 A 
ATOM      6  C   LIG A   1      -6.840   4.132 119.810  0.00  0.00    +0.000 A 
ATOM      7  C   LIG A   1      -5.934   3.683 120.771  0.00  0.00    +0.001 A 
ATOM      8  C   LIG A   1      -6.399   3.155 121.978  0.00  0.00    +0.015 A 
ENDBRANCH   2   3
BRANCH   2   9
ATOM      9  O   LIG A   1      -7.740   1.310 123.733  0.00  0.00    -0.456 OA
BRANCH   9  10
ATOM     10  C   LIG A   1      -8.069   0.670 124.968  0.00  0.00    +0.268 C 
BRANCH  10  11
ATOM     11  C   LIG A   1      -8.516  -0.734 124.652  0.00  0.00    -0.010 A 
ATOM     12  C   LIG A   1      -8.967  -1.593 125.665  0.00  0.00    +0.007 A 
ATOM     13  C   LIG A   1      -9.357  -2.898 125.361  0.00  0.00    +0.000 A 
ATOM     14  C   LIG A   1      -9.290  -3.362 124.048  0.00  0.00    +0.000 A 
ATOM     15  C   LIG A   1      -8.830  -2.521 123.037  0.00  0.00    +0.000 A 
ATOM     16  C   LIG A   1      -8.440  -1.215 123.337  0.00  0.00    +0.007 A 
ENDBRANCH  10  11
ENDBRANCH   9  10
ENDBRANCH   2   9
TORSDOF 4
ENDMDL
MODEL 7
REMARK VINA RESULT:      -6.5      9.459     10.599
REMARK  Name = NuBBE_1828
REMARK  4 active torsions:
REMARK  status: ('A' for Active; 'I' for Inactive)
REMARK    1  A    between atoms: C_2  and  O_3
REMARK    2  A    between atoms: C_2  and  C_11
REMARK    3  A    between atoms: O_3  and  C_4
REMARK    4  A    between atoms: C_4  and  C_5
REMARK                            x       y       z     vdW  Elec       q    Type
REMARK                         _______ _______ _______ _____ _____    ______ ____
ROOT
ATOM      1  O   LIG A   1      -8.967   6.896 130.607  0.00  0.00    -0.245 OA
ATOM      2  C   LIG A   1      -9.755   6.373 131.382  0.00  0.00    +0.340 C 
ENDROOT
BRANCH   2   3
ATOM      3  C   LIG A   1      -9.683   4.947 131.799  0.00  0.00    +0.059 A 
ATOM      4  C   LIG A   1      -9.957   3.898 130.909  0.00  0.00    +0.015 A 
ATOM      5  C   LIG A   1      -9.835   2.573 131.325  0.00  0.00    +0.001 A 
ATOM      6  C   LIG A   1      -9.442   2.286 132.631  0.00  0.00    +0.000 A 
ATOM      7  C   LIG A   1      -9.177   3.323 133.526  0.00  0.00    +0.001 A 
ATOM      8  C   LIG A   1      -9.299   4.652 133.113  0.00  0.00    +0.015 A 
ENDBRANCH   2   3
BRANCH   2   9
ATOM      9  O   LIG A   1     -10.825   6.962 131.960  0.00  0.00    -0.456 OA
BRANCH   9  10
ATOM     10  C   LIG A   1     -12.113   6.478 131.570  0.00  0.00    +0.268 C 
BRANCH  10  11
ATOM     11  C   LIG A   1     -12.512   7.204 130.310  0.00  0.00    -0.010 A 
ATOM     12  C   LIG A   1     -12.593   8.604 130.279  0.00  0.00    +0.007 A 
ATOM     13  C   LIG A   1     -12.986   9.262 129.113  0.00  0.00    +0.000 A 
ATOM     14  C   LIG A   1     -13.312   8.530 127.972  0.00  0.00    +0.000 A 
ATOM     15  C   LIG A   1     -13.248   7.139 127.996  0.00  0.00    +0.000 A 
ATOM     16  C   LIG A   1     -12.855   6.478 129.161  0.00  0.00    +0.007 A 
ENDBRANCH  10  11
ENDBRANCH   9  10
ENDBRANCH   2   9
TORSDOF 4
ENDMDL
MODEL 8
REMARK VINA RESULT:      -6.4     10.460     11.158
REMARK  Name = NuBBE_1828
REMARK  4 active torsions:
REMARK  status: ('A' for Active; 'I' for Inactive)
REMARK    1  A    between atoms: C_2  and  O_3
REMARK    2  A    between atoms: C_2  and  C_11
REMARK    3  A    between atoms: O_3  and  C_4
REMARK    4  A    between atoms: C_4  and  C_5
REMARK                            x       y       z     vdW  Elec       q    Type
REMARK                         _______ _______ _______ _____ _____    ______ ____
ROOT
ATOM      1  O   LIG A   1      -9.354   4.768 133.325  0.00  0.00    -0.245 OA
ATOM      2  C   LIG A   1      -8.982   5.728 132.666  0.00  0.00    +0.340 C 
ENDROOT
BRANCH   2   3
ATOM      3  C   LIG A   1      -7.554   6.051 132.407  0.00  0.00    +0.059 A 
ATOM      4  C   LIG A   1      -6.531   5.651 133.281  0.00  0.00    +0.015 A 
ATOM      5  C   LIG A   1      -5.199   5.934 132.979  0.00  0.00    +0.001 A 
ATOM      6  C   LIG A   1      -4.879   6.618 131.808  0.00  0.00    +0.000 A 
ATOM      7  C   LIG A   1      -5.890   7.027 130.938  0.00  0.00    +0.001 A 
ATOM      8  C   LIG A   1      -7.226   6.747 131.236  0.00  0.00    +0.015 A 
ENDBRANCH   2   3
BRANCH   2   9
ATOM      9  O   LIG A   1      -9.770   6.667 132.095  0.00  0.00    -0.456 OA
BRANCH   9  10
ATOM     10  C   LIG A   1     -11.049   6.233 131.624  0.00  0.00    +0.268 C 
BRANCH  10  11
ATOM     11  C   LIG A   1     -11.403   7.072 130.423  0.00  0.00    -0.010 A 
ATOM     12  C   LIG A   1     -12.741   7.346 130.104  0.00  0.00    +0.007 A 
ATOM     13  C   LIG A   1     -13.056   8.105 128.976  0.00  0.00    +0.000 A 
ATOM     14  C   LIG A   1     -12.041   8.589 128.152  0.00  0.00    +0.000 A 
ATOM     15  C   LIG A   1     -10.710   8.312 128.452  0.00  0.00    +0.000 A 
ATOM     16  C   LIG A   1     -10.391   7.553 129.580  0.00  0.00    +0.007 A 
ENDBRANCH  10  11
ENDBRANCH   9  10
ENDBRANCH   2   9
TORSDOF 4
ENDMDL
MODEL 9
REMARK VINA RESULT:      -6.3      1.551      2.700
REMARK  Name = NuBBE_1828
REMARK  4 active torsions:
REMARK  status: ('A' for Active; 'I' for Inactive)
REMARK    1  A    between atoms: C_2  and  O_3
REMARK    2  A    between atoms: C_2  and  C_11
REMARK    3  A    between atoms: O_3  and  C_4
REMARK    4  A    between atoms: C_4  and  C_5
REMARK                            x       y       z     vdW  Elec       q    Type
REMARK                         _______ _______ _______ _____ _____    ______ ____
ROOT
ATOM      1  O   LIG A   1      -9.697  -2.606 125.258  0.00  0.00    -0.245 OA
ATOM      2  C   LIG A   1      -9.075  -1.942 124.443  0.00  0.00    +0.340 C 
ENDROOT
BRANCH   2   3
ATOM      3  C   LIG A   1      -7.724  -2.304 123.936  0.00  0.00    +0.059 A 
ATOM      4  C   LIG A   1      -7.223  -1.798 122.728  0.00  0.00    +0.015 A 
ATOM      5  C   LIG A   1      -5.933  -2.126 122.310  0.00  0.00    +0.001 A 
ATOM      6  C   LIG A   1      -5.138  -2.961 123.092  0.00  0.00    +0.000 A 
ATOM      7  C   LIG A   1      -5.632  -3.477 124.290  0.00  0.00    +0.001 A 
ATOM      8  C   LIG A   1      -6.923  -3.152 124.713  0.00  0.00    +0.015 A 
ENDBRANCH   2   3
BRANCH   2   9
ATOM      9  O   LIG A   1      -9.468  -0.772 123.890  0.00  0.00    -0.456 OA
BRANCH   9  10
ATOM     10  C   LIG A   1      -9.299   0.404 124.687  0.00  0.00    +0.268 C 
BRANCH  10  11
ATOM     11  C   LIG A   1      -8.582   1.428 123.845  0.00  0.00    -0.010 A 
ATOM     12  C   LIG A   1      -9.259   2.145 122.848  0.00  0.00    +0.007 A 
ATOM     13  C   LIG A   1      -8.577   3.074 122.061  0.00  0.00    +0.000 A 
ATOM     14  C   LIG A   1      -7.213   3.288 122.253  0.00  0.00    +0.000 A 
ATOM     15  C   LIG A   1      -6.528   2.571 123.232  0.00  0.00    +0.000 A 
ATOM     16  C   LIG A   1      -7.207   1.642 124.022  0.00  0.00    +0.007 A 
ENDBRANCH  10  11
ENDBRANCH   9  10
ENDBRANCH   2   9
TORSDOF 4
ENDMDL
