MODEL 1
REMARK VINA RESULT:      -7.2      0.000      0.000
REMARK  Name = NuBBE_1248
REMARK  7 active torsions:
REMARK  status: ('A' for Active; 'I' for Inactive)
REMARK    1  A    between atoms: C_4  and  C_14
REMARK    2  A    between atoms: C_9  and  O_12
REMARK    3  A    between atoms: C_14  and  C_15
REMARK    4  A    between atoms: C_15  and  C_16
REMARK    5  A    between atoms: C_16  and  O_17
REMARK    6  A    between atoms: C_16  and  C_18
REMARK    7  A    between atoms: C_16  and  C_19
REMARK                            x       y       z     vdW  Elec       q    Type
REMARK                         _______ _______ _______ _____ _____    ______ ____
ROOT
ATOM      1  O   LIG A   1      -4.017   4.950 122.016  0.00  0.00    -0.287 OA
ATOM      2  C   LIG A   1      -5.142   4.467 121.921  0.00  0.00    +0.190 A 
ATOM      3  C   LIG A   1      -5.735   3.727 123.061  0.00  0.00    +0.072 A 
ATOM      4  C   LIG A   1      -6.984   3.240 122.961  0.00  0.00    +0.020 A 
ATOM      5  N   LIG A   1      -7.740   3.392 121.816  0.00  0.00    -0.358 N 
ATOM      6  C   LIG A   1      -7.228   4.004 120.666  0.00  0.00    +0.051 A 
ATOM      7  C   LIG A   1      -7.989   4.090 119.496  0.00  0.00    +0.030 A 
ATOM      8  C   LIG A   1      -7.474   4.729 118.362  0.00  0.00    +0.047 A 
ATOM      9  C   LIG A   1      -6.203   5.298 118.408  0.00  0.00    +0.118 A 
ATOM     10  C   LIG A   1      -5.432   5.234 119.561  0.00  0.00    +0.059 A 
ATOM     11  C   LIG A   1      -5.948   4.582 120.684  0.00  0.00    +0.048 A 
ATOM     12  H   LIG A   1      -8.622   2.895 121.757  0.00  0.00    +0.166 HD
ENDROOT
BRANCH   9  13
ATOM     13  O   LIG A   1      -5.673   5.932 117.323  0.00  0.00    -0.507 OA
ATOM     14  H   LIG A   1      -4.945   6.505 117.615  0.00  0.00    +0.292 HD
ENDBRANCH   9  13
BRANCH   4  15
ATOM     15  C   LIG A   1      -7.596   2.453 124.104  0.00  0.00    +0.056 C 
BRANCH  15  16
ATOM     16  C   LIG A   1      -9.131   2.550 124.155  0.00  0.00    +0.040 C 
BRANCH  16  17
ATOM     17  C   LIG A   1      -9.837   1.183 124.271  0.00  0.00    +0.061 C 
ATOM     18  C   LIG A   1      -9.359   0.192 123.206  0.00  0.00    +0.041 C 
ATOM     19  C   LIG A   1      -9.617   0.583 125.665  0.00  0.00    +0.041 C 
BRANCH  17  20
ATOM     20  O   LIG A   1     -11.242   1.390 124.100  0.00  0.00    -0.389 OA
ATOM     21  H   LIG A   1     -11.381   2.325 123.869  0.00  0.00    +0.210 HD
ENDBRANCH  17  20
ENDBRANCH  16  17
ENDBRANCH  15  16
ENDBRANCH   4  15
TORSDOF 5
ENDMDL
MODEL 2
REMARK VINA RESULT:      -6.8      9.612     11.617
REMARK  Name = NuBBE_1248
REMARK  7 active torsions:
REMARK  status: ('A' for Active; 'I' for Inactive)
REMARK    1  A    between atoms: C_4  and  C_14
REMARK    2  A    between atoms: C_9  and  O_12
REMARK    3  A    between atoms: C_14  and  C_15
REMARK    4  A    between atoms: C_15  and  C_16
REMARK    5  A    between atoms: C_16  and  O_17
REMARK    6  A    between atoms: C_16  and  C_18
REMARK    7  A    between atoms: C_16  and  C_19
REMARK                            x       y       z     vdW  Elec       q    Type
REMARK                         _______ _______ _______ _____ _____    ______ ____
ROOT
ATOM      1  O   LIG A   1      -7.224   7.394 130.699  0.00  0.00    -0.287 OA
ATOM      2  C   LIG A   1      -8.218   6.791 131.095  0.00  0.00    +0.190 A 
ATOM      3  C   LIG A   1      -9.530   7.001 130.437  0.00  0.00    +0.072 A 
ATOM      4  C   LIG A   1     -10.602   6.303 130.851  0.00  0.00    +0.020 A 
ATOM      5  N   LIG A   1     -10.530   5.398 131.890  0.00  0.00    -0.358 N 
ATOM      6  C   LIG A   1      -9.351   5.200 132.620  0.00  0.00    +0.051 A 
ATOM      7  C   LIG A   1      -9.317   4.326 133.710  0.00  0.00    +0.030 A 
ATOM      8  C   LIG A   1      -8.126   4.118 134.414  0.00  0.00    +0.047 A 
ATOM      9  C   LIG A   1      -6.963   4.772 134.012  0.00  0.00    +0.118 A 
ATOM     10  C   LIG A   1      -6.969   5.638 132.926  0.00  0.00    +0.059 A 
ATOM     11  C   LIG A   1      -8.166   5.851 132.238  0.00  0.00    +0.048 A 
ATOM     12  H   LIG A   1     -11.395   4.999 132.238  0.00  0.00    +0.166 HD
ENDROOT
BRANCH   9  13
ATOM     13  O   LIG A   1      -5.784   4.588 134.671  0.00  0.00    -0.507 OA
ATOM     14  H   LIG A   1      -5.413   3.726 134.423  0.00  0.00    +0.292 HD
ENDBRANCH   9  13
BRANCH   4  15
ATOM     15  C   LIG A   1     -11.959   6.527 130.211  0.00  0.00    +0.056 C 
BRANCH  15  16
ATOM     16  C   LIG A   1     -12.315   8.015 130.047  0.00  0.00    +0.040 C 
BRANCH  16  17
ATOM     17  C   LIG A   1     -12.591   8.430 128.586  0.00  0.00    +0.061 C 
ATOM     18  C   LIG A   1     -11.339   8.337 127.710  0.00  0.00    +0.041 C 
ATOM     19  C   LIG A   1     -13.703   7.562 127.985  0.00  0.00    +0.041 C 
BRANCH  17  20
ATOM     20  O   LIG A   1     -13.046   9.786 128.586  0.00  0.00    -0.389 OA
ATOM     21  H   LIG A   1     -13.369   9.994 127.692  0.00  0.00    +0.210 HD
ENDBRANCH  17  20
ENDBRANCH  16  17
ENDBRANCH  15  16
ENDBRANCH   4  15
TORSDOF 5
ENDMDL
MODEL 3
REMARK VINA RESULT:      -6.7      9.990     10.834
REMARK  Name = NuBBE_1248
REMARK  7 active torsions:
REMARK  status: ('A' for Active; 'I' for Inactive)
REMARK    1  A    between atoms: C_4  and  C_14
REMARK    2  A    between atoms: C_9  and  O_12
REMARK    3  A    between atoms: C_14  and  C_15
REMARK    4  A    between atoms: C_15  and  C_16
REMARK    5  A    between atoms: C_16  and  O_17
REMARK    6  A    between atoms: C_16  and  C_18
REMARK    7  A    between atoms: C_16  and  C_19
REMARK                            x       y       z     vdW  Elec       q    Type
REMARK                         _______ _______ _______ _____ _____    ______ ____
ROOT
ATOM      1  O   LIG A   1      -7.673   7.360 130.335  0.00  0.00    -0.287 OA
ATOM      2  C   LIG A   1      -8.586   6.826 130.960  0.00  0.00    +0.190 A 
ATOM      3  C   LIG A   1      -8.284   5.893 132.072  0.00  0.00    +0.072 A 
ATOM      4  C   LIG A   1      -9.291   5.348 132.777  0.00  0.00    +0.020 A 
ATOM      5  N   LIG A   1     -10.614   5.615 132.490  0.00  0.00    -0.358 N 
ATOM      6  C   LIG A   1     -10.989   6.418 131.405  0.00  0.00    +0.051 A 
ATOM      7  C   LIG A   1     -12.337   6.623 131.093  0.00  0.00    +0.030 A 
ATOM      8  C   LIG A   1     -12.697   7.449 130.022  0.00  0.00    +0.047 A 
ATOM      9  C   LIG A   1     -11.707   8.085 129.276  0.00  0.00    +0.118 A 
ATOM     10  C   LIG A   1     -10.362   7.904 129.572  0.00  0.00    +0.059 A 
ATOM     11  C   LIG A   1     -10.010   7.067 130.634  0.00  0.00    +0.048 A 
ATOM     12  H   LIG A   1     -11.326   5.079 132.972  0.00  0.00    +0.166 HD
ENDROOT
BRANCH   9  13
ATOM     13  O   LIG A   1     -12.023   8.900 128.230  0.00  0.00    -0.507 OA
ATOM     14  H   LIG A   1     -12.363   9.741 128.575  0.00  0.00    +0.292 HD
ENDBRANCH   9  13
BRANCH   4  15
ATOM     15  C   LIG A   1      -9.003   4.368 133.898  0.00  0.00    +0.056 C 
BRANCH  15  16
ATOM     16  C   LIG A   1      -8.912   2.908 133.420  0.00  0.00    +0.040 C 
BRANCH  16  17
ATOM     17  C   LIG A   1      -7.466   2.392 133.270  0.00  0.00    +0.061 C 
ATOM     18  C   LIG A   1      -6.922   2.593 131.853  0.00  0.00    +0.041 C 
ATOM     19  C   LIG A   1      -6.543   3.089 134.277  0.00  0.00    +0.041 C 
BRANCH  17  20
ATOM     20  O   LIG A   1      -7.458   0.993 133.565  0.00  0.00    -0.389 OA
ATOM     21  H   LIG A   1      -7.553   0.509 132.726  0.00  0.00    +0.210 HD
ENDBRANCH  17  20
ENDBRANCH  16  17
ENDBRANCH  15  16
ENDBRANCH   4  15
TORSDOF 5
ENDMDL
MODEL 4
REMARK VINA RESULT:      -6.5      9.547     11.774
REMARK  Name = NuBBE_1248
REMARK  7 active torsions:
REMARK  status: ('A' for Active; 'I' for Inactive)
REMARK    1  A    between atoms: C_4  and  C_14
REMARK    2  A    between atoms: C_9  and  O_12
REMARK    3  A    between atoms: C_14  and  C_15
REMARK    4  A    between atoms: C_15  and  C_16
REMARK    5  A    between atoms: C_16  and  O_17
REMARK    6  A    between atoms: C_16  and  C_18
REMARK    7  A    between atoms: C_16  and  C_19
REMARK                            x       y       z     vdW  Elec       q    Type
REMARK                         _______ _______ _______ _____ _____    ______ ____
ROOT
ATOM      1  O   LIG A   1     -10.178   3.045 129.700  0.00  0.00    -0.287 OA
ATOM      2  C   LIG A   1     -10.259   3.887 130.590  0.00  0.00    +0.190 A 
ATOM      3  C   LIG A   1     -11.104   5.091 130.405  0.00  0.00    +0.072 A 
ATOM      4  C   LIG A   1     -11.219   5.984 131.403  0.00  0.00    +0.020 A 
ATOM      5  N   LIG A   1     -10.558   5.829 132.604  0.00  0.00    -0.358 N 
ATOM      6  C   LIG A   1      -9.675   4.766 132.832  0.00  0.00    +0.051 A 
ATOM      7  C   LIG A   1      -8.966   4.663 134.033  0.00  0.00    +0.030 A 
ATOM      8  C   LIG A   1      -8.107   3.581 134.257  0.00  0.00    +0.047 A 
ATOM      9  C   LIG A   1      -7.974   2.592 133.285  0.00  0.00    +0.118 A 
ATOM     10  C   LIG A   1      -8.675   2.667 132.089  0.00  0.00    +0.059 A 
ATOM     11  C   LIG A   1      -9.519   3.758 131.866  0.00  0.00    +0.048 A 
ATOM     12  H   LIG A   1     -10.584   6.596 133.267  0.00  0.00    +0.166 HD
ENDROOT
BRANCH   9  13
ATOM     13  O   LIG A   1      -7.151   1.522 133.473  0.00  0.00    -0.507 OA
ATOM     14  H   LIG A   1      -7.514   0.961 134.177  0.00  0.00    +0.292 HD
ENDBRANCH   9  13
BRANCH   4  15
ATOM     15  C   LIG A   1     -12.055   7.237 131.221  0.00  0.00    +0.056 C 
BRANCH  15  16
ATOM     16  C   LIG A   1     -12.946   7.196 129.967  0.00  0.00    +0.040 C 
BRANCH  16  17
ATOM     17  C   LIG A   1     -12.748   8.402 129.025  0.00  0.00    +0.061 C 
ATOM     18  C   LIG A   1     -13.029   9.735 129.723  0.00  0.00    +0.041 C 
ATOM     19  C   LIG A   1     -11.323   8.409 128.458  0.00  0.00    +0.041 C 
BRANCH  17  20
ATOM     20  O   LIG A   1     -13.655   8.264 127.928  0.00  0.00    -0.389 OA
ATOM     21  H   LIG A   1     -14.034   9.141 127.741  0.00  0.00    +0.210 HD
ENDBRANCH  17  20
ENDBRANCH  16  17
ENDBRANCH  15  16
ENDBRANCH   4  15
TORSDOF 5
ENDMDL
MODEL 5
REMARK VINA RESULT:      -6.5      1.938      3.040
REMARK  Name = NuBBE_1248
REMARK  7 active torsions:
REMARK  status: ('A' for Active; 'I' for Inactive)
REMARK    1  A    between atoms: C_4  and  C_14
REMARK    2  A    between atoms: C_9  and  O_12
REMARK    3  A    between atoms: C_14  and  C_15
REMARK    4  A    between atoms: C_15  and  C_16
REMARK    5  A    between atoms: C_16  and  O_17
REMARK    6  A    between atoms: C_16  and  C_18
REMARK    7  A    between atoms: C_16  and  C_19
REMARK                            x       y       z     vdW  Elec       q    Type
REMARK                         _______ _______ _______ _____ _____    ______ ____
ROOT
ATOM      1  O   LIG A   1      -5.275   3.509 125.292  0.00  0.00    -0.287 OA
ATOM      2  C   LIG A   1      -6.065   3.158 124.419  0.00  0.00    +0.190 A 
ATOM      3  C   LIG A   1      -7.125   2.168 124.725  0.00  0.00    +0.072 A 
ATOM      4  C   LIG A   1      -8.010   1.823 123.773  0.00  0.00    +0.020 A 
ATOM      5  N   LIG A   1      -7.959   2.353 122.500  0.00  0.00    -0.358 N 
ATOM      6  C   LIG A   1      -6.942   3.231 122.103  0.00  0.00    +0.051 A 
ATOM      7  C   LIG A   1      -6.873   3.705 120.790  0.00  0.00    +0.030 A 
ATOM      8  C   LIG A   1      -5.867   4.603 120.413  0.00  0.00    +0.047 A 
ATOM      9  C   LIG A   1      -4.942   5.039 121.360  0.00  0.00    +0.118 A 
ATOM     10  C   LIG A   1      -4.996   4.590 122.672  0.00  0.00    +0.059 A 
ATOM     11  C   LIG A   1      -5.995   3.683 123.037  0.00  0.00    +0.048 A 
ATOM     12  H   LIG A   1      -8.573   1.962 121.794  0.00  0.00    +0.166 HD
ENDROOT
BRANCH   9  13
ATOM     13  O   LIG A   1      -3.953   5.917 121.029  0.00  0.00    -0.507 OA
ATOM     14  H   LIG A   1      -4.227   6.425 120.248  0.00  0.00    +0.292 HD
ENDBRANCH   9  13
BRANCH   4  15
ATOM     15  C   LIG A   1      -9.082   0.789 124.058  0.00  0.00    +0.056 C 
BRANCH  15  16
ATOM     16  C   LIG A   1      -9.097  -0.366 123.040  0.00  0.00    +0.040 C 
BRANCH  16  17
ATOM     17  C   LIG A   1      -8.348  -1.627 123.521  0.00  0.00    +0.061 C 
ATOM     18  C   LIG A   1      -9.166  -2.903 123.307  0.00  0.00    +0.041 C 
ATOM     19  C   LIG A   1      -7.000  -1.755 122.802  0.00  0.00    +0.041 C 
BRANCH  17  20
ATOM     20  O   LIG A   1      -8.086  -1.485 124.919  0.00  0.00    -0.389 OA
ATOM     21  H   LIG A   1      -8.942  -1.443 125.382  0.00  0.00    +0.210 HD
ENDBRANCH  17  20
ENDBRANCH  16  17
ENDBRANCH  15  16
ENDBRANCH   4  15
TORSDOF 5
ENDMDL
MODEL 6
REMARK VINA RESULT:      -6.5     10.055     11.781
REMARK  Name = NuBBE_1248
REMARK  7 active torsions:
REMARK  status: ('A' for Active; 'I' for Inactive)
REMARK    1  A    between atoms: C_4  and  C_14
REMARK    2  A    between atoms: C_9  and  O_12
REMARK    3  A    between atoms: C_14  and  C_15
REMARK    4  A    between atoms: C_15  and  C_16
REMARK    5  A    between atoms: C_16  and  O_17
REMARK    6  A    between atoms: C_16  and  C_18
REMARK    7  A    between atoms: C_16  and  C_19
REMARK                            x       y       z     vdW  Elec       q    Type
REMARK                         _______ _______ _______ _____ _____    ______ ____
ROOT
ATOM      1  O   LIG A   1      -7.418   7.118 130.413  0.00  0.00    -0.287 OA
ATOM      2  C   LIG A   1      -8.303   6.669 131.137  0.00  0.00    +0.190 A 
ATOM      3  C   LIG A   1      -7.954   5.864 132.332  0.00  0.00    +0.072 A 
ATOM      4  C   LIG A   1      -8.930   5.414 133.140  0.00  0.00    +0.020 A 
ATOM      5  N   LIG A   1     -10.263   5.664 132.888  0.00  0.00    -0.358 N 
ATOM      6  C   LIG A   1     -10.685   6.344 131.738  0.00  0.00    +0.051 A 
ATOM      7  C   LIG A   1     -12.044   6.530 131.469  0.00  0.00    +0.030 A 
ATOM      8  C   LIG A   1     -12.450   7.234 130.330  0.00  0.00    +0.047 A 
ATOM      9  C   LIG A   1     -11.493   7.769 129.471  0.00  0.00    +0.118 A 
ATOM     10  C   LIG A   1     -10.137   7.606 129.722  0.00  0.00    +0.059 A 
ATOM     11  C   LIG A   1      -9.739   6.889 130.853  0.00  0.00    +0.048 A 
ATOM     12  H   LIG A   1     -10.955   5.194 133.461  0.00  0.00    +0.166 HD
ENDROOT
BRANCH   9  13
ATOM     13  O   LIG A   1     -11.853   8.466 128.355  0.00  0.00    -0.507 OA
ATOM     14  H   LIG A   1     -11.943   7.849 127.611  0.00  0.00    +0.292 HD
ENDBRANCH   9  13
BRANCH   4  15
ATOM     15  C   LIG A   1      -8.595   4.563 134.350  0.00  0.00    +0.056 C 
BRANCH  15  16
ATOM     16  C   LIG A   1      -7.087   4.297 134.506  0.00  0.00    +0.040 C 
BRANCH  16  17
ATOM     17  C   LIG A   1      -6.421   5.134 135.618  0.00  0.00    +0.061 C 
ATOM     18  C   LIG A   1      -5.368   6.099 135.065  0.00  0.00    +0.041 C 
ATOM     19  C   LIG A   1      -7.478   5.922 136.401  0.00  0.00    +0.041 C 
BRANCH  17  20
ATOM     20  O   LIG A   1      -5.780   4.237 136.529  0.00  0.00    -0.389 OA
ATOM     21  H   LIG A   1      -4.975   4.672 136.862  0.00  0.00    +0.210 HD
ENDBRANCH  17  20
ENDBRANCH  16  17
ENDBRANCH  15  16
ENDBRANCH   4  15
TORSDOF 5
ENDMDL
MODEL 7
REMARK VINA RESULT:      -6.3      8.692     10.110
REMARK  Name = NuBBE_1248
REMARK  7 active torsions:
REMARK  status: ('A' for Active; 'I' for Inactive)
REMARK    1  A    between atoms: C_4  and  C_14
REMARK    2  A    between atoms: C_9  and  O_12
REMARK    3  A    between atoms: C_14  and  C_15
REMARK    4  A    between atoms: C_15  and  C_16
REMARK    5  A    between atoms: C_16  and  O_17
REMARK    6  A    between atoms: C_16  and  C_18
REMARK    7  A    between atoms: C_16  and  C_19
REMARK                            x       y       z     vdW  Elec       q    Type
REMARK                         _______ _______ _______ _____ _____    ______ ____
ROOT
ATOM      1  O   LIG A   1      -9.042   5.752 128.268  0.00  0.00    -0.287 OA
ATOM      2  C   LIG A   1      -9.615   5.615 129.346  0.00  0.00    +0.190 A 
ATOM      3  C   LIG A   1      -9.235   4.509 130.257  0.00  0.00    +0.072 A 
ATOM      4  C   LIG A   1      -9.839   4.394 131.453  0.00  0.00    +0.020 A 
ATOM      5  N   LIG A   1     -10.824   5.270 131.863  0.00  0.00    -0.358 N 
ATOM      6  C   LIG A   1     -11.300   6.291 131.031  0.00  0.00    +0.051 A 
ATOM      7  C   LIG A   1     -12.343   7.126 131.442  0.00  0.00    +0.030 A 
ATOM      8  C   LIG A   1     -12.792   8.159 130.611  0.00  0.00    +0.047 A 
ATOM      9  C   LIG A   1     -12.180   8.367 129.376  0.00  0.00    +0.118 A 
ATOM     10  C   LIG A   1     -11.137   7.556 128.950  0.00  0.00    +0.059 A 
ATOM     11  C   LIG A   1     -10.704   6.518 129.780  0.00  0.00    +0.048 A 
ATOM     12  H   LIG A   1     -11.327   5.057 132.717  0.00  0.00    +0.166 HD
ENDROOT
BRANCH   9  13
ATOM     13  O   LIG A   1     -12.588   9.367 128.545  0.00  0.00    -0.507 OA
ATOM     14  H   LIG A   1     -13.442   9.709 128.854  0.00  0.00    +0.292 HD
ENDBRANCH   9  13
BRANCH   4  15
ATOM     15  C   LIG A   1      -9.486   3.252 132.386  0.00  0.00    +0.056 C 
BRANCH  15  16
ATOM     16  C   LIG A   1      -9.766   1.865 131.781  0.00  0.00    +0.040 C 
BRANCH  16  17
ATOM     17  C   LIG A   1      -8.490   1.063 131.449  0.00  0.00    +0.061 C 
ATOM     18  C   LIG A   1      -8.534  -0.358 132.017  0.00  0.00    +0.041 C 
ATOM     19  C   LIG A   1      -8.276   1.003 129.932  0.00  0.00    +0.041 C 
BRANCH  17  20
ATOM     20  O   LIG A   1      -7.372   1.746 132.022  0.00  0.00    -0.389 OA
ATOM     21  H   LIG A   1      -7.376   1.577 132.981  0.00  0.00    +0.210 HD
ENDBRANCH  17  20
ENDBRANCH  16  17
ENDBRANCH  15  16
ENDBRANCH   4  15
TORSDOF 5
ENDMDL
MODEL 8
REMARK VINA RESULT:      -6.2      7.396      9.745
REMARK  Name = NuBBE_1248
REMARK  7 active torsions:
REMARK  status: ('A' for Active; 'I' for Inactive)
REMARK    1  A    between atoms: C_4  and  C_14
REMARK    2  A    between atoms: C_9  and  O_12
REMARK    3  A    between atoms: C_14  and  C_15
REMARK    4  A    between atoms: C_15  and  C_16
REMARK    5  A    between atoms: C_16  and  O_17
REMARK    6  A    between atoms: C_16  and  C_18
REMARK    7  A    between atoms: C_16  and  C_19
REMARK                            x       y       z     vdW  Elec       q    Type
REMARK                         _______ _______ _______ _____ _____    ______ ____
ROOT
ATOM      1  O   LIG A   1      -9.414  -3.931 128.252  0.00  0.00    -0.287 OA
ATOM      2  C   LIG A   1      -8.403  -3.415 127.781  0.00  0.00    +0.190 A 
ATOM      3  C   LIG A   1      -7.272  -3.048 128.666  0.00  0.00    +0.072 A 
ATOM      4  C   LIG A   1      -6.154  -2.523 128.134  0.00  0.00    +0.020 A 
ATOM      5  N   LIG A   1      -6.024  -2.296 126.780  0.00  0.00    -0.358 N 
ATOM      6  C   LIG A   1      -7.074  -2.536 125.884  0.00  0.00    +0.051 A 
ATOM      7  C   LIG A   1      -6.943  -2.238 124.525  0.00  0.00    +0.030 A 
ATOM      8  C   LIG A   1      -7.991  -2.507 123.637  0.00  0.00    +0.047 A 
ATOM      9  C   LIG A   1      -9.163  -3.094 124.110  0.00  0.00    +0.118 A 
ATOM     10  C   LIG A   1      -9.313  -3.408 125.454  0.00  0.00    +0.059 A 
ATOM     11  C   LIG A   1      -8.268  -3.123 126.337  0.00  0.00    +0.048 A 
ATOM     12  H   LIG A   1      -5.211  -1.784 126.457  0.00  0.00    +0.166 HD
ENDROOT
BRANCH   9  13
ATOM     13  O   LIG A   1     -10.201  -3.375 123.272  0.00  0.00    -0.507 OA
ATOM     14  H   LIG A   1     -10.184  -2.756 122.526  0.00  0.00    +0.292 HD
ENDBRANCH   9  13
BRANCH   4  15
ATOM     15  C   LIG A   1      -4.998  -2.113 129.026  0.00  0.00    +0.056 C 
BRANCH  15  16
ATOM     16  C   LIG A   1      -4.222  -3.310 129.604  0.00  0.00    +0.040 C 
BRANCH  16  17
ATOM     17  C   LIG A   1      -4.514  -3.578 131.095  0.00  0.00    +0.061 C 
ATOM     18  C   LIG A   1      -5.224  -2.400 131.768  0.00  0.00    +0.041 C 
ATOM     19  C   LIG A   1      -5.361  -4.846 131.254  0.00  0.00    +0.041 C 
BRANCH  17  20
ATOM     20  O   LIG A   1      -3.268  -3.798 131.762  0.00  0.00    -0.389 OA
ATOM     21  H   LIG A   1      -3.013  -2.969 132.202  0.00  0.00    +0.210 HD
ENDBRANCH  17  20
ENDBRANCH  16  17
ENDBRANCH  15  16
ENDBRANCH   4  15
TORSDOF 5
ENDMDL
MODEL 9
REMARK VINA RESULT:      -6.2      8.851     10.868
REMARK  Name = NuBBE_1248
REMARK  7 active torsions:
REMARK  status: ('A' for Active; 'I' for Inactive)
REMARK    1  A    between atoms: C_4  and  C_14
REMARK    2  A    between atoms: C_9  and  O_12
REMARK    3  A    between atoms: C_14  and  C_15
REMARK    4  A    between atoms: C_15  and  C_16
REMARK    5  A    between atoms: C_16  and  O_17
REMARK    6  A    between atoms: C_16  and  C_18
REMARK    7  A    between atoms: C_16  and  C_19
REMARK                            x       y       z     vdW  Elec       q    Type
REMARK                         _______ _______ _______ _____ _____    ______ ____
ROOT
ATOM      1  O   LIG A   1      -9.055   5.713 128.246  0.00  0.00    -0.287 OA
ATOM      2  C   LIG A   1      -9.603   5.606 129.340  0.00  0.00    +0.190 A 
ATOM      3  C   LIG A   1      -9.189   4.539 130.282  0.00  0.00    +0.072 A 
ATOM      4  C   LIG A   1      -9.766   4.458 131.494  0.00  0.00    +0.020 A 
ATOM      5  N   LIG A   1     -10.755   5.334 131.893  0.00  0.00    -0.358 N 
ATOM      6  C   LIG A   1     -11.264   6.318 131.036  0.00  0.00    +0.051 A 
ATOM      7  C   LIG A   1     -12.310   7.153 131.439  0.00  0.00    +0.030 A 
ATOM      8  C   LIG A   1     -12.791   8.150 130.583  0.00  0.00    +0.047 A 
ATOM      9  C   LIG A   1     -12.208   8.322 129.328  0.00  0.00    +0.118 A 
ATOM     10  C   LIG A   1     -11.162   7.511 128.909  0.00  0.00    +0.059 A 
ATOM     11  C   LIG A   1     -10.697   6.509 129.765  0.00  0.00    +0.048 A 
ATOM     12  H   LIG A   1     -11.237   5.145 132.765  0.00  0.00    +0.166 HD
ENDROOT
BRANCH   9  13
ATOM     13  O   LIG A   1     -12.648   9.286 128.471  0.00  0.00    -0.507 OA
ATOM     14  H   LIG A   1     -12.221  10.129 128.695  0.00  0.00    +0.292 HD
ENDBRANCH   9  13
BRANCH   4  15
ATOM     15  C   LIG A   1      -9.378   3.355 132.459  0.00  0.00    +0.056 C 
BRANCH  15  16
ATOM     16  C   LIG A   1      -9.071   3.868 133.877  0.00  0.00    +0.040 C 
BRANCH  16  17
ATOM     17  C   LIG A   1      -7.572   4.128 134.133  0.00  0.00    +0.061 C 
ATOM     18  C   LIG A   1      -7.332   4.909 135.427  0.00  0.00    +0.041 C 
ATOM     19  C   LIG A   1      -6.800   2.805 134.181  0.00  0.00    +0.041 C 
BRANCH  17  20
ATOM     20  O   LIG A   1      -7.059   4.894 133.039  0.00  0.00    -0.389 OA
ATOM     21  H   LIG A   1      -7.804   5.121 132.456  0.00  0.00    +0.210 HD
ENDBRANCH  17  20
ENDBRANCH  16  17
ENDBRANCH  15  16
ENDBRANCH   4  15
TORSDOF 5
ENDMDL
