MODEL 1
REMARK VINA RESULT:     -10.3      0.000      0.000
REMARK  Name = NuBBE_1252
REMARK  18 active torsions:
REMARK  status: ('A' for Active; 'I' for Inactive)
REMARK    1  A    between atoms: C_1  and  C_2
REMARK    2  A    between atoms: C_7  and  C_18
REMARK    3  A    between atoms: C_9  and  O_11
REMARK    4  A    between atoms: C_12  and  O_14
REMARK    5  A    between atoms: C_15  and  C_16
REMARK    6  A    between atoms: C_15  and  C_17
REMARK    7  A    between atoms: C_24  and  C_25
REMARK    8  A    between atoms: C_28  and  C_29
REMARK    9  A    between atoms: C_29  and  O_30
REMARK   10  A    between atoms: O_30  and  O_31
REMARK   11  A    between atoms: O_31  and  C_32
REMARK   12  A    between atoms: C_32  and  C_33
REMARK   13  A    between atoms: C_35  and  O_47
REMARK   14  A    between atoms: C_37  and  O_46
REMARK   15  A    between atoms: C_39  and  O_45
REMARK   16  A    between atoms: C_41  and  O_44
REMARK   17  A    between atoms: C_52  and  C_53
REMARK   18  A    between atoms: C_52  and  C_54
REMARK                            x       y       z     vdW  Elec       q    Type
REMARK                         _______ _______ _______ _____ _____    ______ ____
ROOT
ATOM      1  C   LIG A   1      -4.203  -2.190 129.028  0.00  0.00    +0.012 C 
ATOM      2  C   LIG A   1      -5.647  -1.633 129.039  0.00  0.00    -0.019 C 
ATOM      3  C   LIG A   1      -6.653  -2.786 128.865  0.00  0.00    +0.008 C 
ATOM      4  C   LIG A   1      -7.280  -2.947 127.496  0.00  0.00    +0.005 C 
ATOM      5  C   LIG A   1      -7.714  -1.627 126.834  0.00  0.00    +0.003 C 
ATOM      6  C   LIG A   1      -6.523  -0.569 126.818  0.00  0.00    -0.023 C 
ATOM      7  C   LIG A   1      -6.786   0.553 125.755  0.00  0.00    +0.041 C 
ATOM      8  C   LIG A   1      -7.581   0.233 124.476  0.00  0.00    +0.144 C 
ATOM      9  C   LIG A   1      -8.834  -0.584 124.765  0.00  0.00    +0.149 C 
ATOM     10  C   LIG A   1      -8.529  -1.912 125.500  0.00  0.00    -0.003 C 
ATOM     11  C   LIG A   1      -7.861  -2.927 124.544  0.00  0.00    +0.014 C 
ATOM     12  C   LIG A   1      -9.905  -2.551 125.870  0.00  0.00    +0.014 C 
ATOM     13  C   LIG A   1      -5.261  -1.277 126.127  0.00  0.00    +0.012 C 
ATOM     14  C   LIG A   1      -5.905  -0.177 128.488  0.00  0.00    +0.006 C 
ATOM     15  C   LIG A   1      -6.080   1.114 130.155  0.00  0.00    +0.031 C 
ATOM     16  C   LIG A   1      -4.891   1.238 131.075  0.00  0.00    -0.026 C 
ATOM     17  C   LIG A   1      -4.530   0.481 130.088  0.00  0.00    -0.063 C 
ATOM     18  C   LIG A   1      -5.942  -0.858 130.213  0.00  0.00    -0.005 C 
ATOM     19  C   LIG A   1      -5.968  -1.568 131.574  0.00  0.00    +0.016 C 
ATOM     20  C   LIG A   1      -7.710  -0.169 129.713  0.00  0.00    +0.012 C 
ATOM     21  C   LIG A   1      -7.694   1.380 128.613  0.00  0.00    +0.019 C 
ATOM     22  C   LIG A   1      -6.174   2.495 128.313  0.00  0.00    +0.077 C 
ATOM     23  C   LIG A   1      -4.538   1.815 128.763  0.00  0.00    +0.033 C 
ATOM     24  C   LIG A   1      -3.504   2.952 128.919  0.00  0.00    +0.015 C 
ATOM     25  C   LIG A   1      -3.389   3.808 127.617  0.00  0.00    -0.034 C 
ATOM     26  C   LIG A   1      -2.595   5.088 127.946  0.00  0.00    +0.011 C 
ATOM     27  C   LIG A   1      -2.581   3.021 126.555  0.00  0.00    +0.011 C 
ATOM     28  C   LIG A   1      -4.757   4.245 127.007  0.00  0.00    +0.007 C 
ATOM     29  C   LIG A   1      -5.875   3.174 126.950  0.00  0.00    +0.019 C 
ENDROOT
BRANCH   8  30
ATOM     30  O   LIG A   1      -6.751  -0.355 123.484  0.00  0.00    -0.389 OA
ATOM     31  H   LIG A   1      -7.269  -1.036 123.019  0.00  0.00    +0.210 HD
ENDBRANCH   8  30
BRANCH   9  32
ATOM     32  O   LIG A   1      -9.729   0.214 125.552  0.00  0.00    -0.389 OA
ATOM     33  H   LIG A   1      -9.881   1.048 125.077  0.00  0.00    +0.210 HD
ENDBRANCH   9  32
BRANCH  22  34
ATOM     34  C   LIG A   1      -6.555   3.820 129.138  0.00  0.00    +0.350 C 
ATOM     35  O   LIG A   1      -5.962   4.262 130.116  0.00  0.00    -0.247 OA
BRANCH  34  36
ATOM     36  O   LIG A   1      -7.641   4.439 128.559  0.00  0.00    -0.296 OA
BRANCH  36  37
ATOM     37  O   LIG A   1      -8.151   5.423 129.525  0.00  0.00    -0.181 OA
BRANCH  37  38
ATOM     38  C   LIG A   1      -9.394   4.896 129.991  0.00  0.00    +0.249 C 
BRANCH  38  39
ATOM     39  C   LIG A   1     -10.583   5.768 129.561  0.00  0.00    +0.182 C 
ATOM     40  C   LIG A   1     -10.213   6.900 128.577  0.00  0.00    +0.177 C 
ATOM     41  C   LIG A   1     -11.438   7.801 128.321  0.00  0.00    +0.179 C 
ATOM     42  C   LIG A   1     -12.095   8.229 129.632  0.00  0.00    +0.201 C 
ATOM     43  C   LIG A   1     -12.418   6.968 130.444  0.00  0.00    +0.279 C 
ATOM     44  O   LIG A   1     -11.201   6.294 130.746  0.00  0.00    -0.341 OA
BRANCH  43  45
ATOM     45  O   LIG A   1     -13.088   7.319 131.646  0.00  0.00    -0.365 OA
ATOM     46  H   LIG A   1     -13.759   6.622 131.773  0.00  0.00    +0.213 HD
ENDBRANCH  43  45
BRANCH  42  47
ATOM     47  O   LIG A   1     -13.292   8.980 129.377  0.00  0.00    -0.384 OA
ATOM     48  H   LIG A   1     -13.921   8.326 129.012  0.00  0.00    +0.210 HD
ENDBRANCH  42  47
BRANCH  41  49
ATOM     49  O   LIG A   1     -11.065   8.977 127.585  0.00  0.00    -0.386 OA
ATOM     50  H   LIG A   1     -11.456   9.727 128.076  0.00  0.00    +0.210 HD
ENDBRANCH  41  49
BRANCH  40  51
ATOM     51  O   LIG A   1      -9.787   6.371 127.312  0.00  0.00    -0.387 OA
ATOM     52  H   LIG A   1     -10.409   6.696 126.632  0.00  0.00    +0.210 HD
ENDBRANCH  40  51
ENDBRANCH  38  39
ENDBRANCH  37  38
ENDBRANCH  36  37
ENDBRANCH  34  36
ENDBRANCH  22  34
TORSDOF 11
ENDMDL
MODEL 2
REMARK VINA RESULT:     -10.1      3.174      6.268
REMARK  Name = NuBBE_1252
REMARK  18 active torsions:
REMARK  status: ('A' for Active; 'I' for Inactive)
REMARK    1  A    between atoms: C_1  and  C_2
REMARK    2  A    between atoms: C_7  and  C_18
REMARK    3  A    between atoms: C_9  and  O_11
REMARK    4  A    between atoms: C_12  and  O_14
REMARK    5  A    between atoms: C_15  and  C_16
REMARK    6  A    between atoms: C_15  and  C_17
REMARK    7  A    between atoms: C_24  and  C_25
REMARK    8  A    between atoms: C_28  and  C_29
REMARK    9  A    between atoms: C_29  and  O_30
REMARK   10  A    between atoms: O_30  and  O_31
REMARK   11  A    between atoms: O_31  and  C_32
REMARK   12  A    between atoms: C_32  and  C_33
REMARK   13  A    between atoms: C_35  and  O_47
REMARK   14  A    between atoms: C_37  and  O_46
REMARK   15  A    between atoms: C_39  and  O_45
REMARK   16  A    between atoms: C_41  and  O_44
REMARK   17  A    between atoms: C_52  and  C_53
REMARK   18  A    between atoms: C_52  and  C_54
REMARK                            x       y       z     vdW  Elec       q    Type
REMARK                         _______ _______ _______ _____ _____    ______ ____
ROOT
ATOM      1  C   LIG A   1      -9.057   3.779 133.802  0.00  0.00    +0.012 C 
ATOM      2  C   LIG A   1      -8.806   3.377 132.329  0.00  0.00    -0.019 C 
ATOM      3  C   LIG A   1      -9.742   2.218 131.937  0.00  0.00    +0.008 C 
ATOM      4  C   LIG A   1      -9.129   0.835 131.875  0.00  0.00    +0.005 C 
ATOM      5  C   LIG A   1      -7.745   0.780 131.207  0.00  0.00    +0.003 C 
ATOM      6  C   LIG A   1      -6.747   1.838 131.855  0.00  0.00    -0.023 C 
ATOM      7  C   LIG A   1      -5.257   1.471 131.535  0.00  0.00    +0.041 C 
ATOM      8  C   LIG A   1      -4.845  -0.002 131.358  0.00  0.00    +0.144 C 
ATOM      9  C   LIG A   1      -5.823  -0.772 130.481  0.00  0.00    +0.149 C 
ATOM     10  C   LIG A   1      -7.275  -0.727 131.016  0.00  0.00    -0.003 C 
ATOM     11  C   LIG A   1      -7.423  -1.609 132.277  0.00  0.00    +0.014 C 
ATOM     12  C   LIG A   1      -8.177  -1.409 129.939  0.00  0.00    +0.014 C 
ATOM     13  C   LIG A   1      -6.734   1.580 133.437  0.00  0.00    +0.012 C 
ATOM     14  C   LIG A   1      -7.357   3.553 131.728  0.00  0.00    +0.006 C 
ATOM     15  C   LIG A   1      -7.354   5.324 130.573  0.00  0.00    +0.031 C 
ATOM     16  C   LIG A   1      -7.656   6.623 131.279  0.00  0.00    -0.026 C 
ATOM     17  C   LIG A   1      -7.619   5.698 132.185  0.00  0.00    -0.063 C 
ATOM     18  C   LIG A   1      -8.932   4.480 131.415  0.00  0.00    -0.005 C 
ATOM     19  C   LIG A   1     -10.312   5.130 131.235  0.00  0.00    +0.016 C 
ATOM     20  C   LIG A   1      -8.312   3.612 129.768  0.00  0.00    +0.012 C 
ATOM     21  C   LIG A   1      -6.426   3.555 129.543  0.00  0.00    +0.019 C 
ATOM     22  C   LIG A   1      -5.172   4.586 130.546  0.00  0.00    +0.077 C 
ATOM     23  C   LIG A   1      -5.772   5.360 132.090  0.00  0.00    +0.033 C 
ATOM     24  C   LIG A   1      -4.834   6.510 132.518  0.00  0.00    +0.015 C 
ATOM     25  C   LIG A   1      -3.363   6.017 132.702  0.00  0.00    -0.034 C 
ATOM     26  C   LIG A   1      -2.446   7.251 132.813  0.00  0.00    +0.011 C 
ATOM     27  C   LIG A   1      -3.249   5.232 134.033  0.00  0.00    +0.011 C 
ATOM     28  C   LIG A   1      -2.826   5.134 131.532  0.00  0.00    +0.007 C 
ATOM     29  C   LIG A   1      -3.782   4.048 130.976  0.00  0.00    +0.019 C 
ENDROOT
BRANCH   8  30
ATOM     30  O   LIG A   1      -4.612  -0.628 132.612  0.00  0.00    -0.389 OA
ATOM     31  H   LIG A   1      -3.962  -1.340 132.479  0.00  0.00    +0.210 HD
ENDBRANCH   8  30
BRANCH   9  32
ATOM     32  O   LIG A   1      -5.777  -0.226 129.155  0.00  0.00    -0.389 OA
ATOM     33  H   LIG A   1      -6.681  -0.233 128.798  0.00  0.00    +0.210 HD
ENDBRANCH   9  32
BRANCH  22  34
ATOM     34  C   LIG A   1      -4.666   5.656 129.460  0.00  0.00    +0.350 C 
ATOM     35  O   LIG A   1      -4.917   6.857 129.450  0.00  0.00    -0.247 OA
BRANCH  34  36
ATOM     36  O   LIG A   1      -3.849   5.040 128.537  0.00  0.00    -0.296 OA
BRANCH  36  37
ATOM     37  O   LIG A   1      -4.342   5.407 127.201  0.00  0.00    -0.181 OA
BRANCH  37  38
ATOM     38  C   LIG A   1      -4.099   4.267 126.375  0.00  0.00    +0.249 C 
BRANCH  38  39
ATOM     39  C   LIG A   1      -5.395   3.721 125.757  0.00  0.00    +0.182 C 
ATOM     40  C   LIG A   1      -6.571   4.723 125.768  0.00  0.00    +0.177 C 
ATOM     41  C   LIG A   1      -7.856   4.037 125.263  0.00  0.00    +0.179 C 
ATOM     42  C   LIG A   1      -8.092   2.706 125.975  0.00  0.00    +0.201 C 
ATOM     43  C   LIG A   1      -6.832   1.845 125.816  0.00  0.00    +0.279 C 
ATOM     44  O   LIG A   1      -5.742   2.509 126.446  0.00  0.00    -0.341 OA
BRANCH  43  45
ATOM     45  O   LIG A   1      -7.031   0.572 126.412  0.00  0.00    -0.365 OA
ATOM     46  H   LIG A   1      -6.138   0.185 126.486  0.00  0.00    +0.213 HD
ENDBRANCH  43  45
BRANCH  42  47
ATOM     47  O   LIG A   1      -9.232   2.030 125.422  0.00  0.00    -0.384 OA
ATOM     48  H   LIG A   1      -8.957   1.781 124.517  0.00  0.00    +0.210 HD
ENDBRANCH  42  47
BRANCH  41  49
ATOM     49  O   LIG A   1      -9.002   4.880 125.467  0.00  0.00    -0.386 OA
ATOM     50  H   LIG A   1      -9.473   4.498 126.234  0.00  0.00    +0.210 HD
ENDBRANCH  41  49
BRANCH  40  51
ATOM     51  O   LIG A   1      -6.308   5.844 124.912  0.00  0.00    -0.387 OA
ATOM     52  H   LIG A   1      -5.339   5.965 124.874  0.00  0.00    +0.210 HD
ENDBRANCH  40  51
ENDBRANCH  38  39
ENDBRANCH  37  38
ENDBRANCH  36  37
ENDBRANCH  34  36
ENDBRANCH  22  34
TORSDOF 11
ENDMDL
MODEL 3
REMARK VINA RESULT:      -9.8      3.159      6.154
REMARK  Name = NuBBE_1252
REMARK  18 active torsions:
REMARK  status: ('A' for Active; 'I' for Inactive)
REMARK    1  A    between atoms: C_1  and  C_2
REMARK    2  A    between atoms: C_7  and  C_18
REMARK    3  A    between atoms: C_9  and  O_11
REMARK    4  A    between atoms: C_12  and  O_14
REMARK    5  A    between atoms: C_15  and  C_16
REMARK    6  A    between atoms: C_15  and  C_17
REMARK    7  A    between atoms: C_24  and  C_25
REMARK    8  A    between atoms: C_28  and  C_29
REMARK    9  A    between atoms: C_29  and  O_30
REMARK   10  A    between atoms: O_30  and  O_31
REMARK   11  A    between atoms: O_31  and  C_32
REMARK   12  A    between atoms: C_32  and  C_33
REMARK   13  A    between atoms: C_35  and  O_47
REMARK   14  A    between atoms: C_37  and  O_46
REMARK   15  A    between atoms: C_39  and  O_45
REMARK   16  A    between atoms: C_41  and  O_44
REMARK   17  A    between atoms: C_52  and  C_53
REMARK   18  A    between atoms: C_52  and  C_54
REMARK                            x       y       z     vdW  Elec       q    Type
REMARK                         _______ _______ _______ _____ _____    ______ ____
ROOT
ATOM      1  C   LIG A   1      -8.191   2.484 132.963  0.00  0.00    +0.012 C 
ATOM      2  C   LIG A   1      -8.359   1.892 131.544  0.00  0.00    -0.019 C 
ATOM      3  C   LIG A   1      -9.227   0.621 131.607  0.00  0.00    +0.008 C 
ATOM      4  C   LIG A   1      -8.506  -0.706 131.512  0.00  0.00    +0.005 C 
ATOM      5  C   LIG A   1      -7.396  -0.755 130.448  0.00  0.00    +0.003 C 
ATOM      6  C   LIG A   1      -6.378   0.459 130.617  0.00  0.00    -0.023 C 
ATOM      7  C   LIG A   1      -5.026   0.162 129.882  0.00  0.00    +0.041 C 
ATOM      8  C   LIG A   1      -4.519  -1.286 129.754  0.00  0.00    +0.144 C 
ATOM      9  C   LIG A   1      -5.622  -2.247 129.329  0.00  0.00    +0.149 C 
ATOM     10  C   LIG A   1      -6.834  -2.233 130.291  0.00  0.00    -0.003 C 
ATOM     11  C   LIG A   1      -6.484  -2.931 131.626  0.00  0.00    +0.014 C 
ATOM     12  C   LIG A   1      -7.936  -3.131 129.644  0.00  0.00    +0.014 C 
ATOM     13  C   LIG A   1      -5.852   0.435 132.131  0.00  0.00    +0.012 C 
ATOM     14  C   LIG A   1      -7.194   2.086 130.496  0.00  0.00    +0.006 C 
ATOM     15  C   LIG A   1      -7.753   3.665 129.206  0.00  0.00    +0.031 C 
ATOM     16  C   LIG A   1      -7.974   5.027 129.817  0.00  0.00    -0.026 C 
ATOM     17  C   LIG A   1      -7.553   4.250 130.763  0.00  0.00    -0.063 C 
ATOM     18  C   LIG A   1      -8.887   2.837 130.598  0.00  0.00    -0.005 C 
ATOM     19  C   LIG A   1     -10.322   3.349 130.795  0.00  0.00    +0.016 C 
ATOM     20  C   LIG A   1      -8.705   1.787 128.951  0.00  0.00    +0.012 C 
ATOM     21  C   LIG A   1      -6.985   1.839 128.143  0.00  0.00    +0.019 C 
ATOM     22  C   LIG A   1      -5.614   3.097 128.568  0.00  0.00    +0.077 C 
ATOM     23  C   LIG A   1      -5.798   4.041 130.123  0.00  0.00    +0.033 C 
ATOM     24  C   LIG A   1      -4.916   5.307 130.094  0.00  0.00    +0.015 C 
ATOM     25  C   LIG A   1      -3.412   4.958 129.854  0.00  0.00    -0.034 C 
ATOM     26  C   LIG A   1      -2.656   6.261 129.525  0.00  0.00    +0.011 C 
ATOM     27  C   LIG A   1      -2.804   4.387 131.160  0.00  0.00    +0.011 C 
ATOM     28  C   LIG A   1      -3.159   3.957 128.684  0.00  0.00    +0.007 C 
ATOM     29  C   LIG A   1      -4.106   2.733 128.590  0.00  0.00    +0.019 C 
ENDROOT
BRANCH   8  30
ATOM     30  O   LIG A   1      -3.841  -1.704 130.931  0.00  0.00    -0.389 OA
ATOM     31  H   LIG A   1      -2.924  -1.383 130.882  0.00  0.00    +0.210 HD
ENDBRANCH   8  30
BRANCH   9  32
ATOM     32  O   LIG A   1      -6.048  -1.899 128.005  0.00  0.00    -0.389 OA
ATOM     33  H   LIG A   1      -6.395  -0.991 128.033  0.00  0.00    +0.210 HD
ENDBRANCH   9  32
BRANCH  22  34
ATOM     34  C   LIG A   1      -5.593   4.032 127.261  0.00  0.00    +0.350 C 
ATOM     35  O   LIG A   1      -5.620   5.259 127.245  0.00  0.00    -0.247 OA
BRANCH  34  36
ATOM     36  O   LIG A   1      -5.492   3.256 126.128  0.00  0.00    -0.296 OA
BRANCH  36  37
ATOM     37  O   LIG A   1      -6.562   3.677 125.211  0.00  0.00    -0.181 OA
BRANCH  37  38
ATOM     38  C   LIG A   1      -6.331   2.962 123.996  0.00  0.00    +0.249 C 
BRANCH  38  39
ATOM     39  C   LIG A   1      -7.375   1.855 123.777  0.00  0.00    +0.182 C 
ATOM     40  C   LIG A   1      -8.525   1.859 124.808  0.00  0.00    +0.177 C 
ATOM     41  C   LIG A   1      -9.434   0.632 124.591  0.00  0.00    +0.179 C 
ATOM     42  C   LIG A   1      -8.616  -0.654 124.490  0.00  0.00    +0.201 C 
ATOM     43  C   LIG A   1      -7.561  -0.469 123.393  0.00  0.00    +0.279 C 
ATOM     44  O   LIG A   1      -6.691   0.593 123.769  0.00  0.00    -0.341 OA
BRANCH  43  45
ATOM     45  O   LIG A   1      -6.816  -1.666 123.223  0.00  0.00    -0.365 OA
ATOM     46  H   LIG A   1      -5.885  -1.406 123.358  0.00  0.00    +0.213 HD
ENDBRANCH  43  45
BRANCH  42  47
ATOM     47  O   LIG A   1      -9.465  -1.772 124.184  0.00  0.00    -0.384 OA
ATOM     48  H   LIG A   1      -8.857  -2.536 124.130  0.00  0.00    +0.210 HD
ENDBRANCH  42  47
BRANCH  41  49
ATOM     49  O   LIG A   1     -10.378   0.497 125.666  0.00  0.00    -0.386 OA
ATOM     50  H   LIG A   1      -9.936  -0.066 126.331  0.00  0.00    +0.210 HD
ENDBRANCH  41  49
BRANCH  40  51
ATOM     51  O   LIG A   1      -9.338   3.034 124.678  0.00  0.00    -0.387 OA
ATOM     52  H   LIG A   1      -8.739   3.805 124.645  0.00  0.00    +0.210 HD
ENDBRANCH  40  51
ENDBRANCH  38  39
ENDBRANCH  37  38
ENDBRANCH  36  37
ENDBRANCH  34  36
ENDBRANCH  22  34
TORSDOF 11
ENDMDL
MODEL 4
REMARK VINA RESULT:      -9.3      1.331      2.314
REMARK  Name = NuBBE_1252
REMARK  18 active torsions:
REMARK  status: ('A' for Active; 'I' for Inactive)
REMARK    1  A    between atoms: C_1  and  C_2
REMARK    2  A    between atoms: C_7  and  C_18
REMARK    3  A    between atoms: C_9  and  O_11
REMARK    4  A    between atoms: C_12  and  O_14
REMARK    5  A    between atoms: C_15  and  C_16
REMARK    6  A    between atoms: C_15  and  C_17
REMARK    7  A    between atoms: C_24  and  C_25
REMARK    8  A    between atoms: C_28  and  C_29
REMARK    9  A    between atoms: C_29  and  O_30
REMARK   10  A    between atoms: O_30  and  O_31
REMARK   11  A    between atoms: O_31  and  C_32
REMARK   12  A    between atoms: C_32  and  C_33
REMARK   13  A    between atoms: C_35  and  O_47
REMARK   14  A    between atoms: C_37  and  O_46
REMARK   15  A    between atoms: C_39  and  O_45
REMARK   16  A    between atoms: C_41  and  O_44
REMARK   17  A    between atoms: C_52  and  C_53
REMARK   18  A    between atoms: C_52  and  C_54
REMARK                            x       y       z     vdW  Elec       q    Type
REMARK                         _______ _______ _______ _____ _____    ______ ____
ROOT
ATOM      1  C   LIG A   1      -4.515  -2.015 129.553  0.00  0.00    +0.012 C 
ATOM      2  C   LIG A   1      -5.939  -1.458 129.317  0.00  0.00    -0.019 C 
ATOM      3  C   LIG A   1      -6.942  -2.621 129.201  0.00  0.00    +0.008 C 
ATOM      4  C   LIG A   1      -7.414  -2.981 127.808  0.00  0.00    +0.005 C 
ATOM      5  C   LIG A   1      -7.744  -1.774 126.914  0.00  0.00    +0.003 C 
ATOM      6  C   LIG A   1      -6.539  -0.734 126.878  0.00  0.00    -0.023 C 
ATOM      7  C   LIG A   1      -6.658   0.218 125.638  0.00  0.00    +0.041 C 
ATOM      8  C   LIG A   1      -7.311  -0.286 124.338  0.00  0.00    +0.144 C 
ATOM      9  C   LIG A   1      -8.604  -1.046 124.600  0.00  0.00    +0.149 C 
ATOM     10  C   LIG A   1      -8.410  -2.251 125.553  0.00  0.00    -0.003 C 
ATOM     11  C   LIG A   1      -7.660  -3.400 124.840  0.00  0.00    +0.014 C 
ATOM     12  C   LIG A   1      -9.832  -2.823 125.853  0.00  0.00    +0.014 C 
ATOM     13  C   LIG A   1      -5.222  -1.541 126.448  0.00  0.00    +0.012 C 
ATOM     14  C   LIG A   1      -6.104  -0.099 128.532  0.00  0.00    +0.006 C 
ATOM     15  C   LIG A   1      -6.439   1.426 129.958  0.00  0.00    +0.031 C 
ATOM     16  C   LIG A   1      -5.359   1.682 130.980  0.00  0.00    -0.026 C 
ATOM     17  C   LIG A   1      -4.904   0.786 130.163  0.00  0.00    -0.063 C 
ATOM     18  C   LIG A   1      -6.348  -0.515 130.322  0.00  0.00    -0.005 C 
ATOM     19  C   LIG A   1      -6.542  -1.015 131.762  0.00  0.00    +0.016 C 
ATOM     20  C   LIG A   1      -8.034   0.097 129.528  0.00  0.00    +0.012 C 
ATOM     21  C   LIG A   1      -7.864   1.465 128.220  0.00  0.00    +0.019 C 
ATOM     22  C   LIG A   1      -6.298   2.518 127.934  0.00  0.00    +0.077 C 
ATOM     23  C   LIG A   1      -4.736   1.907 128.664  0.00  0.00    +0.033 C 
ATOM     24  C   LIG A   1      -3.704   3.051 128.766  0.00  0.00    +0.015 C 
ATOM     25  C   LIG A   1      -3.426   3.704 127.375  0.00  0.00    -0.034 C 
ATOM     26  C   LIG A   1      -2.648   5.016 127.599  0.00  0.00    +0.011 C 
ATOM     27  C   LIG A   1      -2.520   2.764 126.540  0.00  0.00    +0.011 C 
ATOM     28  C   LIG A   1      -4.708   4.050 126.555  0.00  0.00    +0.007 C 
ATOM     29  C   LIG A   1      -5.834   2.985 126.530  0.00  0.00    +0.019 C 
ENDROOT
BRANCH   8  30
ATOM     30  O   LIG A   1      -6.386  -1.018 123.545  0.00  0.00    -0.389 OA
ATOM     31  H   LIG A   1      -5.660  -1.312 124.121  0.00  0.00    +0.210 HD
ENDBRANCH   8  30
BRANCH   9  32
ATOM     32  O   LIG A   1      -9.565  -0.137 125.153  0.00  0.00    -0.389 OA
ATOM     33  H   LIG A   1      -9.090   0.660 125.441  0.00  0.00    +0.210 HD
ENDBRANCH   9  32
BRANCH  22  34
ATOM     34  C   LIG A   1      -6.742   3.952 128.506  0.00  0.00    +0.350 C 
ATOM     35  O   LIG A   1      -7.618   4.678 128.047  0.00  0.00    -0.247 OA
BRANCH  34  36
ATOM     36  O   LIG A   1      -6.021   4.250 129.642  0.00  0.00    -0.296 OA
BRANCH  36  37
ATOM     37  O   LIG A   1      -5.778   5.700 129.638  0.00  0.00    -0.181 OA
BRANCH  37  38
ATOM     38  C   LIG A   1      -5.894   6.113 131.001  0.00  0.00    +0.249 C 
BRANCH  38  39
ATOM     39  C   LIG A   1      -7.324   6.560 131.343  0.00  0.00    +0.182 C 
ATOM     40  C   LIG A   1      -8.083   5.590 132.276  0.00  0.00    +0.177 C 
ATOM     41  C   LIG A   1      -9.545   6.050 132.441  0.00  0.00    +0.179 C 
ATOM     42  C   LIG A   1     -10.193   6.337 131.088  0.00  0.00    +0.201 C 
ATOM     43  C   LIG A   1      -9.313   7.343 130.336  0.00  0.00    +0.279 C 
ATOM     44  O   LIG A   1      -8.036   6.756 130.111  0.00  0.00    -0.341 OA
BRANCH  43  45
ATOM     45  O   LIG A   1      -9.913   7.685 129.095  0.00  0.00    -0.365 OA
ATOM     46  H   LIG A   1     -10.821   7.330 129.147  0.00  0.00    +0.213 HD
ENDBRANCH  43  45
BRANCH  42  47
ATOM     47  O   LIG A   1     -11.518   6.863 131.261  0.00  0.00    -0.384 OA
ATOM     48  H   LIG A   1     -11.587   7.050 132.219  0.00  0.00    +0.210 HD
ENDBRANCH  42  47
BRANCH  41  49
ATOM     49  O   LIG A   1     -10.322   5.053 133.124  0.00  0.00    -0.386 OA
ATOM     50  H   LIG A   1     -10.979   5.550 133.651  0.00  0.00    +0.210 HD
ENDBRANCH  41  49
BRANCH  40  51
ATOM     51  O   LIG A   1      -7.487   5.550 133.581  0.00  0.00    -0.387 OA
ATOM     52  H   LIG A   1      -8.210   5.586 134.237  0.00  0.00    +0.210 HD
ENDBRANCH  40  51
ENDBRANCH  38  39
ENDBRANCH  37  38
ENDBRANCH  36  37
ENDBRANCH  34  36
ENDBRANCH  22  34
TORSDOF 11
ENDMDL
MODEL 5
REMARK VINA RESULT:      -9.3      2.742      7.142
REMARK  Name = NuBBE_1252
REMARK  18 active torsions:
REMARK  status: ('A' for Active; 'I' for Inactive)
REMARK    1  A    between atoms: C_1  and  C_2
REMARK    2  A    between atoms: C_7  and  C_18
REMARK    3  A    between atoms: C_9  and  O_11
REMARK    4  A    between atoms: C_12  and  O_14
REMARK    5  A    between atoms: C_15  and  C_16
REMARK    6  A    between atoms: C_15  and  C_17
REMARK    7  A    between atoms: C_24  and  C_25
REMARK    8  A    between atoms: C_28  and  C_29
REMARK    9  A    between atoms: C_29  and  O_30
REMARK   10  A    between atoms: O_30  and  O_31
REMARK   11  A    between atoms: O_31  and  C_32
REMARK   12  A    between atoms: C_32  and  C_33
REMARK   13  A    between atoms: C_35  and  O_47
REMARK   14  A    between atoms: C_37  and  O_46
REMARK   15  A    between atoms: C_39  and  O_45
REMARK   16  A    between atoms: C_41  and  O_44
REMARK   17  A    between atoms: C_52  and  C_53
REMARK   18  A    between atoms: C_52  and  C_54
REMARK                            x       y       z     vdW  Elec       q    Type
REMARK                         _______ _______ _______ _____ _____    ______ ____
ROOT
ATOM      1  C   LIG A   1      -5.809   3.204 134.901  0.00  0.00    +0.012 C 
ATOM      2  C   LIG A   1      -5.697   3.681 133.433  0.00  0.00    -0.019 C 
ATOM      3  C   LIG A   1      -5.866   5.210 133.366  0.00  0.00    +0.008 C 
ATOM      4  C   LIG A   1      -7.205   5.730 132.887  0.00  0.00    +0.005 C 
ATOM      5  C   LIG A   1      -7.785   4.978 131.676  0.00  0.00    +0.003 C 
ATOM      6  C   LIG A   1      -7.820   3.407 131.933  0.00  0.00    -0.023 C 
ATOM      7  C   LIG A   1      -8.818   2.702 130.951  0.00  0.00    +0.041 C 
ATOM      8  C   LIG A   1     -10.065   3.451 130.448  0.00  0.00    +0.144 C 
ATOM      9  C   LIG A   1      -9.745   4.874 130.011  0.00  0.00    +0.149 C 
ATOM     10  C   LIG A   1      -9.085   5.713 131.132  0.00  0.00    -0.003 C 
ATOM     11  C   LIG A   1     -10.118   6.082 132.222  0.00  0.00    +0.014 C 
ATOM     12  C   LIG A   1      -8.670   7.077 130.492  0.00  0.00    +0.014 C 
ATOM     13  C   LIG A   1      -8.606   3.163 133.308  0.00  0.00    +0.012 C 
ATOM     14  C   LIG A   1      -6.169   2.712 132.280  0.00  0.00    +0.006 C 
ATOM     15  C   LIG A   1      -4.442   1.820 131.447  0.00  0.00    +0.031 C 
ATOM     16  C   LIG A   1      -3.582   0.974 132.354  0.00  0.00    -0.026 C 
ATOM     17  C   LIG A   1      -4.619   1.335 133.041  0.00  0.00    -0.063 C 
ATOM     18  C   LIG A   1      -4.476   3.264 132.797  0.00  0.00    -0.005 C 
ATOM     19  C   LIG A   1      -3.147   3.832 133.317  0.00  0.00    +0.016 C 
ATOM     20  C   LIG A   1      -4.850   3.842 130.961  0.00  0.00    +0.012 C 
ATOM     21  C   LIG A   1      -5.883   2.630 129.924  0.00  0.00    +0.019 C 
ATOM     22  C   LIG A   1      -6.215   0.807 130.380  0.00  0.00    +0.077 C 
ATOM     23  C   LIG A   1      -5.883   0.304 132.107  0.00  0.00    +0.033 C 
ATOM     24  C   LIG A   1      -5.734  -1.230 132.204  0.00  0.00    +0.015 C 
ATOM     25  C   LIG A   1      -7.002  -1.968 131.665  0.00  0.00    -0.034 C 
ATOM     26  C   LIG A   1      -6.662  -3.462 131.499  0.00  0.00    +0.011 C 
ATOM     27  C   LIG A   1      -8.138  -1.864 132.714  0.00  0.00    +0.011 C 
ATOM     28  C   LIG A   1      -7.518  -1.445 130.288  0.00  0.00    +0.007 C 
ATOM     29  C   LIG A   1      -7.561   0.092 130.092  0.00  0.00    +0.019 C 
ENDROOT
BRANCH   8  30
ATOM     30  O   LIG A   1     -11.125   3.385 131.393  0.00  0.00    -0.389 OA
ATOM     31  H   LIG A   1     -10.774   3.001 132.215  0.00  0.00    +0.210 HD
ENDBRANCH   8  30
BRANCH   9  32
ATOM     32  O   LIG A   1      -8.877   4.818 128.870  0.00  0.00    -0.389 OA
ATOM     33  H   LIG A   1      -8.033   5.231 129.117  0.00  0.00    +0.210 HD
ENDBRANCH   9  32
BRANCH  22  34
ATOM     34  C   LIG A   1      -5.315   0.017 129.309  0.00  0.00    +0.350 C 
ATOM     35  O   LIG A   1      -4.241  -0.534 129.528  0.00  0.00    -0.247 OA
BRANCH  34  36
ATOM     36  O   LIG A   1      -5.947  -0.000 128.085  0.00  0.00    -0.296 OA
BRANCH  36  37
ATOM     37  O   LIG A   1      -4.976   0.468 127.084  0.00  0.00    -0.181 OA
BRANCH  37  38
ATOM     38  C   LIG A   1      -5.679   0.472 125.840  0.00  0.00    +0.249 C 
BRANCH  38  39
ATOM     39  C   LIG A   1      -6.070   1.894 125.410  0.00  0.00    +0.182 C 
ATOM     40  C   LIG A   1      -5.419   3.012 126.254  0.00  0.00    +0.177 C 
ATOM     41  C   LIG A   1      -5.983   4.386 125.840  0.00  0.00    +0.179 C 
ATOM     42  C   LIG A   1      -7.510   4.369 125.798  0.00  0.00    +0.201 C 
ATOM     43  C   LIG A   1      -7.954   3.220 124.883  0.00  0.00    +0.279 C 
ATOM     44  O   LIG A   1      -7.503   1.990 125.440  0.00  0.00    -0.341 OA
BRANCH  43  45
ATOM     45  O   LIG A   1      -9.369   3.207 124.767  0.00  0.00    -0.365 OA
ATOM     46  H   LIG A   1      -9.673   2.586 125.457  0.00  0.00    +0.213 HD
ENDBRANCH  43  45
BRANCH  42  47
ATOM     47  O   LIG A   1      -8.018   5.620 125.311  0.00  0.00    -0.384 OA
ATOM     48  H   LIG A   1      -8.676   5.373 124.631  0.00  0.00    +0.210 HD
ENDBRANCH  42  47
BRANCH  41  49
ATOM     49  O   LIG A   1      -5.557   5.411 126.751  0.00  0.00    -0.386 OA
ATOM     50  H   LIG A   1      -4.689   5.115 127.090  0.00  0.00    +0.210 HD
ENDBRANCH  41  49
BRANCH  40  51
ATOM     51  O   LIG A   1      -3.997   3.047 126.063  0.00  0.00    -0.387 OA
ATOM     52  H   LIG A   1      -3.598   2.415 126.692  0.00  0.00    +0.210 HD
ENDBRANCH  40  51
ENDBRANCH  38  39
ENDBRANCH  37  38
ENDBRANCH  36  37
ENDBRANCH  34  36
ENDBRANCH  22  34
TORSDOF 11
ENDMDL
MODEL 6
REMARK VINA RESULT:      -9.2      2.259      6.549
REMARK  Name = NuBBE_1252
REMARK  18 active torsions:
REMARK  status: ('A' for Active; 'I' for Inactive)
REMARK    1  A    between atoms: C_1  and  C_2
REMARK    2  A    between atoms: C_7  and  C_18
REMARK    3  A    between atoms: C_9  and  O_11
REMARK    4  A    between atoms: C_12  and  O_14
REMARK    5  A    between atoms: C_15  and  C_16
REMARK    6  A    between atoms: C_15  and  C_17
REMARK    7  A    between atoms: C_24  and  C_25
REMARK    8  A    between atoms: C_28  and  C_29
REMARK    9  A    between atoms: C_29  and  O_30
REMARK   10  A    between atoms: O_30  and  O_31
REMARK   11  A    between atoms: O_31  and  C_32
REMARK   12  A    between atoms: C_32  and  C_33
REMARK   13  A    between atoms: C_35  and  O_47
REMARK   14  A    between atoms: C_37  and  O_46
REMARK   15  A    between atoms: C_39  and  O_45
REMARK   16  A    between atoms: C_41  and  O_44
REMARK   17  A    between atoms: C_52  and  C_53
REMARK   18  A    between atoms: C_52  and  C_54
REMARK                            x       y       z     vdW  Elec       q    Type
REMARK                         _______ _______ _______ _____ _____    ______ ____
ROOT
ATOM      1  C   LIG A   1      -2.425   2.894 127.289  0.00  0.00    +0.012 C 
ATOM      2  C   LIG A   1      -3.617   3.868 127.448  0.00  0.00    -0.019 C 
ATOM      3  C   LIG A   1      -3.131   5.320 127.289  0.00  0.00    +0.008 C 
ATOM      4  C   LIG A   1      -2.971   6.131 128.558  0.00  0.00    +0.005 C 
ATOM      5  C   LIG A   1      -4.113   5.957 129.574  0.00  0.00    +0.003 C 
ATOM      6  C   LIG A   1      -4.380   4.418 129.887  0.00  0.00    -0.023 C 
ATOM      7  C   LIG A   1      -5.171   4.249 131.230  0.00  0.00    +0.041 C 
ATOM      8  C   LIG A   1      -4.988   5.270 132.368  0.00  0.00    +0.144 C 
ATOM      9  C   LIG A   1      -5.020   6.707 131.864  0.00  0.00    +0.149 C 
ATOM     10  C   LIG A   1      -3.955   6.986 130.775  0.00  0.00    -0.003 C 
ATOM     11  C   LIG A   1      -2.539   7.038 131.394  0.00  0.00    +0.014 C 
ATOM     12  C   LIG A   1      -4.217   8.431 130.246  0.00  0.00    +0.014 C 
ATOM     13  C   LIG A   1      -2.984   3.771 130.336  0.00  0.00    +0.012 C 
ATOM     14  C   LIG A   1      -4.811   3.460 128.396  0.00  0.00    +0.006 C 
ATOM     15  C   LIG A   1      -6.384   2.750 127.173  0.00  0.00    +0.031 C 
ATOM     16  C   LIG A   1      -6.117   1.535 126.320  0.00  0.00    -0.026 C 
ATOM     17  C   LIG A   1      -5.061   1.729 127.045  0.00  0.00    -0.063 C 
ATOM     18  C   LIG A   1      -4.702   3.581 126.549  0.00  0.00    -0.005 C 
ATOM     19  C   LIG A   1      -4.472   3.758 125.041  0.00  0.00    +0.016 C 
ATOM     20  C   LIG A   1      -6.039   4.841 127.237  0.00  0.00    +0.012 C 
ATOM     21  C   LIG A   1      -7.032   4.229 128.737  0.00  0.00    +0.019 C 
ATOM     22  C   LIG A   1      -7.108   2.418 129.335  0.00  0.00    +0.077 C 
ATOM     23  C   LIG A   1      -5.832   1.274 128.697  0.00  0.00    +0.033 C 
ATOM     24  C   LIG A   1      -6.287  -0.192 128.870  0.00  0.00    +0.015 C 
ATOM     25  C   LIG A   1      -6.608  -0.525 130.362  0.00  0.00    -0.034 C 
ATOM     26  C   LIG A   1      -7.345  -1.879 130.411  0.00  0.00    +0.011 C 
ATOM     27  C   LIG A   1      -5.282  -0.690 131.146  0.00  0.00    +0.011 C 
ATOM     28  C   LIG A   1      -7.507   0.528 131.080  0.00  0.00    +0.007 C 
ATOM     29  C   LIG A   1      -7.174   2.022 130.834  0.00  0.00    +0.019 C 
ENDROOT
BRANCH   8  30
ATOM     30  O   LIG A   1      -3.833   4.978 133.143  0.00  0.00    -0.389 OA
ATOM     31  H   LIG A   1      -3.329   4.283 132.686  0.00  0.00    +0.210 HD
ENDBRANCH   8  30
BRANCH   9  32
ATOM     32  O   LIG A   1      -6.329   6.980 131.346  0.00  0.00    -0.389 OA
ATOM     33  H   LIG A   1      -6.979   6.665 131.996  0.00  0.00    +0.210 HD
ENDBRANCH   9  32
BRANCH  22  34
ATOM     34  C   LIG A   1      -8.601   1.987 128.929  0.00  0.00    +0.350 C 
ATOM     35  O   LIG A   1      -8.963   1.559 127.838  0.00  0.00    -0.247 OA
BRANCH  34  36
ATOM     36  O   LIG A   1      -9.441   2.121 130.013  0.00  0.00    -0.296 OA
BRANCH  36  37
ATOM     37  O   LIG A   1     -10.409   3.180 129.690  0.00  0.00    -0.181 OA
BRANCH  37  38
ATOM     38  C   LIG A   1     -10.399   4.066 130.810  0.00  0.00    +0.249 C 
BRANCH  38  39
ATOM     39  C   LIG A   1     -10.531   5.535 130.380  0.00  0.00    +0.182 C 
ATOM     40  C   LIG A   1     -11.835   6.216 130.852  0.00  0.00    +0.177 C 
ATOM     41  C   LIG A   1     -11.940   7.632 130.251  0.00  0.00    +0.179 C 
ATOM     42  C   LIG A   1     -11.689   7.616 128.744  0.00  0.00    +0.201 C 
ATOM     43  C   LIG A   1     -10.337   6.938 128.488  0.00  0.00    +0.279 C 
ATOM     44  O   LIG A   1     -10.405   5.593 128.950  0.00  0.00    -0.341 OA
BRANCH  43  45
ATOM     45  O   LIG A   1     -10.036   6.957 127.101  0.00  0.00    -0.365 OA
ATOM     46  H   LIG A   1     -10.602   7.660 126.729  0.00  0.00    +0.213 HD
ENDBRANCH  43  45
BRANCH  42  47
ATOM     47  O   LIG A   1     -11.686   8.952 128.216  0.00  0.00    -0.384 OA
ATOM     48  H   LIG A   1     -12.631   9.164 128.077  0.00  0.00    +0.210 HD
ENDBRANCH  42  47
BRANCH  41  49
ATOM     49  O   LIG A   1     -13.236   8.200 130.498  0.00  0.00    -0.386 OA
ATOM     50  H   LIG A   1     -13.611   7.682 131.238  0.00  0.00    +0.210 HD
ENDBRANCH  41  49
BRANCH  40  51
ATOM     51  O   LIG A   1     -11.868   6.343 132.281  0.00  0.00    -0.387 OA
ATOM     52  H   LIG A   1     -11.174   6.982 132.537  0.00  0.00    +0.210 HD
ENDBRANCH  40  51
ENDBRANCH  38  39
ENDBRANCH  37  38
ENDBRANCH  36  37
ENDBRANCH  34  36
ENDBRANCH  22  34
TORSDOF 11
ENDMDL
MODEL 7
REMARK VINA RESULT:      -9.0      2.565      7.419
REMARK  Name = NuBBE_1252
REMARK  18 active torsions:
REMARK  status: ('A' for Active; 'I' for Inactive)
REMARK    1  A    between atoms: C_1  and  C_2
REMARK    2  A    between atoms: C_7  and  C_18
REMARK    3  A    between atoms: C_9  and  O_11
REMARK    4  A    between atoms: C_12  and  O_14
REMARK    5  A    between atoms: C_15  and  C_16
REMARK    6  A    between atoms: C_15  and  C_17
REMARK    7  A    between atoms: C_24  and  C_25
REMARK    8  A    between atoms: C_28  and  C_29
REMARK    9  A    between atoms: C_29  and  O_30
REMARK   10  A    between atoms: O_30  and  O_31
REMARK   11  A    between atoms: O_31  and  C_32
REMARK   12  A    between atoms: C_32  and  C_33
REMARK   13  A    between atoms: C_35  and  O_47
REMARK   14  A    between atoms: C_37  and  O_46
REMARK   15  A    between atoms: C_39  and  O_45
REMARK   16  A    between atoms: C_41  and  O_44
REMARK   17  A    between atoms: C_52  and  C_53
REMARK   18  A    between atoms: C_52  and  C_54
REMARK                            x       y       z     vdW  Elec       q    Type
REMARK                         _______ _______ _______ _____ _____    ______ ____
ROOT
ATOM      1  C   LIG A   1      -6.026   3.339 134.881  0.00  0.00    +0.012 C 
ATOM      2  C   LIG A   1      -5.884   3.814 133.415  0.00  0.00    -0.019 C 
ATOM      3  C   LIG A   1      -6.071   5.341 133.340  0.00  0.00    +0.008 C 
ATOM      4  C   LIG A   1      -7.404   5.842 132.827  0.00  0.00    +0.005 C 
ATOM      5  C   LIG A   1      -7.945   5.081 131.605  0.00  0.00    +0.003 C 
ATOM      6  C   LIG A   1      -7.966   3.509 131.865  0.00  0.00    -0.023 C 
ATOM      7  C   LIG A   1      -8.931   2.789 130.861  0.00  0.00    +0.041 C 
ATOM      8  C   LIG A   1     -10.175   3.521 130.325  0.00  0.00    +0.144 C 
ATOM      9  C   LIG A   1      -9.862   4.947 129.892  0.00  0.00    +0.149 C 
ATOM     10  C   LIG A   1      -9.240   5.798 131.026  0.00  0.00    -0.003 C 
ATOM     11  C   LIG A   1     -10.304   6.156 132.090  0.00  0.00    +0.014 C 
ATOM     12  C   LIG A   1      -8.827   7.164 130.393  0.00  0.00    +0.014 C 
ATOM     13  C   LIG A   1      -8.783   3.259 133.221  0.00  0.00    +0.012 C 
ATOM     14  C   LIG A   1      -6.316   2.836 132.254  0.00  0.00    +0.006 C 
ATOM     15  C   LIG A   1      -4.558   1.963 131.466  0.00  0.00    +0.031 C 
ATOM     16  C   LIG A   1      -3.710   1.131 132.396  0.00  0.00    -0.026 C 
ATOM     17  C   LIG A   1      -4.768   1.480 133.057  0.00  0.00    -0.063 C 
ATOM     18  C   LIG A   1      -4.644   3.411 132.811  0.00  0.00    -0.005 C 
ATOM     19  C   LIG A   1      -3.334   3.997 133.361  0.00  0.00    +0.016 C 
ATOM     20  C   LIG A   1      -4.980   3.980 130.964  0.00  0.00    +0.012 C 
ATOM     21  C   LIG A   1      -5.971   2.751 129.905  0.00  0.00    +0.019 C 
ATOM     22  C   LIG A   1      -6.292   0.926 130.359  0.00  0.00    +0.077 C 
ATOM     23  C   LIG A   1      -5.995   0.431 132.095  0.00  0.00    +0.033 C 
ATOM     24  C   LIG A   1      -5.830  -1.100 132.200  0.00  0.00    +0.015 C 
ATOM     25  C   LIG A   1      -7.075  -1.855 131.633  0.00  0.00    -0.034 C 
ATOM     26  C   LIG A   1      -6.712  -3.346 131.479  0.00  0.00    +0.011 C 
ATOM     27  C   LIG A   1      -8.238  -1.763 132.653  0.00  0.00    +0.011 C 
ATOM     28  C   LIG A   1      -7.564  -1.343 130.242  0.00  0.00    +0.007 C 
ATOM     29  C   LIG A   1      -7.622   0.193 130.040  0.00  0.00    +0.019 C 
ENDROOT
BRANCH   8  30
ATOM     30  O   LIG A   1     -11.257   3.445 131.245  0.00  0.00    -0.389 OA
ATOM     31  H   LIG A   1     -11.334   4.305 131.693  0.00  0.00    +0.210 HD
ENDBRANCH   8  30
BRANCH   9  32
ATOM     32  O   LIG A   1      -8.966   4.899 128.773  0.00  0.00    -0.389 OA
ATOM     33  H   LIG A   1      -8.088   5.180 129.082  0.00  0.00    +0.210 HD
ENDBRANCH   9  32
BRANCH  22  34
ATOM     34  C   LIG A   1      -5.356   0.145 129.313  0.00  0.00    +0.350 C 
ATOM     35  O   LIG A   1      -4.272  -0.377 129.556  0.00  0.00    -0.247 OA
BRANCH  34  36
ATOM     36  O   LIG A   1      -5.968   0.096 128.079  0.00  0.00    -0.296 OA
BRANCH  36  37
ATOM     37  O   LIG A   1      -4.906   0.110 127.062  0.00  0.00    -0.181 OA
BRANCH  37  38
ATOM     38  C   LIG A   1      -5.321   1.067 126.087  0.00  0.00    +0.249 C 
BRANCH  38  39
ATOM     39  C   LIG A   1      -6.849   1.108 125.939  0.00  0.00    +0.182 C 
ATOM     40  C   LIG A   1      -7.433  -0.044 125.090  0.00  0.00    +0.177 C 
ATOM     41  C   LIG A   1      -8.946   0.166 124.882  0.00  0.00    +0.179 C 
ATOM     42  C   LIG A   1      -9.249   1.584 124.403  0.00  0.00    +0.201 C 
ATOM     43  C   LIG A   1      -8.622   2.573 125.394  0.00  0.00    +0.279 C 
ATOM     44  O   LIG A   1      -7.211   2.387 125.395  0.00  0.00    -0.341 OA
BRANCH  43  45
ATOM     45  O   LIG A   1      -8.933   3.906 125.018  0.00  0.00    -0.365 OA
ATOM     46  H   LIG A   1      -8.259   4.457 125.461  0.00  0.00    +0.213 HD
ENDBRANCH  43  45
BRANCH  42  47
ATOM     47  O   LIG A   1     -10.666   1.798 124.313  0.00  0.00    -0.384 OA
ATOM     48  H   LIG A   1     -10.993   1.059 123.761  0.00  0.00    +0.210 HD
ENDBRANCH  42  47
BRANCH  41  49
ATOM     49  O   LIG A   1      -9.466  -0.768 123.921  0.00  0.00    -0.386 OA
ATOM     50  H   LIG A   1     -10.380  -0.473 123.740  0.00  0.00    +0.210 HD
ENDBRANCH  41  49
BRANCH  40  51
ATOM     51  O   LIG A   1      -7.252  -1.312 125.737  0.00  0.00    -0.387 OA
ATOM     52  H   LIG A   1      -7.091  -1.978 125.041  0.00  0.00    +0.210 HD
ENDBRANCH  40  51
ENDBRANCH  38  39
ENDBRANCH  37  38
ENDBRANCH  36  37
ENDBRANCH  34  36
ENDBRANCH  22  34
TORSDOF 11
ENDMDL
MODEL 8
REMARK VINA RESULT:      -9.0      2.458      6.829
REMARK  Name = NuBBE_1252
REMARK  18 active torsions:
REMARK  status: ('A' for Active; 'I' for Inactive)
REMARK    1  A    between atoms: C_1  and  C_2
REMARK    2  A    between atoms: C_7  and  C_18
REMARK    3  A    between atoms: C_9  and  O_11
REMARK    4  A    between atoms: C_12  and  O_14
REMARK    5  A    between atoms: C_15  and  C_16
REMARK    6  A    between atoms: C_15  and  C_17
REMARK    7  A    between atoms: C_24  and  C_25
REMARK    8  A    between atoms: C_28  and  C_29
REMARK    9  A    between atoms: C_29  and  O_30
REMARK   10  A    between atoms: O_30  and  O_31
REMARK   11  A    between atoms: O_31  and  C_32
REMARK   12  A    between atoms: C_32  and  C_33
REMARK   13  A    between atoms: C_35  and  O_47
REMARK   14  A    between atoms: C_37  and  O_46
REMARK   15  A    between atoms: C_39  and  O_45
REMARK   16  A    between atoms: C_41  and  O_44
REMARK   17  A    between atoms: C_52  and  C_53
REMARK   18  A    between atoms: C_52  and  C_54
REMARK                            x       y       z     vdW  Elec       q    Type
REMARK                         _______ _______ _______ _____ _____    ______ ____
ROOT
ATOM      1  C   LIG A   1      -9.026  -0.130 131.695  0.00  0.00    +0.012 C 
ATOM      2  C   LIG A   1      -7.914   0.945 131.644  0.00  0.00    -0.019 C 
ATOM      3  C   LIG A   1      -7.865   1.709 132.980  0.00  0.00    +0.008 C 
ATOM      4  C   LIG A   1      -8.480   3.093 133.000  0.00  0.00    +0.005 C 
ATOM      5  C   LIG A   1      -8.152   3.954 131.769  0.00  0.00    +0.003 C 
ATOM      6  C   LIG A   1      -8.483   3.181 130.416  0.00  0.00    -0.023 C 
ATOM      7  C   LIG A   1      -8.612   4.182 129.217  0.00  0.00    +0.041 C 
ATOM      8  C   LIG A   1      -9.125   5.614 129.458  0.00  0.00    +0.144 C 
ATOM      9  C   LIG A   1      -8.475   6.262 130.673  0.00  0.00    +0.149 C 
ATOM     10  C   LIG A   1      -8.676   5.441 131.971  0.00  0.00    -0.003 C 
ATOM     11  C   LIG A   1     -10.138   5.545 132.464  0.00  0.00    +0.014 C 
ATOM     12  C   LIG A   1      -7.826   6.135 133.082  0.00  0.00    +0.014 C 
ATOM     13  C   LIG A   1     -10.008   2.695 130.502  0.00  0.00    +0.012 C 
ATOM     14  C   LIG A   1      -7.565   1.613 130.258  0.00  0.00    +0.006 C 
ATOM     15  C   LIG A   1      -5.812   0.685 129.525  0.00  0.00    +0.031 C 
ATOM     16  C   LIG A   1      -5.863  -0.799 129.253  0.00  0.00    -0.026 C 
ATOM     17  C   LIG A   1      -7.057  -0.434 129.598  0.00  0.00    -0.063 C 
ATOM     18  C   LIG A   1      -6.626   0.405 131.305  0.00  0.00    -0.005 C 
ATOM     19  C   LIG A   1      -5.953  -0.563 132.289  0.00  0.00    +0.016 C 
ATOM     20  C   LIG A   1      -5.612   2.074 131.114  0.00  0.00    +0.012 C 
ATOM     21  C   LIG A   1      -5.772   2.930 129.425  0.00  0.00    +0.019 C 
ATOM     22  C   LIG A   1      -6.478   2.118 127.848  0.00  0.00    +0.077 C 
ATOM     23  C   LIG A   1      -7.441   0.578 128.061  0.00  0.00    +0.033 C 
ATOM     24  C   LIG A   1      -7.526  -0.195 126.727  0.00  0.00    +0.015 C 
ATOM     25  C   LIG A   1      -8.155   0.678 125.594  0.00  0.00    -0.034 C 
ATOM     26  C   LIG A   1      -7.919  -0.031 124.245  0.00  0.00    +0.011 C 
ATOM     27  C   LIG A   1      -9.687   0.769 125.809  0.00  0.00    +0.011 C 
ATOM     28  C   LIG A   1      -7.561   2.117 125.481  0.00  0.00    +0.007 C 
ATOM     29  C   LIG A   1      -7.331   2.888 126.806  0.00  0.00    +0.019 C 
ENDROOT
BRANCH   8  30
ATOM     30  O   LIG A   1     -10.545   5.655 129.498  0.00  0.00    -0.389 OA
ATOM     31  H   LIG A   1     -10.838   6.454 129.027  0.00  0.00    +0.210 HD
ENDBRANCH   8  30
BRANCH   9  32
ATOM     32  O   LIG A   1      -7.074   6.423 130.412  0.00  0.00    -0.389 OA
ATOM     33  H   LIG A   1      -6.637   6.638 131.253  0.00  0.00    +0.210 HD
ENDBRANCH   9  32
BRANCH  22  34
ATOM     34  C   LIG A   1      -5.161   1.919 126.949  0.00  0.00    +0.350 C 
ATOM     35  O   LIG A   1      -4.800   0.878 126.410  0.00  0.00    -0.247 OA
BRANCH  34  36
ATOM     36  O   LIG A   1      -4.495   3.118 126.819  0.00  0.00    -0.296 OA
BRANCH  36  37
ATOM     37  O   LIG A   1      -3.054   2.825 126.859  0.00  0.00    -0.181 OA
BRANCH  37  38
ATOM     38  C   LIG A   1      -2.416   4.072 127.137  0.00  0.00    +0.249 C 
BRANCH  38  39
ATOM     39  C   LIG A   1      -3.080   4.805 128.312  0.00  0.00    +0.182 C 
ATOM     40  C   LIG A   1      -3.516   6.252 127.989  0.00  0.00    +0.177 C 
ATOM     41  C   LIG A   1      -4.036   6.945 129.264  0.00  0.00    +0.179 C 
ATOM     42  C   LIG A   1      -3.060   6.774 130.426  0.00  0.00    +0.201 C 
ATOM     43  C   LIG A   1      -2.786   5.275 130.609  0.00  0.00    +0.279 C 
ATOM     44  O   LIG A   1      -2.175   4.774 129.426  0.00  0.00    -0.341 OA
BRANCH  43  45
ATOM     45  O   LIG A   1      -1.929   5.067 131.722  0.00  0.00    -0.365 OA
ATOM     46  H   LIG A   1      -1.634   5.960 131.984  0.00  0.00    +0.213 HD
ENDBRANCH  43  45
BRANCH  42  47
ATOM     47  O   LIG A   1      -3.603   7.334 131.632  0.00  0.00    -0.384 OA
ATOM     48  H   LIG A   1      -3.716   6.569 132.231  0.00  0.00    +0.210 HD
ENDBRANCH  42  47
BRANCH  41  49
ATOM     49  O   LIG A   1      -4.243   8.349 129.037  0.00  0.00    -0.386 OA
ATOM     50  H   LIG A   1      -3.880   8.525 128.146  0.00  0.00    +0.210 HD
ENDBRANCH  41  49
BRANCH  40  51
ATOM     51  O   LIG A   1      -4.573   6.272 127.018  0.00  0.00    -0.387 OA
ATOM     52  H   LIG A   1      -4.195   5.987 126.163  0.00  0.00    +0.210 HD
ENDBRANCH  40  51
ENDBRANCH  38  39
ENDBRANCH  37  38
ENDBRANCH  36  37
ENDBRANCH  34  36
ENDBRANCH  22  34
TORSDOF 11
ENDMDL
MODEL 9
REMARK VINA RESULT:      -8.8      3.002      7.067
REMARK  Name = NuBBE_1252
REMARK  18 active torsions:
REMARK  status: ('A' for Active; 'I' for Inactive)
REMARK    1  A    between atoms: C_1  and  C_2
REMARK    2  A    between atoms: C_7  and  C_18
REMARK    3  A    between atoms: C_9  and  O_11
REMARK    4  A    between atoms: C_12  and  O_14
REMARK    5  A    between atoms: C_15  and  C_16
REMARK    6  A    between atoms: C_15  and  C_17
REMARK    7  A    between atoms: C_24  and  C_25
REMARK    8  A    between atoms: C_28  and  C_29
REMARK    9  A    between atoms: C_29  and  O_30
REMARK   10  A    between atoms: O_30  and  O_31
REMARK   11  A    between atoms: O_31  and  C_32
REMARK   12  A    between atoms: C_32  and  C_33
REMARK   13  A    between atoms: C_35  and  O_47
REMARK   14  A    between atoms: C_37  and  O_46
REMARK   15  A    between atoms: C_39  and  O_45
REMARK   16  A    between atoms: C_41  and  O_44
REMARK   17  A    between atoms: C_52  and  C_53
REMARK   18  A    between atoms: C_52  and  C_54
REMARK                            x       y       z     vdW  Elec       q    Type
REMARK                         _______ _______ _______ _____ _____    ______ ____
ROOT
ATOM      1  C   LIG A   1      -4.734   5.515 127.224  0.00  0.00    +0.012 C 
ATOM      2  C   LIG A   1      -4.771   4.095 127.837  0.00  0.00    -0.019 C 
ATOM      3  C   LIG A   1      -3.931   3.132 126.976  0.00  0.00    +0.008 C 
ATOM      4  C   LIG A   1      -4.690   2.194 126.062  0.00  0.00    +0.005 C 
ATOM      5  C   LIG A   1      -5.932   1.548 126.700  0.00  0.00    +0.003 C 
ATOM      6  C   LIG A   1      -6.890   2.646 127.344  0.00  0.00    -0.023 C 
ATOM      7  C   LIG A   1      -8.334   2.075 127.554  0.00  0.00    +0.041 C 
ATOM      8  C   LIG A   1      -8.888   1.003 126.597  0.00  0.00    +0.144 C 
ATOM      9  C   LIG A   1      -7.874  -0.099 126.318  0.00  0.00    +0.149 C 
ATOM     10  C   LIG A   1      -6.544   0.441 125.737  0.00  0.00    -0.003 C 
ATOM     11  C   LIG A   1      -6.731   0.897 124.272  0.00  0.00    +0.014 C 
ATOM     12  C   LIG A   1      -5.559  -0.769 125.661  0.00  0.00    +0.014 C 
ATOM     13  C   LIG A   1      -7.211   3.729 126.206  0.00  0.00    +0.012 C 
ATOM     14  C   LIG A   1      -6.059   3.641 128.627  0.00  0.00    +0.006 C 
ATOM     15  C   LIG A   1      -5.639   3.824 130.692  0.00  0.00    +0.031 C 
ATOM     16  C   LIG A   1      -5.307   5.197 131.222  0.00  0.00    -0.026 C 
ATOM     17  C   LIG A   1      -5.617   5.337 129.972  0.00  0.00    -0.063 C 
ATOM     18  C   LIG A   1      -4.351   4.065 129.211  0.00  0.00    -0.005 C 
ATOM     19  C   LIG A   1      -2.891   4.411 129.541  0.00  0.00    +0.016 C 
ATOM     20  C   LIG A   1      -4.775   2.198 129.641  0.00  0.00    +0.012 C 
ATOM     21  C   LIG A   1      -6.584   1.868 130.117  0.00  0.00    +0.019 C 
ATOM     22  C   LIG A   1      -7.857   3.211 130.582  0.00  0.00    +0.077 C 
ATOM     23  C   LIG A   1      -7.446   4.939 130.144  0.00  0.00    +0.033 C 
ATOM     24  C   LIG A   1      -8.295   5.924 130.977  0.00  0.00    +0.015 C 
ATOM     25  C   LIG A   1      -9.825   5.672 130.786  0.00  0.00    -0.034 C 
ATOM     26  C   LIG A   1     -10.587   6.463 131.869  0.00  0.00    +0.011 C 
ATOM     27  C   LIG A   1     -10.267   6.227 129.409  0.00  0.00    +0.011 C 
ATOM     28  C   LIG A   1     -10.254   4.176 130.904  0.00  0.00    +0.007 C 
ATOM     29  C   LIG A   1      -9.357   3.131 130.194  0.00  0.00    +0.019 C 
ENDROOT
BRANCH   8  30
ATOM     30  O   LIG A   1      -9.413   1.588 125.413  0.00  0.00    -0.389 OA
ATOM     31  H   LIG A   1      -9.871   0.893 124.909  0.00  0.00    +0.210 HD
ENDBRANCH   8  30
BRANCH   9  32
ATOM     32  O   LIG A   1      -7.620  -0.806 127.539  0.00  0.00    -0.389 OA
ATOM     33  H   LIG A   1      -6.795  -1.310 127.426  0.00  0.00    +0.210 HD
ENDBRANCH   9  32
BRANCH  22  34
ATOM     34  C   LIG A   1      -8.029   2.986 132.164  0.00  0.00    +0.350 C 
ATOM     35  O   LIG A   1      -7.450   3.602 133.053  0.00  0.00    -0.247 OA
BRANCH  34  36
ATOM     36  O   LIG A   1      -8.974   2.012 132.400  0.00  0.00    -0.296 OA
BRANCH  36  37
ATOM     37  O   LIG A   1      -8.254   0.769 132.715  0.00  0.00    -0.181 OA
BRANCH  37  38
ATOM     38  C   LIG A   1      -8.824  -0.231 131.870  0.00  0.00    +0.249 C 
BRANCH  38  39
ATOM     39  C   LIG A   1      -7.887  -1.437 131.699  0.00  0.00    +0.182 C 
ATOM     40  C   LIG A   1      -6.424  -1.164 132.112  0.00  0.00    +0.177 C 
ATOM     41  C   LIG A   1      -5.541  -2.381 131.769  0.00  0.00    +0.179 C 
ATOM     42  C   LIG A   1      -5.766  -2.843 130.331  0.00  0.00    +0.201 C 
ATOM     43  C   LIG A   1      -7.267  -3.096 130.135  0.00  0.00    +0.279 C 
ATOM     44  O   LIG A   1      -7.967  -1.873 130.333  0.00  0.00    -0.341 OA
BRANCH  43  45
ATOM     45  O   LIG A   1      -7.512  -3.587 128.825  0.00  0.00    -0.365 OA
ATOM     46  H   LIG A   1      -7.917  -4.466 128.957  0.00  0.00    +0.213 HD
ENDBRANCH  43  45
BRANCH  42  47
ATOM     47  O   LIG A   1      -5.018  -4.037 130.058  0.00  0.00    -0.384 OA
ATOM     48  H   LIG A   1      -4.117  -3.845 130.388  0.00  0.00    +0.210 HD
ENDBRANCH  42  47
BRANCH  41  49
ATOM     49  O   LIG A   1      -4.149  -2.071 131.944  0.00  0.00    -0.386 OA
ATOM     50  H   LIG A   1      -3.664  -2.802 131.513  0.00  0.00    +0.210 HD
ENDBRANCH  41  49
BRANCH  40  51
ATOM     51  O   LIG A   1      -6.316  -0.929 133.524  0.00  0.00    -0.387 OA
ATOM     52  H   LIG A   1      -7.216  -0.759 133.864  0.00  0.00    +0.210 HD
ENDBRANCH  40  51
ENDBRANCH  38  39
ENDBRANCH  37  38
ENDBRANCH  36  37
ENDBRANCH  34  36
ENDBRANCH  22  34
TORSDOF 11
ENDMDL
