MODEL 1
REMARK VINA RESULT:      -7.7      0.000      0.000
REMARK  Name = NuBBE_1759
REMARK  16 active torsions:
REMARK  status: ('A' for Active; 'I' for Inactive)
REMARK    1  A    between atoms: C_1  and  C_2
REMARK    2  A    between atoms: C_2  and  C_3
REMARK    3  A    between atoms: C_3  and  C_4
REMARK    4  A    between atoms: C_4  and  C_5
REMARK    5  A    between atoms: C_6  and  C_7
REMARK    6  A    between atoms: C_6  and  C_8
REMARK    7  A    between atoms: C_9  and  C_10
REMARK    8  A    between atoms: C_10  and  C_11
REMARK    9  A    between atoms: C_13  and  C_14
REMARK   10  A    between atoms: C_14  and  O_15
REMARK   11  A    between atoms: O_15  and  C_16
REMARK   12  A    between atoms: C_19  and  C_20
REMARK   13  A    between atoms: C_20  and  C_21
REMARK   14  A    between atoms: C_22  and  C_23
REMARK   15  A    between atoms: C_22  and  C_24
REMARK   16  A    between atoms: C_25  and  O_26
REMARK                            x       y       z     vdW  Elec       q    Type
REMARK                         _______ _______ _______ _____ _____    ______ ____
ROOT
ATOM      1  C   LIG A   1      -7.945   5.388 133.188  0.00  0.00    -0.001 A 
ATOM      2  C   LIG A   1      -6.755   5.773 132.562  0.00  0.00    +0.022 A 
ATOM      3  C   LIG A   1      -6.782   6.540 131.389  0.00  0.00    +0.060 A 
ATOM      4  C   LIG A   1      -8.010   6.932 130.834  0.00  0.00    +0.022 A 
ATOM      5  C   LIG A   1      -9.222   6.520 131.414  0.00  0.00    -0.001 A 
ATOM      6  C   LIG A   1      -9.164   5.768 132.602  0.00  0.00    +0.124 A 
ENDROOT
BRANCH   3   7
ATOM      7  C   LIG A   1      -5.520   6.912 130.711  0.00  0.00    +0.339 C 
ATOM      8  O   LIG A   1      -5.309   8.002 130.189  0.00  0.00    -0.245 OA
BRANCH   7   9
ATOM      9  O   LIG A   1      -4.696   5.840 130.715  0.00  0.00    -0.465 OA
ATOM     10  C   LIG A   1      -4.354   5.308 129.437  0.00  0.00    +0.280 C 
ENDBRANCH   7   9
ENDBRANCH   3   7
BRANCH   6  11
ATOM     11  O   LIG A   1     -10.310   5.379 133.235  0.00  0.00    -0.506 OA
ATOM     12  H   LIG A   1     -11.052   5.617 132.654  0.00  0.00    +0.292 HD
ENDBRANCH   6  11
BRANCH   1  13
ATOM     13  C   LIG A   1      -7.892   4.533 134.441  0.00  0.00    +0.066 C 
BRANCH  13  16
ATOM     14  C   LIG A   1      -5.248   5.168 135.960  0.00  0.00    +0.038 C 
ATOM     15  C   LIG A   1      -6.617   5.646 136.361  0.00  0.00    -0.076 C 
ATOM     16  C   LIG A   1      -7.752   5.365 135.688  0.00  0.00    -0.023 C 
BRANCH  15  17
ATOM     17  C   LIG A   1      -6.669   6.527 137.596  0.00  0.00    +0.034 C 
BRANCH  17  18
ATOM     18  C   LIG A   1      -8.100   6.809 138.071  0.00  0.00    +0.031 C 
BRANCH  18  19
ATOM     19  C   LIG A   1      -8.206   8.162 138.713  0.00  0.00    -0.028 C 
ATOM     20  C   LIG A   1      -9.188   9.064 138.531  0.00  0.00    -0.080 C 
ATOM     21  C   LIG A   1     -10.357   8.878 137.603  0.00  0.00    +0.038 C 
ATOM     22  C   LIG A   1      -9.159  10.381 139.257  0.00  0.00    +0.038 C 
ENDBRANCH  18  19
ENDBRANCH  17  18
ENDBRANCH  15  17
ENDBRANCH  13  16
ENDBRANCH   1  13
BRANCH   5  23
ATOM     23  C   LIG A   1     -10.534   6.865 130.725  0.00  0.00    +0.066 C 
BRANCH  23  24
ATOM     24  C   LIG A   1     -10.391   7.101 129.243  0.00  0.00    -0.023 C 
ATOM     25  C   LIG A   1     -11.129   7.938 128.484  0.00  0.00    -0.079 C 
ATOM     26  C   LIG A   1     -12.251   8.812 128.978  0.00  0.00    +0.038 C 
ATOM     27  C   LIG A   1     -10.887   8.059 127.002  0.00  0.00    +0.038 C 
ENDBRANCH  23  24
ENDBRANCH   5  23
TORSDOF 10
ENDMDL
MODEL 2
REMARK VINA RESULT:      -7.6      7.970     11.755
REMARK  Name = NuBBE_1759
REMARK  16 active torsions:
REMARK  status: ('A' for Active; 'I' for Inactive)
REMARK    1  A    between atoms: C_1  and  C_2
REMARK    2  A    between atoms: C_2  and  C_3
REMARK    3  A    between atoms: C_3  and  C_4
REMARK    4  A    between atoms: C_4  and  C_5
REMARK    5  A    between atoms: C_6  and  C_7
REMARK    6  A    between atoms: C_6  and  C_8
REMARK    7  A    between atoms: C_9  and  C_10
REMARK    8  A    between atoms: C_10  and  C_11
REMARK    9  A    between atoms: C_13  and  C_14
REMARK   10  A    between atoms: C_14  and  O_15
REMARK   11  A    between atoms: O_15  and  C_16
REMARK   12  A    between atoms: C_19  and  C_20
REMARK   13  A    between atoms: C_20  and  C_21
REMARK   14  A    between atoms: C_22  and  C_23
REMARK   15  A    between atoms: C_22  and  C_24
REMARK   16  A    between atoms: C_25  and  O_26
REMARK                            x       y       z     vdW  Elec       q    Type
REMARK                         _______ _______ _______ _____ _____    ______ ____
ROOT
ATOM      1  C   LIG A   1      -6.560   0.847 126.886  0.00  0.00    -0.001 A 
ATOM      2  C   LIG A   1      -7.232   1.593 125.911  0.00  0.00    +0.022 A 
ATOM      3  C   LIG A   1      -6.574   2.620 125.220  0.00  0.00    +0.060 A 
ATOM      4  C   LIG A   1      -5.229   2.904 125.499  0.00  0.00    +0.022 A 
ATOM      5  C   LIG A   1      -4.542   2.203 126.505  0.00  0.00    -0.001 A 
ATOM      6  C   LIG A   1      -5.222   1.166 127.169  0.00  0.00    +0.124 A 
ENDROOT
BRANCH   3   7
ATOM      7  C   LIG A   1      -7.302   3.431 124.218  0.00  0.00    +0.339 C 
ATOM      8  O   LIG A   1      -8.507   3.661 124.257  0.00  0.00    -0.245 OA
BRANCH   7   9
ATOM      9  O   LIG A   1      -6.434   3.801 123.250  0.00  0.00    -0.465 OA
ATOM     10  C   LIG A   1      -6.782   3.424 121.919  0.00  0.00    +0.280 C 
ENDBRANCH   7   9
ENDBRANCH   3   7
BRANCH   6  11
ATOM     11  O   LIG A   1      -4.590   0.420 128.123  0.00  0.00    -0.506 OA
ATOM     12  H   LIG A   1      -3.873   0.967 128.484  0.00  0.00    +0.292 HD
ENDBRANCH   6  11
BRANCH   1  13
ATOM     13  C   LIG A   1      -7.301  -0.240 127.642  0.00  0.00    +0.066 C 
BRANCH  13  16
ATOM     14  C   LIG A   1      -8.114  -3.211 128.100  0.00  0.00    +0.038 C 
ATOM     15  C   LIG A   1      -8.503  -2.378 126.909  0.00  0.00    -0.076 C 
ATOM     16  C   LIG A   1      -8.146  -1.089 126.729  0.00  0.00    -0.023 C 
BRANCH  15  17
ATOM     17  C   LIG A   1      -9.383  -3.069 125.884  0.00  0.00    +0.034 C 
BRANCH  17  18
ATOM     18  C   LIG A   1      -8.831  -2.970 124.457  0.00  0.00    +0.031 C 
BRANCH  18  19
ATOM     19  C   LIG A   1      -7.492  -3.639 124.341  0.00  0.00    -0.028 C 
ATOM     20  C   LIG A   1      -6.322  -3.051 124.029  0.00  0.00    -0.080 C 
ATOM     21  C   LIG A   1      -6.161  -1.591 123.704  0.00  0.00    +0.038 C 
ATOM     22  C   LIG A   1      -5.056  -3.859 123.961  0.00  0.00    +0.038 C 
ENDBRANCH  18  19
ENDBRANCH  17  18
ENDBRANCH  15  17
ENDBRANCH  13  16
ENDBRANCH   1  13
BRANCH   5  23
ATOM     23  C   LIG A   1      -3.121   2.613 126.862  0.00  0.00    +0.066 C 
BRANCH  23  24
ATOM     24  C   LIG A   1      -2.937   4.103 126.984  0.00  0.00    -0.023 C 
ATOM     25  C   LIG A   1      -2.986   4.833 128.118  0.00  0.00    -0.079 C 
ATOM     26  C   LIG A   1      -3.236   4.291 129.500  0.00  0.00    +0.038 C 
ATOM     27  C   LIG A   1      -2.802   6.329 128.088  0.00  0.00    +0.038 C 
ENDBRANCH  23  24
ENDBRANCH   5  23
TORSDOF 10
ENDMDL
MODEL 3
REMARK VINA RESULT:      -7.4      4.566      7.367
REMARK  Name = NuBBE_1759
REMARK  16 active torsions:
REMARK  status: ('A' for Active; 'I' for Inactive)
REMARK    1  A    between atoms: C_1  and  C_2
REMARK    2  A    between atoms: C_2  and  C_3
REMARK    3  A    between atoms: C_3  and  C_4
REMARK    4  A    between atoms: C_4  and  C_5
REMARK    5  A    between atoms: C_6  and  C_7
REMARK    6  A    between atoms: C_6  and  C_8
REMARK    7  A    between atoms: C_9  and  C_10
REMARK    8  A    between atoms: C_10  and  C_11
REMARK    9  A    between atoms: C_13  and  C_14
REMARK   10  A    between atoms: C_14  and  O_15
REMARK   11  A    between atoms: O_15  and  C_16
REMARK   12  A    between atoms: C_19  and  C_20
REMARK   13  A    between atoms: C_20  and  C_21
REMARK   14  A    between atoms: C_22  and  C_23
REMARK   15  A    between atoms: C_22  and  C_24
REMARK   16  A    between atoms: C_25  and  O_26
REMARK                            x       y       z     vdW  Elec       q    Type
REMARK                         _______ _______ _______ _____ _____    ______ ____
ROOT
ATOM      1  C   LIG A   1      -9.257   4.026 130.081  0.00  0.00    -0.001 A 
ATOM      2  C   LIG A   1      -8.089   4.754 130.337  0.00  0.00    +0.022 A 
ATOM      3  C   LIG A   1      -8.149   5.989 130.999  0.00  0.00    +0.060 A 
ATOM      4  C   LIG A   1      -9.386   6.503 131.415  0.00  0.00    +0.022 A 
ATOM      5  C   LIG A   1     -10.580   5.818 131.129  0.00  0.00    -0.001 A 
ATOM      6  C   LIG A   1     -10.488   4.573 130.482  0.00  0.00    +0.124 A 
ENDROOT
BRANCH   3   7
ATOM      7  C   LIG A   1      -6.914   6.771 131.232  0.00  0.00    +0.339 C 
ATOM      8  O   LIG A   1      -6.468   7.608 130.454  0.00  0.00    -0.245 OA
BRANCH   7   9
ATOM      9  O   LIG A   1      -6.354   6.357 132.391  0.00  0.00    -0.465 OA
ATOM     10  C   LIG A   1      -4.935   6.213 132.383  0.00  0.00    +0.280 C 
ENDBRANCH   7   9
ENDBRANCH   3   7
BRANCH   6  11
ATOM     11  O   LIG A   1     -11.611   3.840 130.220  0.00  0.00    -0.506 OA
ATOM     12  H   LIG A   1     -12.057   3.690 131.071  0.00  0.00    +0.292 HD
ENDBRANCH   6  11
BRANCH   1  13
ATOM     13  C   LIG A   1      -9.170   2.707 129.339  0.00  0.00    +0.066 C 
BRANCH  13  16
ATOM     14  C   LIG A   1      -9.441   0.873 131.842  0.00  0.00    +0.038 C 
ATOM     15  C   LIG A   1      -8.205   1.008 130.993  0.00  0.00    -0.076 C 
ATOM     16  C   LIG A   1      -8.107   1.805 129.908  0.00  0.00    -0.023 C 
BRANCH  15  17
ATOM     17  C   LIG A   1      -7.026   0.147 131.407  0.00  0.00    +0.034 C 
BRANCH  17  18
ATOM     18  C   LIG A   1      -7.386  -1.337 131.542  0.00  0.00    +0.031 C 
BRANCH  18  19
ATOM     19  C   LIG A   1      -7.975  -1.874 130.270  0.00  0.00    -0.028 C 
ATOM     20  C   LIG A   1      -7.626  -3.010 129.639  0.00  0.00    -0.080 C 
ATOM     21  C   LIG A   1      -6.536  -3.941 130.095  0.00  0.00    +0.038 C 
ATOM     22  C   LIG A   1      -8.320  -3.422 128.369  0.00  0.00    +0.038 C 
ENDBRANCH  18  19
ENDBRANCH  17  18
ENDBRANCH  15  17
ENDBRANCH  13  16
ENDBRANCH   1  13
BRANCH   5  23
ATOM     23  C   LIG A   1     -11.912   6.458 131.491  0.00  0.00    +0.066 C 
BRANCH  23  24
ATOM     24  C   LIG A   1     -12.196   7.728 130.731  0.00  0.00    -0.023 C 
ATOM     25  C   LIG A   1     -12.729   7.827 129.495  0.00  0.00    -0.079 C 
ATOM     26  C   LIG A   1     -13.152   6.672 128.626  0.00  0.00    +0.038 C 
ATOM     27  C   LIG A   1     -12.940   9.171 128.846  0.00  0.00    +0.038 C 
ENDBRANCH  23  24
ENDBRANCH   5  23
TORSDOF 10
ENDMDL
MODEL 4
REMARK VINA RESULT:      -7.4      3.344      5.821
REMARK  Name = NuBBE_1759
REMARK  16 active torsions:
REMARK  status: ('A' for Active; 'I' for Inactive)
REMARK    1  A    between atoms: C_1  and  C_2
REMARK    2  A    between atoms: C_2  and  C_3
REMARK    3  A    between atoms: C_3  and  C_4
REMARK    4  A    between atoms: C_4  and  C_5
REMARK    5  A    between atoms: C_6  and  C_7
REMARK    6  A    between atoms: C_6  and  C_8
REMARK    7  A    between atoms: C_9  and  C_10
REMARK    8  A    between atoms: C_10  and  C_11
REMARK    9  A    between atoms: C_13  and  C_14
REMARK   10  A    between atoms: C_14  and  O_15
REMARK   11  A    between atoms: O_15  and  C_16
REMARK   12  A    between atoms: C_19  and  C_20
REMARK   13  A    between atoms: C_20  and  C_21
REMARK   14  A    between atoms: C_22  and  C_23
REMARK   15  A    between atoms: C_22  and  C_24
REMARK   16  A    between atoms: C_25  and  O_26
REMARK                            x       y       z     vdW  Elec       q    Type
REMARK                         _______ _______ _______ _____ _____    ______ ____
ROOT
ATOM      1  C   LIG A   1      -8.217   4.978 132.864  0.00  0.00    -0.001 A 
ATOM      2  C   LIG A   1      -6.942   5.310 132.392  0.00  0.00    +0.022 A 
ATOM      3  C   LIG A   1      -6.781   6.287 131.400  0.00  0.00    +0.060 A 
ATOM      4  C   LIG A   1      -7.902   6.946 130.874  0.00  0.00    +0.022 A 
ATOM      5  C   LIG A   1      -9.199   6.600 131.294  0.00  0.00    -0.001 A 
ATOM      6  C   LIG A   1      -9.329   5.630 132.304  0.00  0.00    +0.124 A 
ENDROOT
BRANCH   3   7
ATOM      7  C   LIG A   1      -5.432   6.606 130.879  0.00  0.00    +0.339 C 
ATOM      8  O   LIG A   1      -4.441   5.903 131.048  0.00  0.00    -0.245 OA
BRANCH   7   9
ATOM      9  O   LIG A   1      -5.482   7.806 130.259  0.00  0.00    -0.465 OA
ATOM     10  C   LIG A   1      -4.228   8.360 129.867  0.00  0.00    +0.280 C 
ENDBRANCH   7   9
ENDBRANCH   3   7
BRANCH   6  11
ATOM     11  O   LIG A   1     -10.561   5.287 132.785  0.00  0.00    -0.506 OA
ATOM     12  H   LIG A   1     -10.645   4.323 132.692  0.00  0.00    +0.292 HD
ENDBRANCH   6  11
BRANCH   1  13
ATOM     13  C   LIG A   1      -8.369   3.897 133.917  0.00  0.00    +0.066 C 
BRANCH  13  16
ATOM     14  C   LIG A   1      -9.966   1.920 132.116  0.00  0.00    +0.038 C 
ATOM     15  C   LIG A   1      -8.578   1.684 132.647  0.00  0.00    -0.076 C 
ATOM     16  C   LIG A   1      -7.898   2.555 133.423  0.00  0.00    -0.023 C 
BRANCH  15  17
ATOM     17  C   LIG A   1      -7.928   0.378 132.228  0.00  0.00    +0.034 C 
BRANCH  17  18
ATOM     18  C   LIG A   1      -6.913   0.552 131.092  0.00  0.00    +0.031 C 
BRANCH  18  19
ATOM     19  C   LIG A   1      -7.590   0.572 129.752  0.00  0.00    -0.028 C 
ATOM     20  C   LIG A   1      -7.873   1.658 129.010  0.00  0.00    -0.080 C 
ATOM     21  C   LIG A   1      -7.581   3.075 129.423  0.00  0.00    +0.038 C 
ATOM     22  C   LIG A   1      -8.551   1.515 127.675  0.00  0.00    +0.038 C 
ENDBRANCH  18  19
ENDBRANCH  17  18
ENDBRANCH  15  17
ENDBRANCH  13  16
ENDBRANCH   1  13
BRANCH   5  23
ATOM     23  C   LIG A   1     -10.398   7.251 130.622  0.00  0.00    +0.066 C 
BRANCH  23  24
ATOM     24  C   LIG A   1     -10.307   7.273 129.118  0.00  0.00    -0.023 C 
ATOM     25  C   LIG A   1     -11.094   7.969 128.271  0.00  0.00    -0.079 C 
ATOM     26  C   LIG A   1     -12.229   8.874 128.672  0.00  0.00    +0.038 C 
ATOM     27  C   LIG A   1     -10.900   7.880 126.779  0.00  0.00    +0.038 C 
ENDBRANCH  23  24
ENDBRANCH   5  23
TORSDOF 10
ENDMDL
MODEL 5
REMARK VINA RESULT:      -7.3      3.624      7.336
REMARK  Name = NuBBE_1759
REMARK  16 active torsions:
REMARK  status: ('A' for Active; 'I' for Inactive)
REMARK    1  A    between atoms: C_1  and  C_2
REMARK    2  A    between atoms: C_2  and  C_3
REMARK    3  A    between atoms: C_3  and  C_4
REMARK    4  A    between atoms: C_4  and  C_5
REMARK    5  A    between atoms: C_6  and  C_7
REMARK    6  A    between atoms: C_6  and  C_8
REMARK    7  A    between atoms: C_9  and  C_10
REMARK    8  A    between atoms: C_10  and  C_11
REMARK    9  A    between atoms: C_13  and  C_14
REMARK   10  A    between atoms: C_14  and  O_15
REMARK   11  A    between atoms: O_15  and  C_16
REMARK   12  A    between atoms: C_19  and  C_20
REMARK   13  A    between atoms: C_20  and  C_21
REMARK   14  A    between atoms: C_22  and  C_23
REMARK   15  A    between atoms: C_22  and  C_24
REMARK   16  A    between atoms: C_25  and  O_26
REMARK                            x       y       z     vdW  Elec       q    Type
REMARK                         _______ _______ _______ _____ _____    ______ ____
ROOT
ATOM      1  C   LIG A   1      -7.811   6.682 131.202  0.00  0.00    -0.001 A 
ATOM      2  C   LIG A   1      -7.736   5.741 132.235  0.00  0.00    +0.022 A 
ATOM      3  C   LIG A   1      -8.899   5.148 132.746  0.00  0.00    +0.060 A 
ATOM      4  C   LIG A   1     -10.153   5.493 132.219  0.00  0.00    +0.022 A 
ATOM      5  C   LIG A   1     -10.264   6.470 131.214  0.00  0.00    -0.001 A 
ATOM      6  C   LIG A   1      -9.078   7.033 130.708  0.00  0.00    +0.124 A 
ENDROOT
BRANCH   3   7
ATOM      7  C   LIG A   1      -8.815   4.183 133.865  0.00  0.00    +0.339 C 
ATOM      8  O   LIG A   1      -8.237   4.401 134.926  0.00  0.00    -0.245 OA
BRANCH   7   9
ATOM      9  O   LIG A   1      -9.415   3.032 133.488  0.00  0.00    -0.465 OA
ATOM     10  C   LIG A   1      -8.603   2.111 132.762  0.00  0.00    +0.280 C 
ENDBRANCH   7   9
ENDBRANCH   3   7
BRANCH   6  11
ATOM     11  O   LIG A   1      -9.122   7.953 129.698  0.00  0.00    -0.506 OA
ATOM     12  H   LIG A   1      -8.292   8.458 129.737  0.00  0.00    +0.292 HD
ENDBRANCH   6  11
BRANCH   1  13
ATOM     13  C   LIG A   1      -6.541   7.331 130.685  0.00  0.00    +0.066 C 
BRANCH  13  16
ATOM     14  C   LIG A   1      -3.757   7.835 129.383  0.00  0.00    +0.038 C 
ATOM     15  C   LIG A   1      -4.185   6.557 130.052  0.00  0.00    -0.076 C 
ATOM     16  C   LIG A   1      -5.395   6.357 130.615  0.00  0.00    -0.023 C 
BRANCH  15  17
ATOM     17  C   LIG A   1      -3.140   5.458 130.097  0.00  0.00    +0.034 C 
BRANCH  17  18
ATOM     18  C   LIG A   1      -2.537   5.147 128.722  0.00  0.00    +0.031 C 
BRANCH  18  19
ATOM     19  C   LIG A   1      -3.423   4.230 127.931  0.00  0.00    -0.028 C 
ATOM     20  C   LIG A   1      -3.029   3.276 127.068  0.00  0.00    -0.080 C 
ATOM     21  C   LIG A   1      -1.596   2.981 126.717  0.00  0.00    +0.038 C 
ATOM     22  C   LIG A   1      -4.043   2.426 126.353  0.00  0.00    +0.038 C 
ENDBRANCH  18  19
ENDBRANCH  17  18
ENDBRANCH  15  17
ENDBRANCH  13  16
ENDBRANCH   1  13
BRANCH   5  23
ATOM     23  C   LIG A   1     -11.644   6.904 130.746  0.00  0.00    +0.066 C 
BRANCH  23  24
ATOM     24  C   LIG A   1     -11.905   6.614 129.291  0.00  0.00    -0.023 C 
ATOM     25  C   LIG A   1     -12.373   7.478 128.366  0.00  0.00    -0.079 C 
ATOM     26  C   LIG A   1     -12.727   8.921 128.612  0.00  0.00    +0.038 C 
ATOM     27  C   LIG A   1     -12.606   7.042 126.942  0.00  0.00    +0.038 C 
ENDBRANCH  23  24
ENDBRANCH   5  23
TORSDOF 10
ENDMDL
MODEL 6
REMARK VINA RESULT:      -7.3      3.629      5.207
REMARK  Name = NuBBE_1759
REMARK  16 active torsions:
REMARK  status: ('A' for Active; 'I' for Inactive)
REMARK    1  A    between atoms: C_1  and  C_2
REMARK    2  A    between atoms: C_2  and  C_3
REMARK    3  A    between atoms: C_3  and  C_4
REMARK    4  A    between atoms: C_4  and  C_5
REMARK    5  A    between atoms: C_6  and  C_7
REMARK    6  A    between atoms: C_6  and  C_8
REMARK    7  A    between atoms: C_9  and  C_10
REMARK    8  A    between atoms: C_10  and  C_11
REMARK    9  A    between atoms: C_13  and  C_14
REMARK   10  A    between atoms: C_14  and  O_15
REMARK   11  A    between atoms: O_15  and  C_16
REMARK   12  A    between atoms: C_19  and  C_20
REMARK   13  A    between atoms: C_20  and  C_21
REMARK   14  A    between atoms: C_22  and  C_23
REMARK   15  A    between atoms: C_22  and  C_24
REMARK   16  A    between atoms: C_25  and  O_26
REMARK                            x       y       z     vdW  Elec       q    Type
REMARK                         _______ _______ _______ _____ _____    ______ ____
ROOT
ATOM      1  C   LIG A   1      -9.249   4.104 130.068  0.00  0.00    -0.001 A 
ATOM      2  C   LIG A   1      -8.088   4.842 130.321  0.00  0.00    +0.022 A 
ATOM      3  C   LIG A   1      -8.161   6.088 130.960  0.00  0.00    +0.060 A 
ATOM      4  C   LIG A   1      -9.404   6.604 131.354  0.00  0.00    +0.022 A 
ATOM      5  C   LIG A   1     -10.592   5.907 131.070  0.00  0.00    -0.001 A 
ATOM      6  C   LIG A   1     -10.487   4.651 130.446  0.00  0.00    +0.124 A 
ENDROOT
BRANCH   3   7
ATOM      7  C   LIG A   1      -6.932   6.881 131.191  0.00  0.00    +0.339 C 
ATOM      8  O   LIG A   1      -6.517   7.752 130.432  0.00  0.00    -0.245 OA
BRANCH   7   9
ATOM      9  O   LIG A   1      -6.336   6.435 132.319  0.00  0.00    -0.465 OA
ATOM     10  C   LIG A   1      -4.915   6.327 132.277  0.00  0.00    +0.280 C 
ENDBRANCH   7   9
ENDBRANCH   3   7
BRANCH   6  11
ATOM     11  O   LIG A   1     -11.603   3.907 130.187  0.00  0.00    -0.506 OA
ATOM     12  H   LIG A   1     -12.311   4.247 130.761  0.00  0.00    +0.292 HD
ENDBRANCH   6  11
BRANCH   1  13
ATOM     13  C   LIG A   1      -9.149   2.771 129.350  0.00  0.00    +0.066 C 
BRANCH  13  16
ATOM     14  C   LIG A   1      -6.241   1.655 129.393  0.00  0.00    +0.038 C 
ATOM     15  C   LIG A   1      -7.366   1.185 130.276  0.00  0.00    -0.076 C 
ATOM     16  C   LIG A   1      -8.620   1.683 130.247  0.00  0.00    -0.023 C 
BRANCH  15  17
ATOM     17  C   LIG A   1      -7.008   0.096 131.270  0.00  0.00    +0.034 C 
BRANCH  17  18
ATOM     18  C   LIG A   1      -7.598   0.341 132.664  0.00  0.00    +0.031 C 
BRANCH  18  19
ATOM     19  C   LIG A   1      -6.870   1.443 133.380  0.00  0.00    -0.028 C 
ATOM     20  C   LIG A   1      -7.383   2.623 133.774  0.00  0.00    -0.080 C 
ATOM     21  C   LIG A   1      -8.800   3.062 133.528  0.00  0.00    +0.038 C 
ATOM     22  C   LIG A   1      -6.524   3.626 134.493  0.00  0.00    +0.038 C 
ENDBRANCH  18  19
ENDBRANCH  17  18
ENDBRANCH  15  17
ENDBRANCH  13  16
ENDBRANCH   1  13
BRANCH   5  23
ATOM     23  C   LIG A   1     -11.930   6.547 131.407  0.00  0.00    +0.066 C 
BRANCH  23  24
ATOM     24  C   LIG A   1     -12.233   7.776 130.590  0.00  0.00    -0.023 C 
ATOM     25  C   LIG A   1     -12.747   7.810 129.342  0.00  0.00    -0.079 C 
ATOM     26  C   LIG A   1     -13.124   6.610 128.516  0.00  0.00    +0.038 C 
ATOM     27  C   LIG A   1     -12.980   9.120 128.634  0.00  0.00    +0.038 C 
ENDBRANCH  23  24
ENDBRANCH   5  23
TORSDOF 10
ENDMDL
MODEL 7
REMARK VINA RESULT:      -7.3      3.559      6.258
REMARK  Name = NuBBE_1759
REMARK  16 active torsions:
REMARK  status: ('A' for Active; 'I' for Inactive)
REMARK    1  A    between atoms: C_1  and  C_2
REMARK    2  A    between atoms: C_2  and  C_3
REMARK    3  A    between atoms: C_3  and  C_4
REMARK    4  A    between atoms: C_4  and  C_5
REMARK    5  A    between atoms: C_6  and  C_7
REMARK    6  A    between atoms: C_6  and  C_8
REMARK    7  A    between atoms: C_9  and  C_10
REMARK    8  A    between atoms: C_10  and  C_11
REMARK    9  A    between atoms: C_13  and  C_14
REMARK   10  A    between atoms: C_14  and  O_15
REMARK   11  A    between atoms: O_15  and  C_16
REMARK   12  A    between atoms: C_19  and  C_20
REMARK   13  A    between atoms: C_20  and  C_21
REMARK   14  A    between atoms: C_22  and  C_23
REMARK   15  A    between atoms: C_22  and  C_24
REMARK   16  A    between atoms: C_25  and  O_26
REMARK                            x       y       z     vdW  Elec       q    Type
REMARK                         _______ _______ _______ _____ _____    ______ ____
ROOT
ATOM      1  C   LIG A   1      -8.394   5.265 132.919  0.00  0.00    -0.001 A 
ATOM      2  C   LIG A   1      -7.133   5.665 132.463  0.00  0.00    +0.022 A 
ATOM      3  C   LIG A   1      -7.014   6.585 131.411  0.00  0.00    +0.060 A 
ATOM      4  C   LIG A   1      -8.164   7.115 130.808  0.00  0.00    +0.022 A 
ATOM      5  C   LIG A   1      -9.444   6.696 131.212  0.00  0.00    -0.001 A 
ATOM      6  C   LIG A   1      -9.533   5.788 132.283  0.00  0.00    +0.124 A 
ENDROOT
BRANCH   3   7
ATOM      7  C   LIG A   1      -5.677   6.974 130.909  0.00  0.00    +0.339 C 
ATOM      8  O   LIG A   1      -5.473   7.898 130.126  0.00  0.00    -0.245 OA
BRANCH   7   9
ATOM      9  O   LIG A   1      -4.762   6.110 131.403  0.00  0.00    -0.465 OA
ATOM     10  C   LIG A   1      -3.903   5.493 130.447  0.00  0.00    +0.280 C 
ENDBRANCH   7   9
ENDBRANCH   3   7
BRANCH   6  11
ATOM     11  O   LIG A   1     -10.751   5.381 132.750  0.00  0.00    -0.506 OA
ATOM     12  H   LIG A   1     -10.608   5.019 133.640  0.00  0.00    +0.292 HD
ENDBRANCH   6  11
BRANCH   1  13
ATOM     13  C   LIG A   1      -8.499   4.248 134.039  0.00  0.00    +0.066 C 
BRANCH  13  16
ATOM     14  C   LIG A   1      -9.789   2.060 132.236  0.00  0.00    +0.038 C 
ATOM     15  C   LIG A   1      -8.435   1.964 132.885  0.00  0.00    -0.076 C 
ATOM     16  C   LIG A   1      -7.889   2.924 133.660  0.00  0.00    -0.023 C 
BRANCH  15  17
ATOM     17  C   LIG A   1      -7.656   0.694 132.593  0.00  0.00    +0.034 C 
BRANCH  17  18
ATOM     18  C   LIG A   1      -8.514  -0.401 131.950  0.00  0.00    +0.031 C 
BRANCH  18  19
ATOM     19  C   LIG A   1      -7.664  -1.425 131.256  0.00  0.00    -0.028 C 
ATOM     20  C   LIG A   1      -7.280  -2.618 131.746  0.00  0.00    -0.080 C 
ATOM     21  C   LIG A   1      -7.620  -3.127 133.120  0.00  0.00    +0.038 C 
ATOM     22  C   LIG A   1      -6.430  -3.545 130.921  0.00  0.00    +0.038 C 
ENDBRANCH  18  19
ENDBRANCH  17  18
ENDBRANCH  15  17
ENDBRANCH  13  16
ENDBRANCH   1  13
BRANCH   5  23
ATOM     23  C   LIG A   1     -10.666   7.203 130.462  0.00  0.00    +0.066 C 
BRANCH  23  24
ATOM     24  C   LIG A   1     -10.410   7.460 128.999  0.00  0.00    -0.023 C 
ATOM     25  C   LIG A   1     -11.319   7.422 128.002  0.00  0.00    -0.079 C 
ATOM     26  C   LIG A   1     -12.784   7.114 128.161  0.00  0.00    +0.038 C 
ATOM     27  C   LIG A   1     -10.916   7.683 126.573  0.00  0.00    +0.038 C 
ENDBRANCH  23  24
ENDBRANCH   5  23
TORSDOF 10
ENDMDL
MODEL 8
REMARK VINA RESULT:      -7.3      9.236     13.147
REMARK  Name = NuBBE_1759
REMARK  16 active torsions:
REMARK  status: ('A' for Active; 'I' for Inactive)
REMARK    1  A    between atoms: C_1  and  C_2
REMARK    2  A    between atoms: C_2  and  C_3
REMARK    3  A    between atoms: C_3  and  C_4
REMARK    4  A    between atoms: C_4  and  C_5
REMARK    5  A    between atoms: C_6  and  C_7
REMARK    6  A    between atoms: C_6  and  C_8
REMARK    7  A    between atoms: C_9  and  C_10
REMARK    8  A    between atoms: C_10  and  C_11
REMARK    9  A    between atoms: C_13  and  C_14
REMARK   10  A    between atoms: C_14  and  O_15
REMARK   11  A    between atoms: O_15  and  C_16
REMARK   12  A    between atoms: C_19  and  C_20
REMARK   13  A    between atoms: C_20  and  C_21
REMARK   14  A    between atoms: C_22  and  C_23
REMARK   15  A    between atoms: C_22  and  C_24
REMARK   16  A    between atoms: C_25  and  O_26
REMARK                            x       y       z     vdW  Elec       q    Type
REMARK                         _______ _______ _______ _____ _____    ______ ____
ROOT
ATOM      1  C   LIG A   1      -9.227  -0.030 125.218  0.00  0.00    -0.001 A 
ATOM      2  C   LIG A   1      -8.617   0.224 126.451  0.00  0.00    +0.022 A 
ATOM      3  C   LIG A   1      -7.780  -0.734 127.042  0.00  0.00    +0.060 A 
ATOM      4  C   LIG A   1      -7.545  -1.957 126.396  0.00  0.00    +0.022 A 
ATOM      5  C   LIG A   1      -8.183  -2.259 125.180  0.00  0.00    -0.001 A 
ATOM      6  C   LIG A   1      -9.001  -1.271 124.601  0.00  0.00    +0.124 A 
ENDROOT
BRANCH   3   7
ATOM      7  C   LIG A   1      -7.168  -0.474 128.365  0.00  0.00    +0.339 C 
ATOM      8  O   LIG A   1      -7.233   0.597 128.960  0.00  0.00    -0.245 OA
BRANCH   7   9
ATOM      9  O   LIG A   1      -6.491  -1.579 128.752  0.00  0.00    -0.465 OA
ATOM     10  C   LIG A   1      -6.715  -2.014 130.091  0.00  0.00    +0.280 C 
ENDBRANCH   7   9
ENDBRANCH   3   7
BRANCH   6  11
ATOM     11  O   LIG A   1      -9.609  -1.491 123.397  0.00  0.00    -0.506 OA
ATOM     12  H   LIG A   1      -9.647  -2.454 123.269  0.00  0.00    +0.292 HD
ENDBRANCH   6  11
BRANCH   1  13
ATOM     13  C   LIG A   1     -10.151   1.009 124.611  0.00  0.00    +0.066 C 
BRANCH  13  16
ATOM     14  C   LIG A   1      -8.261   3.482 124.727  0.00  0.00    +0.038 C 
ATOM     15  C   LIG A   1      -8.704   2.785 123.469  0.00  0.00    -0.076 C 
ATOM     16  C   LIG A   1      -9.521   1.711 123.437  0.00  0.00    -0.023 C 
BRANCH  15  17
ATOM     17  C   LIG A   1      -8.144   3.346 122.175  0.00  0.00    +0.034 C 
BRANCH  17  18
ATOM     18  C   LIG A   1      -6.710   2.882 121.892  0.00  0.00    +0.031 C 
BRANCH  18  19
ATOM     19  C   LIG A   1      -5.911   3.956 121.212  0.00  0.00    -0.028 C 
ATOM     20  C   LIG A   1      -6.187   4.539 120.032  0.00  0.00    -0.080 C 
ATOM     21  C   LIG A   1      -7.355   4.181 119.154  0.00  0.00    +0.038 C 
ATOM     22  C   LIG A   1      -5.290   5.615 119.483  0.00  0.00    +0.038 C 
ENDBRANCH  18  19
ENDBRANCH  17  18
ENDBRANCH  15  17
ENDBRANCH  13  16
ENDBRANCH   1  13
BRANCH   5  23
ATOM     23  C   LIG A   1      -7.998  -3.637 124.564  0.00  0.00    +0.066 C 
BRANCH  23  24
ATOM     24  C   LIG A   1      -6.555  -4.057 124.450  0.00  0.00    -0.023 C 
ATOM     25  C   LIG A   1      -5.614  -3.504 123.656  0.00  0.00    -0.079 C 
ATOM     26  C   LIG A   1      -5.825  -2.344 122.720  0.00  0.00    +0.038 C 
ATOM     27  C   LIG A   1      -4.206  -4.043 123.630  0.00  0.00    +0.038 C 
ENDBRANCH  23  24
ENDBRANCH   5  23
TORSDOF 10
ENDMDL
MODEL 9
REMARK VINA RESULT:      -7.2      3.257      4.440
REMARK  Name = NuBBE_1759
REMARK  16 active torsions:
REMARK  status: ('A' for Active; 'I' for Inactive)
REMARK    1  A    between atoms: C_1  and  C_2
REMARK    2  A    between atoms: C_2  and  C_3
REMARK    3  A    between atoms: C_3  and  C_4
REMARK    4  A    between atoms: C_4  and  C_5
REMARK    5  A    between atoms: C_6  and  C_7
REMARK    6  A    between atoms: C_6  and  C_8
REMARK    7  A    between atoms: C_9  and  C_10
REMARK    8  A    between atoms: C_10  and  C_11
REMARK    9  A    between atoms: C_13  and  C_14
REMARK   10  A    between atoms: C_14  and  O_15
REMARK   11  A    between atoms: O_15  and  C_16
REMARK   12  A    between atoms: C_19  and  C_20
REMARK   13  A    between atoms: C_20  and  C_21
REMARK   14  A    between atoms: C_22  and  C_23
REMARK   15  A    between atoms: C_22  and  C_24
REMARK   16  A    between atoms: C_25  and  O_26
REMARK                            x       y       z     vdW  Elec       q    Type
REMARK                         _______ _______ _______ _____ _____    ______ ____
ROOT
ATOM      1  C   LIG A   1      -9.336   4.500 132.203  0.00  0.00    -0.001 A 
ATOM      2  C   LIG A   1      -8.746   3.760 131.173  0.00  0.00    +0.022 A 
ATOM      3  C   LIG A   1      -8.753   4.240 129.856  0.00  0.00    +0.060 A 
ATOM      4  C   LIG A   1      -9.352   5.475 129.561  0.00  0.00    +0.022 A 
ATOM      5  C   LIG A   1      -9.994   6.217 130.567  0.00  0.00    -0.001 A 
ATOM      6  C   LIG A   1      -9.954   5.720 131.883  0.00  0.00    +0.124 A 
ENDROOT
BRANCH   3   7
ATOM      7  C   LIG A   1      -8.161   3.435 128.765  0.00  0.00    +0.339 C 
ATOM      8  O   LIG A   1      -7.129   3.729 128.168  0.00  0.00    -0.245 OA
BRANCH   7   9
ATOM      9  O   LIG A   1      -8.975   2.386 128.512  0.00  0.00    -0.465 OA
ATOM     10  C   LIG A   1      -8.334   1.177 128.110  0.00  0.00    +0.280 C 
ENDBRANCH   7   9
ENDBRANCH   3   7
BRANCH   6  11
ATOM     11  O   LIG A   1     -10.521   6.422 132.909  0.00  0.00    -0.506 OA
ATOM     12  H   LIG A   1     -10.273   5.971 133.733  0.00  0.00    +0.292 HD
ENDBRANCH   6  11
BRANCH   1  13
ATOM     13  C   LIG A   1      -9.342   3.947 133.616  0.00  0.00    +0.066 C 
BRANCH  13  16
ATOM     14  C   LIG A   1      -6.712   2.304 133.908  0.00  0.00    +0.038 C 
ATOM     15  C   LIG A   1      -6.968   3.651 134.528  0.00  0.00    -0.076 C 
ATOM     16  C   LIG A   1      -8.113   4.351 134.387  0.00  0.00    -0.023 C 
BRANCH  15  17
ATOM     17  C   LIG A   1      -5.820   4.233 135.332  0.00  0.00    +0.034 C 
BRANCH  17  18
ATOM     18  C   LIG A   1      -4.786   4.957 134.462  0.00  0.00    +0.031 C 
BRANCH  18  19
ATOM     19  C   LIG A   1      -5.445   5.916 133.513  0.00  0.00    -0.028 C 
ATOM     20  C   LIG A   1      -5.597   5.759 132.185  0.00  0.00    -0.080 C 
ATOM     21  C   LIG A   1      -5.090   4.580 131.401  0.00  0.00    +0.038 C 
ATOM     22  C   LIG A   1      -6.292   6.812 131.366  0.00  0.00    +0.038 C 
ENDBRANCH  18  19
ENDBRANCH  17  18
ENDBRANCH  15  17
ENDBRANCH  13  16
ENDBRANCH   1  13
BRANCH   5  23
ATOM     23  C   LIG A   1     -10.733   7.494 130.195  0.00  0.00    +0.066 C 
BRANCH  23  24
ATOM     24  C   LIG A   1     -12.097   7.249 129.602  0.00  0.00    -0.023 C 
ATOM     25  C   LIG A   1     -12.436   7.328 128.298  0.00  0.00    -0.079 C 
ATOM     26  C   LIG A   1     -11.504   7.678 127.168  0.00  0.00    +0.038 C 
ATOM     27  C   LIG A   1     -13.852   7.075 127.847  0.00  0.00    +0.038 C 
ENDBRANCH  23  24
ENDBRANCH   5  23
TORSDOF 10
ENDMDL
