MODEL 1
REMARK VINA RESULT:      -8.1      0.000      0.000
REMARK  Name = NuBBE_2186
REMARK  9 active torsions:
REMARK  status: ('A' for Active; 'I' for Inactive)
REMARK    1  A    between atoms: C_1  and  C_3
REMARK    2  A    between atoms: C_1  and  C_13
REMARK    3  A    between atoms: C_1  and  C_14
REMARK    4  A    between atoms: C_3  and  C_4
REMARK    5  A    between atoms: C_15  and  O_16
REMARK    6  A    between atoms: O_16  and  C_17
REMARK    7  A    between atoms: C_19  and  O_25
REMARK    8  A    between atoms: C_20  and  C_22
REMARK    9  A    between atoms: C_22  and  C_23
REMARK                            x       y       z     vdW  Elec       q    Type
REMARK                         _______ _______ _______ _____ _____    ______ ____
ROOT
ATOM      1  C   LIG A   1      -7.637   0.278 124.449  0.00  0.00    -0.002 A 
ATOM      2  C   LIG A   1      -8.898  -0.313 124.256  0.00  0.00    +0.127 A 
ATOM      3  C   LIG A   1      -9.045  -1.712 124.276  0.00  0.00    +0.091 A 
ATOM      4  C   LIG A   1      -7.935  -2.542 124.488  0.00  0.00    +0.124 A 
ATOM      5  C   LIG A   1      -6.668  -1.993 124.690  0.00  0.00    -0.002 A 
ATOM      6  C   LIG A   1      -6.550  -0.597 124.715  0.00  0.00    +0.015 A 
ENDROOT
BRANCH   1   7
ATOM      7  C   LIG A   1      -7.291   1.764 124.318  0.00  0.00    +0.024 C 
ATOM      8  C   LIG A   1      -7.353   2.492 125.672  0.00  0.00    +0.013 C 
BRANCH   7   9
ATOM      9  C   LIG A   1      -7.997   2.631 123.245  0.00  0.00    +0.043 C 
BRANCH   9  10
ATOM     10  C   LIG A   1      -7.169   3.298 122.170  0.00  0.00    -0.043 A 
ATOM     11  C   LIG A   1      -7.639   3.537 120.873  0.00  0.00    +0.053 A 
ATOM     12  C   LIG A   1      -6.852   4.297 120.034  0.00  0.00    +0.167 A 
ATOM     13  C   LIG A   1      -5.614   4.758 120.413  0.00  0.00    +0.166 A 
ATOM     14  C   LIG A   1      -5.066   4.445 121.634  0.00  0.00    +0.050 A 
ATOM     15  C   LIG A   1      -5.851   3.696 122.512  0.00  0.00    +0.007 A 
ATOM     16  O   LIG A   1      -5.031   5.537 119.461  0.00  0.00    -0.453 OA
ATOM     17  C   LIG A   1      -6.033   5.481 118.424  0.00  0.00    +0.466 C 
ATOM     18  O   LIG A   1      -7.194   4.703 118.778  0.00  0.00    -0.453 OA
ENDBRANCH   9  10
ENDBRANCH   7   9
ENDBRANCH   1   7
BRANCH   2  19
ATOM     19  O   LIG A   1      -9.995   0.415 123.867  0.00  0.00    -0.495 OA
ATOM     20  C   LIG A   1     -10.292   0.274 122.473  0.00  0.00    +0.277 C 
ENDBRANCH   2  19
BRANCH   4  21
ATOM     21  O   LIG A   1      -8.090  -3.902 124.492  0.00  0.00    -0.506 OA
ATOM     22  H   LIG A   1      -7.988  -4.236 123.586  0.00  0.00    +0.292 HD
ENDBRANCH   4  21
BRANCH   5  23
ATOM     23  C   LIG A   1      -5.442  -2.887 124.839  0.00  0.00    +0.065 C 
BRANCH  23  24
ATOM     24  C   LIG A   1      -4.928  -3.459 123.529  0.00  0.00    -0.030 C 
ATOM     25  C   LIG A   1      -4.030  -4.449 123.406  0.00  0.00    +0.004 C 
ENDBRANCH  23  24
ENDBRANCH   5  23
TORSDOF 7
ENDMDL
MODEL 2
REMARK VINA RESULT:      -7.7      1.894      2.806
REMARK  Name = NuBBE_2186
REMARK  9 active torsions:
REMARK  status: ('A' for Active; 'I' for Inactive)
REMARK    1  A    between atoms: C_1  and  C_3
REMARK    2  A    between atoms: C_1  and  C_13
REMARK    3  A    between atoms: C_1  and  C_14
REMARK    4  A    between atoms: C_3  and  C_4
REMARK    5  A    between atoms: C_15  and  O_16
REMARK    6  A    between atoms: O_16  and  C_17
REMARK    7  A    between atoms: C_19  and  O_25
REMARK    8  A    between atoms: C_20  and  C_22
REMARK    9  A    between atoms: C_22  and  C_23
REMARK                            x       y       z     vdW  Elec       q    Type
REMARK                         _______ _______ _______ _____ _____    ______ ____
ROOT
ATOM      1  C   LIG A   1      -6.670   1.132 124.782  0.00  0.00    -0.002 A 
ATOM      2  C   LIG A   1      -5.762   0.923 125.834  0.00  0.00    +0.127 A 
ATOM      3  C   LIG A   1      -5.303  -0.372 126.140  0.00  0.00    +0.091 A 
ATOM      4  C   LIG A   1      -5.744  -1.477 125.398  0.00  0.00    +0.124 A 
ATOM      5  C   LIG A   1      -6.640  -1.309 124.342  0.00  0.00    -0.002 A 
ATOM      6  C   LIG A   1      -7.048  -0.007 124.022  0.00  0.00    +0.015 A 
ENDROOT
BRANCH   1   7
ATOM      7  C   LIG A   1      -7.365   2.447 124.417  0.00  0.00    +0.024 C 
ATOM      8  C   LIG A   1      -8.430   2.843 125.455  0.00  0.00    +0.013 C 
BRANCH   7   9
ATOM      9  C   LIG A   1      -7.948   2.645 122.995  0.00  0.00    +0.043 C 
BRANCH   9  10
ATOM     10  C   LIG A   1      -7.120   3.357 121.949  0.00  0.00    -0.043 A 
ATOM     11  C   LIG A   1      -7.598   3.671 120.671  0.00  0.00    +0.053 A 
ATOM     12  C   LIG A   1      -6.807   4.463 119.866  0.00  0.00    +0.167 A 
ATOM     13  C   LIG A   1      -5.559   4.885 120.256  0.00  0.00    +0.166 A 
ATOM     14  C   LIG A   1      -5.005   4.500 121.453  0.00  0.00    +0.050 A 
ATOM     15  C   LIG A   1      -5.793   3.717 122.298  0.00  0.00    +0.007 A 
ATOM     16  O   LIG A   1      -4.974   5.706 119.341  0.00  0.00    -0.453 OA
ATOM     17  C   LIG A   1      -5.986   5.719 118.313  0.00  0.00    +0.466 C 
ATOM     18  O   LIG A   1      -7.156   4.940 118.637  0.00  0.00    -0.453 OA
ENDBRANCH   9  10
ENDBRANCH   7   9
ENDBRANCH   1   7
BRANCH   2  19
ATOM     19  O   LIG A   1      -5.423   1.919 126.716  0.00  0.00    -0.495 OA
ATOM     20  C   LIG A   1      -6.015   1.746 128.008  0.00  0.00    +0.277 C 
ENDBRANCH   2  19
BRANCH   4  21
ATOM     21  O   LIG A   1      -5.299  -2.732 125.714  0.00  0.00    -0.506 OA
ATOM     22  H   LIG A   1      -5.634  -2.977 126.592  0.00  0.00    +0.292 HD
ENDBRANCH   4  21
BRANCH   5  23
ATOM     23  C   LIG A   1      -7.189  -2.512 123.582  0.00  0.00    +0.065 C 
BRANCH  23  24
ATOM     24  C   LIG A   1      -8.495  -3.054 124.139  0.00  0.00    -0.030 C 
ATOM     25  C   LIG A   1      -9.595  -3.333 123.423  0.00  0.00    +0.004 C 
ENDBRANCH  23  24
ENDBRANCH   5  23
TORSDOF 7
ENDMDL
MODEL 3
REMARK VINA RESULT:      -7.7      3.968      5.100
REMARK  Name = NuBBE_2186
REMARK  9 active torsions:
REMARK  status: ('A' for Active; 'I' for Inactive)
REMARK    1  A    between atoms: C_1  and  C_3
REMARK    2  A    between atoms: C_1  and  C_13
REMARK    3  A    between atoms: C_1  and  C_14
REMARK    4  A    between atoms: C_3  and  C_4
REMARK    5  A    between atoms: C_15  and  O_16
REMARK    6  A    between atoms: O_16  and  C_17
REMARK    7  A    between atoms: C_19  and  O_25
REMARK    8  A    between atoms: C_20  and  C_22
REMARK    9  A    between atoms: C_22  and  C_23
REMARK                            x       y       z     vdW  Elec       q    Type
REMARK                         _______ _______ _______ _____ _____    ______ ____
ROOT
ATOM      1  C   LIG A   1      -6.575   0.202 125.375  0.00  0.00    -0.002 A 
ATOM      2  C   LIG A   1      -7.965   0.260 125.171  0.00  0.00    +0.127 A 
ATOM      3  C   LIG A   1      -8.604  -0.664 124.325  0.00  0.00    +0.091 A 
ATOM      4  C   LIG A   1      -7.866  -1.659 123.669  0.00  0.00    +0.124 A 
ATOM      5  C   LIG A   1      -6.486  -1.753 123.851  0.00  0.00    -0.002 A 
ATOM      6  C   LIG A   1      -5.874  -0.855 124.736  0.00  0.00    +0.015 A 
ENDROOT
BRANCH   1   7
ATOM      7  C   LIG A   1      -5.718   1.210 126.147  0.00  0.00    +0.024 C 
ATOM      8  C   LIG A   1      -6.196   1.380 127.599  0.00  0.00    +0.013 C 
BRANCH   7   9
ATOM      9  C   LIG A   1      -5.436   2.609 125.541  0.00  0.00    +0.043 C 
BRANCH   9  10
ATOM     10  C   LIG A   1      -4.501   3.553 126.263  0.00  0.00    -0.043 A 
ATOM     11  C   LIG A   1      -4.867   4.844 126.662  0.00  0.00    +0.053 A 
ATOM     12  C   LIG A   1      -3.983   5.546 127.453  0.00  0.00    +0.167 A 
ATOM     13  C   LIG A   1      -2.751   5.044 127.796  0.00  0.00    +0.166 A 
ATOM     14  C   LIG A   1      -2.307   3.831 127.327  0.00  0.00    +0.050 A 
ATOM     15  C   LIG A   1      -3.190   3.088 126.542  0.00  0.00    +0.007 A 
ATOM     16  O   LIG A   1      -2.063   5.870 128.632  0.00  0.00    -0.453 OA
ATOM     17  C   LIG A   1      -2.993   6.968 128.743  0.00  0.00    +0.466 C 
ATOM     18  O   LIG A   1      -4.216   6.771 128.005  0.00  0.00    -0.453 OA
ENDBRANCH   9  10
ENDBRANCH   7   9
ENDBRANCH   1   7
BRANCH   2  19
ATOM     19  O   LIG A   1      -8.728   1.305 125.630  0.00  0.00    -0.495 OA
ATOM     20  C   LIG A   1      -9.035   2.261 124.610  0.00  0.00    +0.277 C 
ENDBRANCH   2  19
BRANCH   4  21
ATOM     21  O   LIG A   1      -8.499  -2.544 122.839  0.00  0.00    -0.506 OA
ATOM     22  H   LIG A   1      -7.833  -3.087 122.385  0.00  0.00    +0.292 HD
ENDBRANCH   4  21
BRANCH   5  23
ATOM     23  C   LIG A   1      -5.661  -2.779 123.080  0.00  0.00    +0.065 C 
BRANCH  23  24
ATOM     24  C   LIG A   1      -4.882  -3.738 123.963  0.00  0.00    -0.030 C 
ATOM     25  C   LIG A   1      -4.249  -4.847 123.548  0.00  0.00    +0.004 C 
ENDBRANCH  23  24
ENDBRANCH   5  23
TORSDOF 7
ENDMDL
MODEL 4
REMARK VINA RESULT:      -7.6      1.919      2.787
REMARK  Name = NuBBE_2186
REMARK  9 active torsions:
REMARK  status: ('A' for Active; 'I' for Inactive)
REMARK    1  A    between atoms: C_1  and  C_3
REMARK    2  A    between atoms: C_1  and  C_13
REMARK    3  A    between atoms: C_1  and  C_14
REMARK    4  A    between atoms: C_3  and  C_4
REMARK    5  A    between atoms: C_15  and  O_16
REMARK    6  A    between atoms: O_16  and  C_17
REMARK    7  A    between atoms: C_19  and  O_25
REMARK    8  A    between atoms: C_20  and  C_22
REMARK    9  A    between atoms: C_22  and  C_23
REMARK                            x       y       z     vdW  Elec       q    Type
REMARK                         _______ _______ _______ _____ _____    ______ ____
ROOT
ATOM      1  C   LIG A   1      -5.858   0.253 126.161  0.00  0.00    -0.002 A 
ATOM      2  C   LIG A   1      -6.919  -0.221 126.951  0.00  0.00    +0.127 A 
ATOM      3  C   LIG A   1      -7.578  -1.420 126.624  0.00  0.00    +0.091 A 
ATOM      4  C   LIG A   1      -7.186  -2.164 125.501  0.00  0.00    +0.124 A 
ATOM      5  C   LIG A   1      -6.133  -1.729 124.695  0.00  0.00    -0.002 A 
ATOM      6  C   LIG A   1      -5.458  -0.559 125.065  0.00  0.00    +0.015 A 
ENDROOT
BRANCH   1   7
ATOM      7  C   LIG A   1      -5.138   1.598 126.301  0.00  0.00    +0.024 C 
ATOM      8  C   LIG A   1      -4.505   1.770 127.693  0.00  0.00    +0.013 C 
BRANCH   7   9
ATOM      9  C   LIG A   1      -5.866   2.909 125.912  0.00  0.00    +0.043 C 
BRANCH   9  10
ATOM     10  C   LIG A   1      -6.046   3.251 124.450  0.00  0.00    -0.043 A 
ATOM     11  C   LIG A   1      -5.308   4.243 123.795  0.00  0.00    +0.053 A 
ATOM     12  C   LIG A   1      -5.446   4.350 122.428  0.00  0.00    +0.167 A 
ATOM     13  C   LIG A   1      -6.323   3.564 121.719  0.00  0.00    +0.166 A 
ATOM     14  C   LIG A   1      -7.152   2.661 122.340  0.00  0.00    +0.050 A 
ATOM     15  C   LIG A   1      -7.017   2.516 123.722  0.00  0.00    +0.007 A 
ATOM     16  O   LIG A   1      -6.259   3.787 120.378  0.00  0.00    -0.453 OA
ATOM     17  C   LIG A   1      -5.265   4.832 120.330  0.00  0.00    +0.466 C 
ATOM     18  O   LIG A   1      -4.738   5.192 121.623  0.00  0.00    -0.453 OA
ENDBRANCH   9  10
ENDBRANCH   7   9
ENDBRANCH   1   7
BRANCH   2  19
ATOM     19  O   LIG A   1      -7.476   0.532 127.955  0.00  0.00    -0.495 OA
ATOM     20  C   LIG A   1      -8.645   1.245 127.535  0.00  0.00    +0.277 C 
ENDBRANCH   2  19
BRANCH   4  21
ATOM     21  O   LIG A   1      -7.844  -3.322 125.187  0.00  0.00    -0.506 OA
ATOM     22  H   LIG A   1      -7.665  -3.548 124.259  0.00  0.00    +0.292 HD
ENDBRANCH   4  21
BRANCH   5  23
ATOM     23  C   LIG A   1      -5.754  -2.486 123.427  0.00  0.00    +0.065 C 
BRANCH  23  24
ATOM     24  C   LIG A   1      -4.495  -3.326 123.560  0.00  0.00    -0.030 C 
ATOM     25  C   LIG A   1      -4.456  -4.654 123.749  0.00  0.00    +0.004 C 
ENDBRANCH  23  24
ENDBRANCH   5  23
TORSDOF 7
ENDMDL
MODEL 5
REMARK VINA RESULT:      -7.5      8.537     10.665
REMARK  Name = NuBBE_2186
REMARK  9 active torsions:
REMARK  status: ('A' for Active; 'I' for Inactive)
REMARK    1  A    between atoms: C_1  and  C_3
REMARK    2  A    between atoms: C_1  and  C_13
REMARK    3  A    between atoms: C_1  and  C_14
REMARK    4  A    between atoms: C_3  and  C_4
REMARK    5  A    between atoms: C_15  and  O_16
REMARK    6  A    between atoms: O_16  and  C_17
REMARK    7  A    between atoms: C_19  and  O_25
REMARK    8  A    between atoms: C_20  and  C_22
REMARK    9  A    between atoms: C_22  and  C_23
REMARK                            x       y       z     vdW  Elec       q    Type
REMARK                         _______ _______ _______ _____ _____    ______ ____
ROOT
ATOM      1  C   LIG A   1      -7.225   5.533 132.010  0.00  0.00    -0.002 A 
ATOM      2  C   LIG A   1      -7.096   4.343 131.273  0.00  0.00    +0.127 A 
ATOM      3  C   LIG A   1      -6.125   4.228 130.261  0.00  0.00    +0.091 A 
ATOM      4  C   LIG A   1      -5.269   5.300 129.971  0.00  0.00    +0.124 A 
ATOM      5  C   LIG A   1      -5.362   6.495 130.685  0.00  0.00    -0.002 A 
ATOM      6  C   LIG A   1      -6.302   6.573 131.721  0.00  0.00    +0.015 A 
ENDROOT
BRANCH   1   7
ATOM      7  C   LIG A   1      -8.312   5.862 133.037  0.00  0.00    +0.024 C 
ATOM      8  C   LIG A   1      -8.004   5.255 134.417  0.00  0.00    +0.013 C 
BRANCH   7   9
ATOM      9  C   LIG A   1      -9.803   5.608 132.695  0.00  0.00    +0.043 C 
BRANCH   9  10
ATOM     10  C   LIG A   1     -10.459   6.418 131.601  0.00  0.00    -0.043 A 
ATOM     11  C   LIG A   1      -9.765   6.926 130.497  0.00  0.00    +0.053 A 
ATOM     12  C   LIG A   1     -10.501   7.508 129.487  0.00  0.00    +0.167 A 
ATOM     13  C   LIG A   1     -11.865   7.656 129.569  0.00  0.00    +0.166 A 
ATOM     14  C   LIG A   1     -12.569   7.278 130.687  0.00  0.00    +0.050 A 
ATOM     15  C   LIG A   1     -11.852   6.665 131.715  0.00  0.00    +0.007 A 
ATOM     16  O   LIG A   1     -12.401   8.197 128.441  0.00  0.00    -0.453 OA
ATOM     17  C   LIG A   1     -11.209   8.407 127.655  0.00  0.00    +0.466 C 
ATOM     18  O   LIG A   1      -9.999   7.968 128.305  0.00  0.00    -0.453 OA
ENDBRANCH   9  10
ENDBRANCH   7   9
ENDBRANCH   1   7
BRANCH   2  19
ATOM     19  O   LIG A   1      -8.005   3.319 131.372  0.00  0.00    -0.495 OA
ATOM     20  C   LIG A   1      -8.724   3.092 130.154  0.00  0.00    +0.277 C 
ENDBRANCH   2  19
BRANCH   4  21
ATOM     21  O   LIG A   1      -4.337   5.179 128.975  0.00  0.00    -0.506 OA
ATOM     22  H   LIG A   1      -4.792   5.016 128.132  0.00  0.00    +0.292 HD
ENDBRANCH   4  21
BRANCH   5  23
ATOM     23  C   LIG A   1      -4.492   7.694 130.323  0.00  0.00    +0.065 C 
BRANCH  23  24
ATOM     24  C   LIG A   1      -3.341   7.937 131.283  0.00  0.00    -0.030 C 
ATOM     25  C   LIG A   1      -2.340   7.080 131.539  0.00  0.00    +0.004 C 
ENDBRANCH  23  24
ENDBRANCH   5  23
TORSDOF 7
ENDMDL
MODEL 6
REMARK VINA RESULT:      -7.5      2.159      7.163
REMARK  Name = NuBBE_2186
REMARK  9 active torsions:
REMARK  status: ('A' for Active; 'I' for Inactive)
REMARK    1  A    between atoms: C_1  and  C_3
REMARK    2  A    between atoms: C_1  and  C_13
REMARK    3  A    between atoms: C_1  and  C_14
REMARK    4  A    between atoms: C_3  and  C_4
REMARK    5  A    between atoms: C_15  and  O_16
REMARK    6  A    between atoms: O_16  and  C_17
REMARK    7  A    between atoms: C_19  and  O_25
REMARK    8  A    between atoms: C_20  and  C_22
REMARK    9  A    between atoms: C_22  and  C_23
REMARK                            x       y       z     vdW  Elec       q    Type
REMARK                         _______ _______ _______ _____ _____    ______ ____
ROOT
ATOM      1  C   LIG A   1      -6.890   2.384 124.628  0.00  0.00    -0.002 A 
ATOM      2  C   LIG A   1      -8.278   2.168 124.624  0.00  0.00    +0.127 A 
ATOM      3  C   LIG A   1      -9.044   2.444 123.477  0.00  0.00    +0.091 A 
ATOM      4  C   LIG A   1      -8.434   2.941 122.317  0.00  0.00    +0.124 A 
ATOM      5  C   LIG A   1      -7.058   3.163 122.279  0.00  0.00    -0.002 A 
ATOM      6  C   LIG A   1      -6.305   2.836 123.415  0.00  0.00    +0.015 A 
ENDROOT
BRANCH   1   7
ATOM      7  C   LIG A   1      -5.946   2.267 125.829  0.00  0.00    +0.024 C 
ATOM      8  C   LIG A   1      -4.942   3.431 125.889  0.00  0.00    +0.013 C 
BRANCH   7   9
ATOM      9  C   LIG A   1      -5.195   0.938 126.095  0.00  0.00    +0.043 C 
BRANCH   9  10
ATOM     10  C   LIG A   1      -5.962  -0.364 126.071  0.00  0.00    -0.043 A 
ATOM     11  C   LIG A   1      -6.623  -0.889 127.188  0.00  0.00    +0.053 A 
ATOM     12  C   LIG A   1      -7.422  -1.997 127.000  0.00  0.00    +0.167 A 
ATOM     13  C   LIG A   1      -7.529  -2.622 125.781  0.00  0.00    +0.166 A 
ATOM     14  C   LIG A   1      -6.804  -2.209 124.688  0.00  0.00    +0.050 A 
ATOM     15  C   LIG A   1      -6.004  -1.076 124.845  0.00  0.00    +0.007 A 
ATOM     16  O   LIG A   1      -8.415  -3.655 125.798  0.00  0.00    -0.453 OA
ATOM     17  C   LIG A   1      -8.824  -3.630 127.182  0.00  0.00    +0.466 C 
ATOM     18  O   LIG A   1      -8.206  -2.578 127.952  0.00  0.00    -0.453 OA
ENDBRANCH   9  10
ENDBRANCH   7   9
ENDBRANCH   1   7
BRANCH   2  19
ATOM     19  O   LIG A   1      -8.973   1.856 125.767  0.00  0.00    -0.495 OA
ATOM     20  C   LIG A   1      -9.678   0.613 125.670  0.00  0.00    +0.277 C 
ENDBRANCH   2  19
BRANCH   4  21
ATOM     21  O   LIG A   1      -9.194   3.217 121.211  0.00  0.00    -0.506 OA
ATOM     22  H   LIG A   1      -8.736   3.883 120.670  0.00  0.00    +0.292 HD
ENDBRANCH   4  21
BRANCH   5  23
ATOM     23  C   LIG A   1      -6.396   3.779 121.051  0.00  0.00    +0.065 C 
BRANCH  23  24
ATOM     24  C   LIG A   1      -4.903   4.015 121.203  0.00  0.00    -0.030 C 
ATOM     25  C   LIG A   1      -4.319   5.195 121.465  0.00  0.00    +0.004 C 
ENDBRANCH  23  24
ENDBRANCH   5  23
TORSDOF 7
ENDMDL
MODEL 7
REMARK VINA RESULT:      -7.5      2.668      3.352
REMARK  Name = NuBBE_2186
REMARK  9 active torsions:
REMARK  status: ('A' for Active; 'I' for Inactive)
REMARK    1  A    between atoms: C_1  and  C_3
REMARK    2  A    between atoms: C_1  and  C_13
REMARK    3  A    between atoms: C_1  and  C_14
REMARK    4  A    between atoms: C_3  and  C_4
REMARK    5  A    between atoms: C_15  and  O_16
REMARK    6  A    between atoms: O_16  and  C_17
REMARK    7  A    between atoms: C_19  and  O_25
REMARK    8  A    between atoms: C_20  and  C_22
REMARK    9  A    between atoms: C_22  and  C_23
REMARK                            x       y       z     vdW  Elec       q    Type
REMARK                         _______ _______ _______ _____ _____    ______ ____
ROOT
ATOM      1  C   LIG A   1      -7.665  -1.217 125.980  0.00  0.00    -0.002 A 
ATOM      2  C   LIG A   1      -8.596  -2.055 125.342  0.00  0.00    +0.127 A 
ATOM      3  C   LIG A   1      -9.213  -3.107 126.044  0.00  0.00    +0.091 A 
ATOM      4  C   LIG A   1      -8.909  -3.338 127.393  0.00  0.00    +0.124 A 
ATOM      5  C   LIG A   1      -7.995  -2.523 128.063  0.00  0.00    -0.002 A 
ATOM      6  C   LIG A   1      -7.428  -1.451 127.361  0.00  0.00    +0.015 A 
ENDROOT
BRANCH   1   7
ATOM      7  C   LIG A   1      -6.812  -0.127 125.324  0.00  0.00    +0.024 C 
ATOM      8  C   LIG A   1      -5.458   0.049 126.034  0.00  0.00    +0.013 C 
BRANCH   7   9
ATOM      9  C   LIG A   1      -7.421   1.271 125.046  0.00  0.00    +0.043 C 
BRANCH   9  10
ATOM     10  C   LIG A   1      -6.695   2.225 124.125  0.00  0.00    -0.043 A 
ATOM     11  C   LIG A   1      -6.753   2.142 122.729  0.00  0.00    +0.053 A 
ATOM     12  C   LIG A   1      -6.182   3.163 122.000  0.00  0.00    +0.167 A 
ATOM     13  C   LIG A   1      -5.515   4.204 122.600  0.00  0.00    +0.166 A 
ATOM     14  C   LIG A   1      -5.333   4.261 123.962  0.00  0.00    +0.050 A 
ATOM     15  C   LIG A   1      -5.921   3.251 124.725  0.00  0.00    +0.007 A 
ATOM     16  O   LIG A   1      -5.083   5.135 121.705  0.00  0.00    -0.453 OA
ATOM     17  C   LIG A   1      -5.525   4.537 120.468  0.00  0.00    +0.466 C 
ATOM     18  O   LIG A   1      -6.228   3.290 120.644  0.00  0.00    -0.453 OA
ENDBRANCH   9  10
ENDBRANCH   7   9
ENDBRANCH   1   7
BRANCH   2  19
ATOM     19  O   LIG A   1      -8.813  -2.009 123.987  0.00  0.00    -0.495 OA
ATOM     20  C   LIG A   1      -9.425  -3.200 123.479  0.00  0.00    +0.277 C 
ENDBRANCH   2  19
BRANCH   4  21
ATOM     21  O   LIG A   1      -9.507  -4.373 128.060  0.00  0.00    -0.506 OA
ATOM     22  H   LIG A   1     -10.449  -4.400 127.824  0.00  0.00    +0.292 HD
ENDBRANCH   4  21
BRANCH   5  23
ATOM     23  C   LIG A   1      -7.595  -2.815 129.505  0.00  0.00    +0.065 C 
BRANCH  23  24
ATOM     24  C   LIG A   1      -6.215  -3.431 129.654  0.00  0.00    -0.030 C 
ATOM     25  C   LIG A   1      -5.910  -4.499 130.408  0.00  0.00    +0.004 C 
ENDBRANCH  23  24
ENDBRANCH   5  23
TORSDOF 7
ENDMDL
MODEL 8
REMARK VINA RESULT:      -7.4      1.854      7.266
REMARK  Name = NuBBE_2186
REMARK  9 active torsions:
REMARK  status: ('A' for Active; 'I' for Inactive)
REMARK    1  A    between atoms: C_1  and  C_3
REMARK    2  A    between atoms: C_1  and  C_13
REMARK    3  A    between atoms: C_1  and  C_14
REMARK    4  A    between atoms: C_3  and  C_4
REMARK    5  A    between atoms: C_15  and  O_16
REMARK    6  A    between atoms: O_16  and  C_17
REMARK    7  A    between atoms: C_19  and  O_25
REMARK    8  A    between atoms: C_20  and  C_22
REMARK    9  A    between atoms: C_22  and  C_23
REMARK                            x       y       z     vdW  Elec       q    Type
REMARK                         _______ _______ _______ _____ _____    ______ ____
ROOT
ATOM      1  C   LIG A   1      -7.708   2.207 123.738  0.00  0.00    -0.002 A 
ATOM      2  C   LIG A   1      -7.194   3.047 124.741  0.00  0.00    +0.127 A 
ATOM      3  C   LIG A   1      -6.204   4.000 124.441  0.00  0.00    +0.091 A 
ATOM      4  C   LIG A   1      -5.714   4.130 123.133  0.00  0.00    +0.124 A 
ATOM      5  C   LIG A   1      -6.204   3.320 122.109  0.00  0.00    -0.002 A 
ATOM      6  C   LIG A   1      -7.224   2.410 122.418  0.00  0.00    +0.015 A 
ENDROOT
BRANCH   1   7
ATOM      7  C   LIG A   1      -8.676   1.036 123.929  0.00  0.00    +0.024 C 
ATOM      8  C   LIG A   1     -10.132   1.510 124.083  0.00  0.00    +0.013 C 
BRANCH   7   9
ATOM      9  C   LIG A   1      -8.381  -0.045 125.000  0.00  0.00    +0.043 C 
BRANCH   9  10
ATOM     10  C   LIG A   1      -7.641  -1.301 124.599  0.00  0.00    -0.043 A 
ATOM     11  C   LIG A   1      -6.335  -1.298 124.096  0.00  0.00    +0.053 A 
ATOM     12  C   LIG A   1      -5.711  -2.514 123.920  0.00  0.00    +0.167 A 
ATOM     13  C   LIG A   1      -6.352  -3.706 124.161  0.00  0.00    +0.166 A 
ATOM     14  C   LIG A   1      -7.672  -3.755 124.541  0.00  0.00    +0.050 A 
ATOM     15  C   LIG A   1      -8.322  -2.537 124.748  0.00  0.00    +0.007 A 
ATOM     16  O   LIG A   1      -5.539  -4.783 123.985  0.00  0.00    -0.453 OA
ATOM     17  C   LIG A   1      -4.321  -4.130 123.570  0.00  0.00    +0.466 C 
ATOM     18  O   LIG A   1      -4.416  -2.692 123.531  0.00  0.00    -0.453 OA
ENDBRANCH   9  10
ENDBRANCH   7   9
ENDBRANCH   1   7
BRANCH   2  19
ATOM     19  O   LIG A   1      -7.488   2.863 126.070  0.00  0.00    -0.495 OA
ATOM     20  C   LIG A   1      -6.330   2.585 126.864  0.00  0.00    +0.277 C 
ENDBRANCH   2  19
BRANCH   4  21
ATOM     21  O   LIG A   1      -4.742   5.054 122.858  0.00  0.00    -0.506 OA
ATOM     22  H   LIG A   1      -5.163   5.883 122.575  0.00  0.00    +0.292 HD
ENDBRANCH   4  21
BRANCH   5  23
ATOM     23  C   LIG A   1      -5.621   3.396 120.702  0.00  0.00    +0.065 C 
BRANCH  23  24
ATOM     24  C   LIG A   1      -6.282   4.434 119.812  0.00  0.00    -0.030 C 
ATOM     25  C   LIG A   1      -5.652   5.433 119.173  0.00  0.00    +0.004 C 
ENDBRANCH  23  24
ENDBRANCH   5  23
TORSDOF 7
ENDMDL
MODEL 9
REMARK VINA RESULT:      -7.3      3.427      7.922
REMARK  Name = NuBBE_2186
REMARK  9 active torsions:
REMARK  status: ('A' for Active; 'I' for Inactive)
REMARK    1  A    between atoms: C_1  and  C_3
REMARK    2  A    between atoms: C_1  and  C_13
REMARK    3  A    between atoms: C_1  and  C_14
REMARK    4  A    between atoms: C_3  and  C_4
REMARK    5  A    between atoms: C_15  and  O_16
REMARK    6  A    between atoms: O_16  and  C_17
REMARK    7  A    between atoms: C_19  and  O_25
REMARK    8  A    between atoms: C_20  and  C_22
REMARK    9  A    between atoms: C_22  and  C_23
REMARK                            x       y       z     vdW  Elec       q    Type
REMARK                         _______ _______ _______ _____ _____    ______ ____
ROOT
ATOM      1  C   LIG A   1      -7.540   0.381 124.226  0.00  0.00    -0.002 A 
ATOM      2  C   LIG A   1      -8.819   0.911 123.984  0.00  0.00    +0.127 A 
ATOM      3  C   LIG A   1      -9.080   2.278 124.189  0.00  0.00    +0.091 A 
ATOM      4  C   LIG A   1      -8.067   3.137 124.638  0.00  0.00    +0.124 A 
ATOM      5  C   LIG A   1      -6.783   2.650 124.883  0.00  0.00    -0.002 A 
ATOM      6  C   LIG A   1      -6.530   1.296 124.627  0.00  0.00    +0.015 A 
ENDROOT
BRANCH   1   7
ATOM      7  C   LIG A   1      -7.136  -1.095 124.187  0.00  0.00    +0.024 C 
ATOM      8  C   LIG A   1      -6.714  -1.540 122.776  0.00  0.00    +0.013 C 
BRANCH   7   9
ATOM      9  C   LIG A   1      -8.072  -2.170 124.797  0.00  0.00    +0.043 C 
BRANCH   9  10
ATOM     10  C   LIG A   1      -7.917  -2.547 126.252  0.00  0.00    -0.043 A 
ATOM     11  C   LIG A   1      -6.965  -1.968 127.101  0.00  0.00    +0.053 A 
ATOM     12  C   LIG A   1      -7.029  -2.276 128.443  0.00  0.00    +0.167 A 
ATOM     13  C   LIG A   1      -7.945  -3.169 128.945  0.00  0.00    +0.166 A 
ATOM     14  C   LIG A   1      -8.817  -3.849 128.128  0.00  0.00    +0.050 A 
ATOM     15  C   LIG A   1      -8.789  -3.540 126.768  0.00  0.00    +0.007 A 
ATOM     16  O   LIG A   1      -7.878  -3.282 130.299  0.00  0.00    -0.453 OA
ATOM     17  C   LIG A   1      -6.788  -2.381 130.587  0.00  0.00    +0.466 C 
ATOM     18  O   LIG A   1      -6.247  -1.733 129.418  0.00  0.00    -0.453 OA
ENDBRANCH   9  10
ENDBRANCH   7   9
ENDBRANCH   1   7
BRANCH   2  19
ATOM     19  O   LIG A   1      -9.903   0.111 123.717  0.00  0.00    -0.495 OA
ATOM     20  C   LIG A   1     -10.215   0.041 122.322  0.00  0.00    +0.277 C 
ENDBRANCH   2  19
BRANCH   4  21
ATOM     21  O   LIG A   1      -8.338   4.463 124.845  0.00  0.00    -0.506 OA
ATOM     22  H   LIG A   1      -8.238   4.942 124.005  0.00  0.00    +0.292 HD
ENDBRANCH   4  21
BRANCH   5  23
ATOM     23  C   LIG A   1      -5.696   3.558 125.450  0.00  0.00    +0.065 C 
BRANCH  23  24
ATOM     24  C   LIG A   1      -4.916   2.946 126.601  0.00  0.00    -0.030 C 
ATOM     25  C   LIG A   1      -3.611   2.631 126.582  0.00  0.00    +0.004 C 
ENDBRANCH  23  24
ENDBRANCH   5  23
TORSDOF 7
ENDMDL
