MODEL 1
REMARK VINA RESULT:      -8.1      0.000      0.000
REMARK  Name = NuBBE_2004
REMARK  14 active torsions:
REMARK  status: ('A' for Active; 'I' for Inactive)
REMARK    1  A    between atoms: C_1  and  C_2
REMARK    2  A    between atoms: C_7  and  C_9
REMARK    3  A    between atoms: C_12  and  O_13
REMARK    4  A    between atoms: O_13  and  C_14
REMARK    5  A    between atoms: C_14  and  C_15
REMARK    6  A    between atoms: C_17  and  O_18
REMARK    7  A    between atoms: O_18  and  C_19
REMARK    8  A    between atoms: C_23  and  O_24
REMARK    9  A    between atoms: O_24  and  C_25
REMARK   10  A    between atoms: C_25  and  C_26
REMARK   11  A    between atoms: C_28  and  C_29
REMARK   12  A    between atoms: C_30  and  O_31
REMARK   13  A    between atoms: O_31  and  C_32
REMARK   14  A    between atoms: C_32  and  C_33
REMARK                            x       y       z     vdW  Elec       q    Type
REMARK                         _______ _______ _______ _____ _____    ______ ____
ROOT
ATOM      1  C   LIG A   1      -7.586   3.010 127.888  0.00  0.00    +0.051 C 
ATOM      2  C   LIG A   1      -7.546   1.651 127.234  0.00  0.00    +0.035 A 
ATOM      3  C   LIG A   1      -8.264   1.456 126.042  0.00  0.00    +0.142 A 
ATOM      4  C   LIG A   1      -8.266   0.223 125.375  0.00  0.00    +0.102 A 
ATOM      5  C   LIG A   1      -9.012   0.197 124.089  0.00  0.00    +0.174 C 
ATOM      6  C   LIG A   1     -10.090   1.216 123.958  0.00  0.00    +0.129 C 
ATOM      7  C   LIG A   1      -9.428   2.545 124.250  0.00  0.00    +0.211 C 
ATOM      8  O   LIG A   1      -8.978   2.550 125.610  0.00  0.00    -0.483 OA
ATOM      9  O   LIG A   1      -8.735  -0.551 123.160  0.00  0.00    -0.292 OA
ATOM     10  C   LIG A   1      -7.556  -0.861 125.920  0.00  0.00    +0.152 A 
ATOM     11  C   LIG A   1      -6.808  -0.706 127.117  0.00  0.00    +0.035 A 
ATOM     12  C   LIG A   1      -6.021  -1.861 127.685  0.00  0.00    +0.051 C 
ATOM     13  C   LIG A   1      -6.809   0.565 127.749  0.00  0.00    +0.144 A 
ENDROOT
BRANCH   7  14
ATOM     14  C   LIG A   1      -8.330   3.005 123.296  0.00  0.00    -0.003 A 
ATOM     15  C   LIG A   1      -7.007   3.182 123.721  0.00  0.00    +0.011 A 
ATOM     16  C   LIG A   1      -6.008   3.550 122.819  0.00  0.00    +0.050 A 
ATOM     17  C   LIG A   1      -6.316   3.730 121.471  0.00  0.00    +0.173 A 
ATOM     18  C   LIG A   1      -7.637   3.595 121.021  0.00  0.00    +0.163 A 
ATOM     19  C   LIG A   1      -8.620   3.204 121.934  0.00  0.00    +0.056 A 
BRANCH  18  20
ATOM     20  O   LIG A   1      -7.897   3.822 119.692  0.00  0.00    -0.491 OA
ATOM     21  C   LIG A   1      -9.240   4.202 119.390  0.00  0.00    +0.277 C 
ENDBRANCH  18  20
BRANCH  17  22
ATOM     22  O   LIG A   1      -5.343   4.135 120.524  0.00  0.00    -0.422 OA
BRANCH  22  23
ATOM     23  C   LIG A   1      -5.046   5.471 120.245  0.00  0.00    +0.309 C 
ATOM     24  C   LIG A   1      -5.620   5.829 118.907  0.00  0.00    +0.136 C 
ATOM     25  O   LIG A   1      -4.390   6.243 120.930  0.00  0.00    -0.251 OA
ENDBRANCH  22  23
ENDBRANCH  17  22
ENDBRANCH   7  14
BRANCH  10  26
ATOM     26  O   LIG A   1      -7.459  -2.100 125.233  0.00  0.00    -0.425 OA
BRANCH  26  27
ATOM     27  C   LIG A   1      -8.445  -3.082 125.437  0.00  0.00    +0.309 C 
ATOM     28  C   LIG A   1      -8.144  -4.259 124.557  0.00  0.00    +0.136 C 
ATOM     29  O   LIG A   1      -9.417  -2.958 126.182  0.00  0.00    -0.251 OA
ENDBRANCH  26  27
ENDBRANCH  10  26
BRANCH  13  30
ATOM     30  O   LIG A   1      -6.250   0.642 129.059  0.00  0.00    -0.425 OA
BRANCH  30  31
ATOM     31  C   LIG A   1      -4.939   1.058 129.309  0.00  0.00    +0.309 C 
ATOM     32  C   LIG A   1      -4.267   0.029 130.175  0.00  0.00    +0.136 C 
ATOM     33  O   LIG A   1      -4.450   2.137 129.004  0.00  0.00    -0.251 OA
ENDBRANCH  30  31
ENDBRANCH  13  30
TORSDOF 8
ENDMDL
MODEL 2
REMARK VINA RESULT:      -7.8      2.469      7.528
REMARK  Name = NuBBE_2004
REMARK  14 active torsions:
REMARK  status: ('A' for Active; 'I' for Inactive)
REMARK    1  A    between atoms: C_1  and  C_2
REMARK    2  A    between atoms: C_7  and  C_9
REMARK    3  A    between atoms: C_12  and  O_13
REMARK    4  A    between atoms: O_13  and  C_14
REMARK    5  A    between atoms: C_14  and  C_15
REMARK    6  A    between atoms: C_17  and  O_18
REMARK    7  A    between atoms: O_18  and  C_19
REMARK    8  A    between atoms: C_23  and  O_24
REMARK    9  A    between atoms: O_24  and  C_25
REMARK   10  A    between atoms: C_25  and  C_26
REMARK   11  A    between atoms: C_28  and  C_29
REMARK   12  A    between atoms: C_30  and  O_31
REMARK   13  A    between atoms: O_31  and  C_32
REMARK   14  A    between atoms: C_32  and  C_33
REMARK                            x       y       z     vdW  Elec       q    Type
REMARK                         _______ _______ _______ _____ _____    ______ ____
ROOT
ATOM      1  C   LIG A   1      -6.683   3.790 124.739  0.00  0.00    +0.051 C 
ATOM      2  C   LIG A   1      -7.401   2.482 124.512  0.00  0.00    +0.035 A 
ATOM      3  C   LIG A   1      -7.019   1.365 125.273  0.00  0.00    +0.142 A 
ATOM      4  C   LIG A   1      -7.647   0.121 125.122  0.00  0.00    +0.102 A 
ATOM      5  C   LIG A   1      -7.181  -0.943 126.051  0.00  0.00    +0.174 C 
ATOM      6  C   LIG A   1      -5.801  -0.766 126.581  0.00  0.00    +0.129 C 
ATOM      7  C   LIG A   1      -5.774   0.622 127.184  0.00  0.00    +0.211 C 
ATOM      8  O   LIG A   1      -5.975   1.584 126.142  0.00  0.00    -0.483 OA
ATOM      9  O   LIG A   1      -7.886  -1.872 126.425  0.00  0.00    -0.292 OA
ATOM     10  C   LIG A   1      -8.667  -0.030 124.167  0.00  0.00    +0.152 A 
ATOM     11  C   LIG A   1      -9.092   1.075 123.384  0.00  0.00    +0.035 A 
ATOM     12  C   LIG A   1     -10.209   0.921 122.381  0.00  0.00    +0.051 C 
ATOM     13  C   LIG A   1      -8.451   2.326 123.584  0.00  0.00    +0.144 A 
ENDROOT
BRANCH   7  14
ATOM     14  C   LIG A   1      -6.692   0.887 128.373  0.00  0.00    -0.003 A 
ATOM     15  C   LIG A   1      -6.710   0.049 129.495  0.00  0.00    +0.011 A 
ATOM     16  C   LIG A   1      -7.518   0.342 130.594  0.00  0.00    +0.050 A 
ATOM     17  C   LIG A   1      -8.309   1.491 130.594  0.00  0.00    +0.173 A 
ATOM     18  C   LIG A   1      -8.339   2.330 129.472  0.00  0.00    +0.163 A 
ATOM     19  C   LIG A   1      -7.507   2.033 128.389  0.00  0.00    +0.056 A 
BRANCH  18  20
ATOM     20  O   LIG A   1      -9.164   3.428 129.504  0.00  0.00    -0.491 OA
ATOM     21  C   LIG A   1      -8.534   4.673 129.202  0.00  0.00    +0.277 C 
ENDBRANCH  18  20
BRANCH  17  22
ATOM     22  O   LIG A   1      -9.169   1.812 131.673  0.00  0.00    -0.422 OA
BRANCH  22  23
ATOM     23  C   LIG A   1      -8.726   2.375 132.872  0.00  0.00    +0.309 C 
ATOM     24  C   LIG A   1      -9.411   3.694 133.076  0.00  0.00    +0.136 C 
ATOM     25  O   LIG A   1      -7.885   1.923 133.636  0.00  0.00    -0.251 OA
ENDBRANCH  22  23
ENDBRANCH  17  22
ENDBRANCH   7  14
BRANCH  10  26
ATOM     26  O   LIG A   1      -9.388  -1.247 124.043  0.00  0.00    -0.425 OA
BRANCH  26  27
ATOM     27  C   LIG A   1      -8.917  -2.244 123.170  0.00  0.00    +0.309 C 
ATOM     28  C   LIG A   1      -9.575  -3.545 123.520  0.00  0.00    +0.136 C 
ATOM     29  O   LIG A   1      -8.063  -2.069 122.300  0.00  0.00    -0.251 OA
ENDBRANCH  26  27
ENDBRANCH  10  26
BRANCH  13  30
ATOM     30  O   LIG A   1      -8.725   3.358 122.639  0.00  0.00    -0.425 OA
BRANCH  30  31
ATOM     31  C   LIG A   1      -7.994   3.529 121.459  0.00  0.00    +0.309 C 
ATOM     32  C   LIG A   1      -8.951   3.858 120.347  0.00  0.00    +0.136 C 
ATOM     33  O   LIG A   1      -6.800   3.312 121.307  0.00  0.00    -0.251 OA
ENDBRANCH  30  31
ENDBRANCH  13  30
TORSDOF 8
ENDMDL
MODEL 3
REMARK VINA RESULT:      -7.7      4.083      7.344
REMARK  Name = NuBBE_2004
REMARK  14 active torsions:
REMARK  status: ('A' for Active; 'I' for Inactive)
REMARK    1  A    between atoms: C_1  and  C_2
REMARK    2  A    between atoms: C_7  and  C_9
REMARK    3  A    between atoms: C_12  and  O_13
REMARK    4  A    between atoms: O_13  and  C_14
REMARK    5  A    between atoms: C_14  and  C_15
REMARK    6  A    between atoms: C_17  and  O_18
REMARK    7  A    between atoms: O_18  and  C_19
REMARK    8  A    between atoms: C_23  and  O_24
REMARK    9  A    between atoms: O_24  and  C_25
REMARK   10  A    between atoms: C_25  and  C_26
REMARK   11  A    between atoms: C_28  and  C_29
REMARK   12  A    between atoms: C_30  and  O_31
REMARK   13  A    between atoms: O_31  and  C_32
REMARK   14  A    between atoms: C_32  and  C_33
REMARK                            x       y       z     vdW  Elec       q    Type
REMARK                         _______ _______ _______ _____ _____    ______ ____
ROOT
ATOM      1  C   LIG A   1      -9.068   0.073 124.938  0.00  0.00    +0.051 C 
ATOM      2  C   LIG A   1      -8.508  -0.658 126.134  0.00  0.00    +0.035 A 
ATOM      3  C   LIG A   1      -7.549  -0.011 126.931  0.00  0.00    +0.142 A 
ATOM      4  C   LIG A   1      -6.992  -0.626 128.060  0.00  0.00    +0.102 A 
ATOM      5  C   LIG A   1      -6.048   0.216 128.842  0.00  0.00    +0.174 C 
ATOM      6  C   LIG A   1      -5.384   1.307 128.075  0.00  0.00    +0.129 C 
ATOM      7  C   LIG A   1      -6.507   2.091 127.432  0.00  0.00    +0.211 C 
ATOM      8  O   LIG A   1      -7.187   1.244 126.498  0.00  0.00    -0.483 OA
ATOM      9  O   LIG A   1      -5.863   0.088 130.045  0.00  0.00    -0.292 OA
ATOM     10  C   LIG A   1      -7.376  -1.936 128.397  0.00  0.00    +0.152 A 
ATOM     11  C   LIG A   1      -8.349  -2.623 127.626  0.00  0.00    +0.035 A 
ATOM     12  C   LIG A   1      -8.784  -4.018 128.005  0.00  0.00    +0.051 C 
ATOM     13  C   LIG A   1      -8.911  -1.958 126.505  0.00  0.00    +0.144 A 
ENDROOT
BRANCH   7  14
ATOM     14  C   LIG A   1      -7.488   2.799 128.361  0.00  0.00    -0.003 A 
ATOM     15  C   LIG A   1      -8.618   2.151 128.877  0.00  0.00    +0.011 A 
ATOM     16  C   LIG A   1      -9.471   2.802 129.768  0.00  0.00    +0.050 A 
ATOM     17  C   LIG A   1      -9.197   4.109 130.171  0.00  0.00    +0.173 A 
ATOM     18  C   LIG A   1      -8.093   4.796 129.646  0.00  0.00    +0.163 A 
ATOM     19  C   LIG A   1      -7.237   4.121 128.772  0.00  0.00    +0.056 A 
BRANCH  18  20
ATOM     20  O   LIG A   1      -7.888   6.094 130.043  0.00  0.00    -0.491 OA
ATOM     21  C   LIG A   1      -6.846   6.280 131.002  0.00  0.00    +0.277 C 
ENDBRANCH  18  20
BRANCH  17  22
ATOM     22  O   LIG A   1     -10.051   4.821 131.049  0.00  0.00    -0.422 OA
BRANCH  22  23
ATOM     23  C   LIG A   1     -11.199   5.497 130.629  0.00  0.00    +0.309 C 
ATOM     24  C   LIG A   1     -11.591   6.493 131.679  0.00  0.00    +0.136 C 
ATOM     25  O   LIG A   1     -11.837   5.306 129.604  0.00  0.00    -0.251 OA
ENDBRANCH  22  23
ENDBRANCH  17  22
ENDBRANCH   7  14
BRANCH  10  26
ATOM     26  O   LIG A   1      -6.903  -2.562 129.581  0.00  0.00    -0.425 OA
BRANCH  26  27
ATOM     27  C   LIG A   1      -5.735  -3.343 129.530  0.00  0.00    +0.309 C 
ATOM     28  C   LIG A   1      -5.865  -4.473 130.508  0.00  0.00    +0.136 C 
ATOM     29  O   LIG A   1      -4.753  -3.094 128.829  0.00  0.00    -0.251 OA
ENDBRANCH  26  27
ENDBRANCH  10  26
BRANCH  13  30
ATOM     30  O   LIG A   1      -9.706  -2.738 125.614  0.00  0.00    -0.425 OA
BRANCH  30  31
ATOM     31  C   LIG A   1      -9.269  -3.137 124.348  0.00  0.00    +0.309 C 
ATOM     32  C   LIG A   1      -7.911  -3.769 124.487  0.00  0.00    +0.136 C 
ATOM     33  O   LIG A   1      -9.817  -2.896 123.281  0.00  0.00    -0.251 OA
ENDBRANCH  30  31
ENDBRANCH  13  30
TORSDOF 8
ENDMDL
MODEL 4
REMARK VINA RESULT:      -7.6      6.493      8.663
REMARK  Name = NuBBE_2004
REMARK  14 active torsions:
REMARK  status: ('A' for Active; 'I' for Inactive)
REMARK    1  A    between atoms: C_1  and  C_2
REMARK    2  A    between atoms: C_7  and  C_9
REMARK    3  A    between atoms: C_12  and  O_13
REMARK    4  A    between atoms: O_13  and  C_14
REMARK    5  A    between atoms: C_14  and  C_15
REMARK    6  A    between atoms: C_17  and  O_18
REMARK    7  A    between atoms: O_18  and  C_19
REMARK    8  A    between atoms: C_23  and  O_24
REMARK    9  A    between atoms: O_24  and  C_25
REMARK   10  A    between atoms: C_25  and  C_26
REMARK   11  A    between atoms: C_28  and  C_29
REMARK   12  A    between atoms: C_30  and  O_31
REMARK   13  A    between atoms: O_31  and  C_32
REMARK   14  A    between atoms: C_32  and  C_33
REMARK                            x       y       z     vdW  Elec       q    Type
REMARK                         _______ _______ _______ _____ _____    ______ ____
ROOT
ATOM      1  C   LIG A   1      -4.979   6.535 132.050  0.00  0.00    +0.051 C 
ATOM      2  C   LIG A   1      -5.394   5.087 132.144  0.00  0.00    +0.035 A 
ATOM      3  C   LIG A   1      -6.637   4.780 132.723  0.00  0.00    +0.142 A 
ATOM      4  C   LIG A   1      -7.092   3.459 132.835  0.00  0.00    +0.102 A 
ATOM      5  C   LIG A   1      -8.458   3.303 133.402  0.00  0.00    +0.174 C 
ATOM      6  C   LIG A   1      -8.916   4.418 134.276  0.00  0.00    +0.129 C 
ATOM      7  C   LIG A   1      -8.739   5.676 133.453  0.00  0.00    +0.211 C 
ATOM      8  O   LIG A   1      -7.344   5.864 133.189  0.00  0.00    -0.483 OA
ATOM      9  O   LIG A   1      -9.202   2.369 133.130  0.00  0.00    -0.292 OA
ATOM     10  C   LIG A   1      -6.278   2.405 132.386  0.00  0.00    +0.152 A 
ATOM     11  C   LIG A   1      -5.019   2.670 131.786  0.00  0.00    +0.035 A 
ATOM     12  C   LIG A   1      -4.159   1.540 131.275  0.00  0.00    +0.051 C 
ATOM     13  C   LIG A   1      -4.605   4.022 131.664  0.00  0.00    +0.144 A 
ENDROOT
BRANCH   7  14
ATOM     14  C   LIG A   1      -9.570   5.802 132.180  0.00  0.00    -0.003 A 
ATOM     15  C   LIG A   1     -10.925   6.158 132.213  0.00  0.00    +0.011 A 
ATOM     16  C   LIG A   1     -11.651   6.321 131.033  0.00  0.00    +0.050 A 
ATOM     17  C   LIG A   1     -11.026   6.149 129.798  0.00  0.00    +0.173 A 
ATOM     18  C   LIG A   1      -9.681   5.759 129.733  0.00  0.00    +0.163 A 
ATOM     19  C   LIG A   1      -8.964   5.622 130.924  0.00  0.00    +0.056 A 
BRANCH  18  20
ATOM     20  O   LIG A   1      -9.122   5.563 128.494  0.00  0.00    -0.491 OA
ATOM     21  C   LIG A   1      -8.188   4.486 128.411  0.00  0.00    +0.277 C 
ENDBRANCH  18  20
BRANCH  17  22
ATOM     22  O   LIG A   1     -11.730   6.272 128.575  0.00  0.00    -0.422 OA
BRANCH  22  23
ATOM     23  C   LIG A   1     -12.024   7.498 127.975  0.00  0.00    +0.309 C 
ATOM     24  C   LIG A   1     -13.502   7.742 128.060  0.00  0.00    +0.136 C 
ATOM     25  O   LIG A   1     -11.244   8.257 127.418  0.00  0.00    -0.251 OA
ENDBRANCH  22  23
ENDBRANCH  17  22
ENDBRANCH   7  14
BRANCH  10  26
ATOM     26  O   LIG A   1      -6.736   1.060 132.401  0.00  0.00    -0.425 OA
BRANCH  26  27
ATOM     27  C   LIG A   1      -6.453   0.246 133.512  0.00  0.00    +0.309 C 
ATOM     28  C   LIG A   1      -6.537  -1.192 133.092  0.00  0.00    +0.136 C 
ATOM     29  O   LIG A   1      -6.228   0.662 134.648  0.00  0.00    -0.251 OA
ENDBRANCH  26  27
ENDBRANCH  10  26
BRANCH  13  30
ATOM     30  O   LIG A   1      -3.253   4.257 131.276  0.00  0.00    -0.425 OA
BRANCH  30  31
ATOM     31  C   LIG A   1      -2.209   4.417 132.192  0.00  0.00    +0.309 C 
ATOM     32  C   LIG A   1      -1.459   5.674 131.849  0.00  0.00    +0.136 C 
ATOM     33  O   LIG A   1      -1.863   3.610 133.044  0.00  0.00    -0.251 OA
ENDBRANCH  30  31
ENDBRANCH  13  30
TORSDOF 8
ENDMDL
MODEL 5
REMARK VINA RESULT:      -7.6      3.789      7.057
REMARK  Name = NuBBE_2004
REMARK  14 active torsions:
REMARK  status: ('A' for Active; 'I' for Inactive)
REMARK    1  A    between atoms: C_1  and  C_2
REMARK    2  A    between atoms: C_7  and  C_9
REMARK    3  A    between atoms: C_12  and  O_13
REMARK    4  A    between atoms: O_13  and  C_14
REMARK    5  A    between atoms: C_14  and  C_15
REMARK    6  A    between atoms: C_17  and  O_18
REMARK    7  A    between atoms: O_18  and  C_19
REMARK    8  A    between atoms: C_23  and  O_24
REMARK    9  A    between atoms: O_24  and  C_25
REMARK   10  A    between atoms: C_25  and  C_26
REMARK   11  A    between atoms: C_28  and  C_29
REMARK   12  A    between atoms: C_30  and  O_31
REMARK   13  A    between atoms: O_31  and  C_32
REMARK   14  A    between atoms: C_32  and  C_33
REMARK                            x       y       z     vdW  Elec       q    Type
REMARK                         _______ _______ _______ _____ _____    ______ ____
ROOT
ATOM      1  C   LIG A   1      -6.138  -0.244 125.484  0.00  0.00    +0.051 C 
ATOM      2  C   LIG A   1      -6.521  -0.842 126.815  0.00  0.00    +0.035 A 
ATOM      3  C   LIG A   1      -5.972  -0.289 127.984  0.00  0.00    +0.142 A 
ATOM      4  C   LIG A   1      -6.288  -0.788 129.255  0.00  0.00    +0.102 A 
ATOM      5  C   LIG A   1      -5.685  -0.049 130.396  0.00  0.00    +0.174 C 
ATOM      6  C   LIG A   1      -4.435   0.697 130.082  0.00  0.00    +0.129 C 
ATOM      7  C   LIG A   1      -4.776   1.578 128.900  0.00  0.00    +0.211 C 
ATOM      8  O   LIG A   1      -5.088   0.745 127.777  0.00  0.00    -0.483 OA
ATOM      9  O   LIG A   1      -6.196   0.016 131.507  0.00  0.00    -0.292 OA
ATOM     10  C   LIG A   1      -7.156  -1.888 129.372  0.00  0.00    +0.152 A 
ATOM     11  C   LIG A   1      -7.741  -2.472 128.219  0.00  0.00    +0.035 A 
ATOM     12  C   LIG A   1      -8.697  -3.633 128.346  0.00  0.00    +0.051 C 
ATOM     13  C   LIG A   1      -7.418  -1.922 126.950  0.00  0.00    +0.144 A 
ENDROOT
BRANCH   7  14
ATOM     14  C   LIG A   1      -5.836   2.653 129.110  0.00  0.00    -0.003 A 
ATOM     15  C   LIG A   1      -6.067   3.230 130.366  0.00  0.00    +0.011 A 
ATOM     16  C   LIG A   1      -7.004   4.251 130.524  0.00  0.00    +0.050 A 
ATOM     17  C   LIG A   1      -7.715   4.724 129.421  0.00  0.00    +0.173 A 
ATOM     18  C   LIG A   1      -7.532   4.143 128.158  0.00  0.00    +0.163 A 
ATOM     19  C   LIG A   1      -6.573   3.137 128.014  0.00  0.00    +0.056 A 
BRANCH  18  20
ATOM     20  O   LIG A   1      -8.285   4.616 127.110  0.00  0.00    -0.491 OA
ATOM     21  C   LIG A   1      -7.750   4.359 125.812  0.00  0.00    +0.277 C 
ENDBRANCH  18  20
BRANCH  17  22
ATOM     22  O   LIG A   1      -8.700   5.736 129.537  0.00  0.00    -0.422 OA
BRANCH  22  23
ATOM     23  C   LIG A   1      -9.952   5.531 130.121  0.00  0.00    +0.309 C 
ATOM     24  C   LIG A   1     -10.141   6.521 131.232  0.00  0.00    +0.136 C 
ATOM     25  O   LIG A   1     -10.770   4.668 129.836  0.00  0.00    -0.251 OA
ENDBRANCH  22  23
ENDBRANCH  17  22
ENDBRANCH   7  14
BRANCH  10  26
ATOM     26  O   LIG A   1      -7.571  -2.368 130.643  0.00  0.00    -0.425 OA
BRANCH  26  27
ATOM     27  C   LIG A   1      -6.799  -3.343 131.300  0.00  0.00    +0.309 C 
ATOM     28  C   LIG A   1      -7.010  -3.212 132.779  0.00  0.00    +0.136 C 
ATOM     29  O   LIG A   1      -6.039  -4.133 130.738  0.00  0.00    -0.251 OA
ENDBRANCH  26  27
ENDBRANCH  10  26
BRANCH  13  30
ATOM     30  O   LIG A   1      -7.826  -2.656 125.798  0.00  0.00    -0.425 OA
BRANCH  30  31
ATOM     31  C   LIG A   1      -9.011  -2.395 125.104  0.00  0.00    +0.309 C 
ATOM     32  C   LIG A   1      -9.079  -3.310 123.912  0.00  0.00    +0.136 C 
ATOM     33  O   LIG A   1      -9.799  -1.487 125.329  0.00  0.00    -0.251 OA
ENDBRANCH  30  31
ENDBRANCH  13  30
TORSDOF 8
ENDMDL
MODEL 6
REMARK VINA RESULT:      -7.5      6.413      8.546
REMARK  Name = NuBBE_2004
REMARK  14 active torsions:
REMARK  status: ('A' for Active; 'I' for Inactive)
REMARK    1  A    between atoms: C_1  and  C_2
REMARK    2  A    between atoms: C_7  and  C_9
REMARK    3  A    between atoms: C_12  and  O_13
REMARK    4  A    between atoms: O_13  and  C_14
REMARK    5  A    between atoms: C_14  and  C_15
REMARK    6  A    between atoms: C_17  and  O_18
REMARK    7  A    between atoms: O_18  and  C_19
REMARK    8  A    between atoms: C_23  and  O_24
REMARK    9  A    between atoms: O_24  and  C_25
REMARK   10  A    between atoms: C_25  and  C_26
REMARK   11  A    between atoms: C_28  and  C_29
REMARK   12  A    between atoms: C_30  and  O_31
REMARK   13  A    between atoms: O_31  and  C_32
REMARK   14  A    between atoms: C_32  and  C_33
REMARK                            x       y       z     vdW  Elec       q    Type
REMARK                         _______ _______ _______ _____ _____    ______ ____
ROOT
ATOM      1  C   LIG A   1      -4.531   6.543 130.166  0.00  0.00    +0.051 C 
ATOM      2  C   LIG A   1      -4.958   5.132 130.490  0.00  0.00    +0.035 A 
ATOM      3  C   LIG A   1      -6.007   4.939 131.404  0.00  0.00    +0.142 A 
ATOM      4  C   LIG A   1      -6.461   3.658 131.746  0.00  0.00    +0.102 A 
ATOM      5  C   LIG A   1      -7.627   3.623 132.669  0.00  0.00    +0.174 C 
ATOM      6  C   LIG A   1      -7.789   4.822 133.536  0.00  0.00    +0.129 C 
ATOM      7  C   LIG A   1      -7.797   6.005 132.593  0.00  0.00    +0.211 C 
ATOM      8  O   LIG A   1      -6.521   6.094 131.949  0.00  0.00    -0.483 OA
ATOM      9  O   LIG A   1      -8.449   2.716 132.687  0.00  0.00    -0.292 OA
ATOM     10  C   LIG A   1      -5.838   2.529 131.186  0.00  0.00    +0.152 A 
ATOM     11  C   LIG A   1      -4.782   2.678 130.250  0.00  0.00    +0.035 A 
ATOM     12  C   LIG A   1      -4.135   1.466 129.624  0.00  0.00    +0.051 C 
ATOM     13  C   LIG A   1      -4.367   3.992 129.908  0.00  0.00    +0.144 A 
ENDROOT
BRANCH   7  14
ATOM     14  C   LIG A   1      -8.938   6.088 131.584  0.00  0.00    -0.003 A 
ATOM     15  C   LIG A   1      -8.722   5.938 130.208  0.00  0.00    +0.011 A 
ATOM     16  C   LIG A   1      -9.788   5.963 129.309  0.00  0.00    +0.050 A 
ATOM     17  C   LIG A   1     -11.093   6.121 129.776  0.00  0.00    +0.173 A 
ATOM     18  C   LIG A   1     -11.339   6.308 131.143  0.00  0.00    +0.163 A 
ATOM     19  C   LIG A   1     -10.261   6.258 132.031  0.00  0.00    +0.056 A 
BRANCH  18  20
ATOM     20  O   LIG A   1     -12.637   6.500 131.549  0.00  0.00    -0.491 OA
ATOM     21  C   LIG A   1     -13.016   7.861 131.755  0.00  0.00    +0.277 C 
ENDBRANCH  18  20
BRANCH  17  22
ATOM     22  O   LIG A   1     -12.204   6.185 128.898  0.00  0.00    -0.422 OA
BRANCH  22  23
ATOM     23  C   LIG A   1     -12.265   7.034 127.791  0.00  0.00    +0.309 C 
ATOM     24  C   LIG A   1     -13.004   8.282 128.174  0.00  0.00    +0.136 C 
ATOM     25  O   LIG A   1     -11.842   6.815 126.665  0.00  0.00    -0.251 OA
ENDBRANCH  22  23
ENDBRANCH  17  22
ENDBRANCH   7  14
BRANCH  10  26
ATOM     26  O   LIG A   1      -6.324   1.218 131.437  0.00  0.00    -0.425 OA
BRANCH  26  27
ATOM     27  C   LIG A   1      -5.765   0.463 132.483  0.00  0.00    +0.309 C 
ATOM     28  C   LIG A   1      -5.867  -0.993 132.137  0.00  0.00    +0.136 C 
ATOM     29  O   LIG A   1      -5.318   0.935 133.529  0.00  0.00    -0.251 OA
ENDBRANCH  26  27
ENDBRANCH  10  26
BRANCH  13  30
ATOM     30  O   LIG A   1      -3.164   4.120 129.152  0.00  0.00    -0.425 OA
BRANCH  30  31
ATOM     31  C   LIG A   1      -3.145   4.270 127.763  0.00  0.00    +0.309 C 
ATOM     32  C   LIG A   1      -2.090   3.359 127.198  0.00  0.00    +0.136 C 
ATOM     33  O   LIG A   1      -3.770   5.097 127.113  0.00  0.00    -0.251 OA
ENDBRANCH  30  31
ENDBRANCH  13  30
TORSDOF 8
ENDMDL
MODEL 7
REMARK VINA RESULT:      -7.4      3.292      6.313
REMARK  Name = NuBBE_2004
REMARK  14 active torsions:
REMARK  status: ('A' for Active; 'I' for Inactive)
REMARK    1  A    between atoms: C_1  and  C_2
REMARK    2  A    between atoms: C_7  and  C_9
REMARK    3  A    between atoms: C_12  and  O_13
REMARK    4  A    between atoms: O_13  and  C_14
REMARK    5  A    between atoms: C_14  and  C_15
REMARK    6  A    between atoms: C_17  and  O_18
REMARK    7  A    between atoms: O_18  and  C_19
REMARK    8  A    between atoms: C_23  and  O_24
REMARK    9  A    between atoms: O_24  and  C_25
REMARK   10  A    between atoms: C_25  and  C_26
REMARK   11  A    between atoms: C_28  and  C_29
REMARK   12  A    between atoms: C_30  and  O_31
REMARK   13  A    between atoms: O_31  and  C_32
REMARK   14  A    between atoms: C_32  and  C_33
REMARK                            x       y       z     vdW  Elec       q    Type
REMARK                         _______ _______ _______ _____ _____    ______ ____
ROOT
ATOM      1  C   LIG A   1      -4.788   0.335 129.806  0.00  0.00    +0.051 C 
ATOM      2  C   LIG A   1      -6.013   1.212 129.721  0.00  0.00    +0.035 A 
ATOM      3  C   LIG A   1      -6.152   2.069 128.616  0.00  0.00    +0.142 A 
ATOM      4  C   LIG A   1      -7.267   2.905 128.467  0.00  0.00    +0.102 A 
ATOM      5  C   LIG A   1      -7.304   3.697 127.209  0.00  0.00    +0.174 C 
ATOM      6  C   LIG A   1      -5.978   3.958 126.583  0.00  0.00    +0.129 C 
ATOM      7  C   LIG A   1      -5.330   2.600 126.426  0.00  0.00    +0.211 C 
ATOM      8  O   LIG A   1      -5.103   2.042 127.726  0.00  0.00    -0.483 OA
ATOM      9  O   LIG A   1      -8.340   4.062 126.668  0.00  0.00    -0.292 OA
ATOM     10  C   LIG A   1      -8.265   2.912 129.457  0.00  0.00    +0.152 A 
ATOM     11  C   LIG A   1      -8.171   2.055 130.584  0.00  0.00    +0.035 A 
ATOM     12  C   LIG A   1      -9.258   2.040 131.631  0.00  0.00    +0.051 C 
ATOM     13  C   LIG A   1      -7.040   1.203 130.687  0.00  0.00    +0.144 A 
ENDROOT
BRANCH   7  14
ATOM     14  C   LIG A   1      -6.016   1.599 125.501  0.00  0.00    -0.003 A 
ATOM     15  C   LIG A   1      -6.664   2.001 124.326  0.00  0.00    +0.011 A 
ATOM     16  C   LIG A   1      -7.236   1.062 123.467  0.00  0.00    +0.050 A 
ATOM     17  C   LIG A   1      -7.154  -0.298 123.764  0.00  0.00    +0.173 A 
ATOM     18  C   LIG A   1      -6.543  -0.730 124.950  0.00  0.00    +0.163 A 
ATOM     19  C   LIG A   1      -5.956   0.223 125.786  0.00  0.00    +0.056 A 
BRANCH  18  20
ATOM     20  O   LIG A   1      -6.523  -2.077 125.217  0.00  0.00    -0.491 OA
ATOM     21  C   LIG A   1      -7.261  -2.480 126.371  0.00  0.00    +0.277 C 
ENDBRANCH  18  20
BRANCH  17  22
ATOM     22  O   LIG A   1      -7.748  -1.286 122.940  0.00  0.00    -0.422 OA
BRANCH  22  23
ATOM     23  C   LIG A   1      -9.114  -1.576 122.945  0.00  0.00    +0.309 C 
ATOM     24  C   LIG A   1      -9.307  -3.012 123.334  0.00  0.00    +0.136 C 
ATOM     25  O   LIG A   1     -10.032  -0.827 122.644  0.00  0.00    -0.251 OA
ENDBRANCH  22  23
ENDBRANCH  17  22
ENDBRANCH   7  14
BRANCH  10  26
ATOM     26  O   LIG A   1      -9.452   3.677 129.302  0.00  0.00    -0.425 OA
BRANCH  26  27
ATOM     27  C   LIG A   1      -9.502   4.987 129.812  0.00  0.00    +0.309 C 
ATOM     28  C   LIG A   1     -10.849   5.214 130.432  0.00  0.00    +0.136 C 
ATOM     29  O   LIG A   1      -8.596   5.815 129.711  0.00  0.00    -0.251 OA
ENDBRANCH  26  27
ENDBRANCH  10  26
BRANCH  13  30
ATOM     30  O   LIG A   1      -6.846   0.524 131.926  0.00  0.00    -0.425 OA
BRANCH  30  31
ATOM     31  C   LIG A   1      -7.421  -0.716 132.218  0.00  0.00    +0.309 C 
ATOM     32  C   LIG A   1      -7.792  -1.388 130.924  0.00  0.00    +0.136 C 
ATOM     33  O   LIG A   1      -7.711  -1.138 133.329  0.00  0.00    -0.251 OA
ENDBRANCH  30  31
ENDBRANCH  13  30
TORSDOF 8
ENDMDL
MODEL 8
REMARK VINA RESULT:      -7.3      3.261      7.032
REMARK  Name = NuBBE_2004
REMARK  14 active torsions:
REMARK  status: ('A' for Active; 'I' for Inactive)
REMARK    1  A    between atoms: C_1  and  C_2
REMARK    2  A    between atoms: C_7  and  C_9
REMARK    3  A    between atoms: C_12  and  O_13
REMARK    4  A    between atoms: O_13  and  C_14
REMARK    5  A    between atoms: C_14  and  C_15
REMARK    6  A    between atoms: C_17  and  O_18
REMARK    7  A    between atoms: O_18  and  C_19
REMARK    8  A    between atoms: C_23  and  O_24
REMARK    9  A    between atoms: O_24  and  C_25
REMARK   10  A    between atoms: C_25  and  C_26
REMARK   11  A    between atoms: C_28  and  C_29
REMARK   12  A    between atoms: C_30  and  O_31
REMARK   13  A    between atoms: O_31  and  C_32
REMARK   14  A    between atoms: C_32  and  C_33
REMARK                            x       y       z     vdW  Elec       q    Type
REMARK                         _______ _______ _______ _____ _____    ______ ____
ROOT
ATOM      1  C   LIG A   1      -5.841   2.659 130.602  0.00  0.00    +0.051 C 
ATOM      2  C   LIG A   1      -6.963   3.521 130.077  0.00  0.00    +0.035 A 
ATOM      3  C   LIG A   1      -7.053   3.739 128.692  0.00  0.00    +0.142 A 
ATOM      4  C   LIG A   1      -8.073   4.521 128.133  0.00  0.00    +0.102 A 
ATOM      5  C   LIG A   1      -8.075   4.595 126.648  0.00  0.00    +0.174 C 
ATOM      6  C   LIG A   1      -6.757   4.356 125.997  0.00  0.00    +0.129 C 
ATOM      7  C   LIG A   1      -6.273   3.029 126.537  0.00  0.00    +0.211 C 
ATOM      8  O   LIG A   1      -6.054   3.155 127.947  0.00  0.00    -0.483 OA
ATOM      9  O   LIG A   1      -9.087   4.769 125.980  0.00  0.00    -0.292 OA
ATOM     10  C   LIG A   1      -9.020   5.130 128.975  0.00  0.00    +0.152 A 
ATOM     11  C   LIG A   1      -8.973   4.928 130.379  0.00  0.00    +0.035 A 
ATOM     12  C   LIG A   1     -10.008   5.557 131.279  0.00  0.00    +0.051 C 
ATOM     13  C   LIG A   1      -7.941   4.108 130.906  0.00  0.00    +0.144 A 
ENDROOT
BRANCH   7  14
ATOM     14  C   LIG A   1      -7.106   1.794 126.211  0.00  0.00    -0.003 A 
ATOM     15  C   LIG A   1      -7.409   0.828 127.179  0.00  0.00    +0.011 A 
ATOM     16  C   LIG A   1      -8.219  -0.266 126.870  0.00  0.00    +0.050 A 
ATOM     17  C   LIG A   1      -8.754  -0.400 125.590  0.00  0.00    +0.173 A 
ATOM     18  C   LIG A   1      -8.442   0.531 124.589  0.00  0.00    +0.163 A 
ATOM     19  C   LIG A   1      -7.648   1.632 124.922  0.00  0.00    +0.056 A 
BRANCH  18  20
ATOM     20  O   LIG A   1      -8.961   0.334 123.333  0.00  0.00    -0.491 OA
ATOM     21  C   LIG A   1     -10.050   1.190 122.983  0.00  0.00    +0.277 C 
ENDBRANCH  18  20
BRANCH  17  22
ATOM     22  O   LIG A   1      -9.555  -1.509 125.221  0.00  0.00    -0.422 OA
BRANCH  22  23
ATOM     23  C   LIG A   1      -9.042  -2.786 124.983  0.00  0.00    +0.309 C 
ATOM     24  C   LIG A   1      -9.288  -3.152 123.549  0.00  0.00    +0.136 C 
ATOM     25  O   LIG A   1      -8.515  -3.535 125.792  0.00  0.00    -0.251 OA
ENDBRANCH  22  23
ENDBRANCH  17  22
ENDBRANCH   7  14
BRANCH  10  26
ATOM     26  O   LIG A   1     -10.119   5.856 128.445  0.00  0.00    -0.425 OA
BRANCH  26  27
ATOM     27  C   LIG A   1     -10.046   7.258 128.363  0.00  0.00    +0.309 C 
ATOM     28  C   LIG A   1     -10.770   7.710 127.130  0.00  0.00    +0.136 C 
ATOM     29  O   LIG A   1      -9.438   7.977 129.157  0.00  0.00    -0.251 OA
ENDBRANCH  26  27
ENDBRANCH  10  26
BRANCH  13  30
ATOM     30  O   LIG A   1      -7.770   4.103 132.322  0.00  0.00    -0.425 OA
BRANCH  30  31
ATOM     31  C   LIG A   1      -8.473   3.248 133.175  0.00  0.00    +0.309 C 
ATOM     32  C   LIG A   1      -8.898   4.027 134.389  0.00  0.00    +0.136 C 
ATOM     33  O   LIG A   1      -8.607   2.039 133.042  0.00  0.00    -0.251 OA
ENDBRANCH  30  31
ENDBRANCH  13  30
TORSDOF 8
ENDMDL
MODEL 9
REMARK VINA RESULT:      -7.3      3.507      7.419
REMARK  Name = NuBBE_2004
REMARK  14 active torsions:
REMARK  status: ('A' for Active; 'I' for Inactive)
REMARK    1  A    between atoms: C_1  and  C_2
REMARK    2  A    between atoms: C_7  and  C_9
REMARK    3  A    between atoms: C_12  and  O_13
REMARK    4  A    between atoms: O_13  and  C_14
REMARK    5  A    between atoms: C_14  and  C_15
REMARK    6  A    between atoms: C_17  and  O_18
REMARK    7  A    between atoms: O_18  and  C_19
REMARK    8  A    between atoms: C_23  and  O_24
REMARK    9  A    between atoms: O_24  and  C_25
REMARK   10  A    between atoms: C_25  and  C_26
REMARK   11  A    between atoms: C_28  and  C_29
REMARK   12  A    between atoms: C_30  and  O_31
REMARK   13  A    between atoms: O_31  and  C_32
REMARK   14  A    between atoms: C_32  and  C_33
REMARK                            x       y       z     vdW  Elec       q    Type
REMARK                         _______ _______ _______ _____ _____    ______ ____
ROOT
ATOM      1  C   LIG A   1     -10.816   3.828 130.457  0.00  0.00    +0.051 C 
ATOM      2  C   LIG A   1      -9.344   4.135 130.588  0.00  0.00    +0.035 A 
ATOM      3  C   LIG A   1      -8.431   3.068 130.590  0.00  0.00    +0.142 A 
ATOM      4  C   LIG A   1      -7.050   3.279 130.700  0.00  0.00    +0.102 A 
ATOM      5  C   LIG A   1      -6.210   2.055 130.612  0.00  0.00    +0.174 C 
ATOM      6  C   LIG A   1      -6.892   0.787 130.995  0.00  0.00    +0.129 C 
ATOM      7  C   LIG A   1      -8.143   0.728 130.146  0.00  0.00    +0.211 C 
ATOM      8  O   LIG A   1      -9.000   1.818 130.508  0.00  0.00    -0.483 OA
ATOM      9  O   LIG A   1      -5.060   2.051 130.192  0.00  0.00    -0.292 OA
ATOM     10  C   LIG A   1      -6.558   4.589 130.841  0.00  0.00    +0.152 A 
ATOM     11  C   LIG A   1      -7.443   5.697 130.833  0.00  0.00    +0.035 A 
ATOM     12  C   LIG A   1      -6.912   7.105 130.953  0.00  0.00    +0.051 C 
ATOM     13  C   LIG A   1      -8.834   5.445 130.693  0.00  0.00    +0.144 A 
ENDROOT
BRANCH   7  14
ATOM     14  C   LIG A   1      -7.961   0.640 128.634  0.00  0.00    -0.003 A 
ATOM     15  C   LIG A   1      -7.219  -0.388 128.037  0.00  0.00    +0.011 A 
ATOM     16  C   LIG A   1      -7.112  -0.480 126.649  0.00  0.00    +0.050 A 
ATOM     17  C   LIG A   1      -7.761   0.448 125.835  0.00  0.00    +0.173 A 
ATOM     18  C   LIG A   1      -8.482   1.508 126.403  0.00  0.00    +0.163 A 
ATOM     19  C   LIG A   1      -8.597   1.571 127.794  0.00  0.00    +0.056 A 
BRANCH  18  20
ATOM     20  O   LIG A   1      -9.071   2.418 125.560  0.00  0.00    -0.491 OA
ATOM     21  C   LIG A   1      -8.297   3.588 125.291  0.00  0.00    +0.277 C 
ENDBRANCH  18  20
BRANCH  17  22
ATOM     22  O   LIG A   1      -7.655   0.414 124.422  0.00  0.00    -0.422 OA
BRANCH  22  23
ATOM     23  C   LIG A   1      -8.321  -0.515 123.620  0.00  0.00    +0.309 C 
ATOM     24  C   LIG A   1      -7.310  -1.419 122.978  0.00  0.00    +0.136 C 
ATOM     25  O   LIG A   1      -9.523  -0.587 123.411  0.00  0.00    -0.251 OA
ENDBRANCH  22  23
ENDBRANCH  17  22
ENDBRANCH   7  14
BRANCH  10  26
ATOM     26  O   LIG A   1      -5.162   4.853 130.867  0.00  0.00    -0.425 OA
BRANCH  26  27
ATOM     27  C   LIG A   1      -4.487   5.122 129.663  0.00  0.00    +0.309 C 
ATOM     28  C   LIG A   1      -3.010   5.118 129.926  0.00  0.00    +0.136 C 
ATOM     29  O   LIG A   1      -5.037   5.368 128.589  0.00  0.00    -0.251 OA
ENDBRANCH  26  27
ENDBRANCH  10  26
BRANCH  13  30
ATOM     30  O   LIG A   1      -9.720   6.539 130.918  0.00  0.00    -0.425 OA
BRANCH  30  31
ATOM     31  C   LIG A   1     -10.284   7.294 129.885  0.00  0.00    +0.309 C 
ATOM     32  C   LIG A   1     -11.742   7.505 130.187  0.00  0.00    +0.136 C 
ATOM     33  O   LIG A   1      -9.737   7.614 128.839  0.00  0.00    -0.251 OA
ENDBRANCH  30  31
ENDBRANCH  13  30
TORSDOF 8
ENDMDL
