MODEL 1
REMARK VINA RESULT:      -7.1      0.000      0.000
REMARK  Name = NuBBE_334
REMARK  12 active torsions:
REMARK  status: ('A' for Active; 'I' for Inactive)
REMARK    1  A    between atoms: C_2  and  C_3
REMARK    2  A    between atoms: C_2  and  O_36
REMARK    3  A    between atoms: C_6  and  O_19
REMARK    4  A    between atoms: C_11  and  O_16
REMARK    5  A    between atoms: C_13  and  C_15
REMARK    6  A    between atoms: O_19  and  C_20
REMARK    7  A    between atoms: C_23  and  C_34
REMARK    8  A    between atoms: C_25  and  O_33
REMARK    9  A    between atoms: C_27  and  O_32
REMARK   10  A    between atoms: C_29  and  O_31
REMARK   11  A    between atoms: C_34  and  O_35
REMARK   12  A    between atoms: O_36  and  C_37
REMARK                            x       y       z     vdW  Elec       q    Type
REMARK                         _______ _______ _______ _____ _____    ______ ____
ROOT
ATOM      1  C   LIG A   1      -6.583   4.429 132.010  0.00  0.00    +0.074 C 
ATOM      2  C   LIG A   1      -7.038   4.343 130.751  0.00  0.00    +0.201 C 
ATOM      3  O   LIG A   1      -7.261   5.408 129.906  0.00  0.00    -0.470 OA
ATOM      4  C   LIG A   1      -7.288   6.693 130.546  0.00  0.00    +0.313 C 
ATOM      5  C   LIG A   1      -6.133   6.855 131.546  0.00  0.00    +0.071 C 
ATOM      6  C   LIG A   1      -6.187   5.751 132.620  0.00  0.00    +0.041 C 
ATOM      7  C   LIG A   1      -4.774   5.799 133.235  0.00  0.00    +0.040 C 
ATOM      8  C   LIG A   1      -3.844   6.419 132.184  0.00  0.00    +0.118 C 
ATOM      9  C   LIG A   1      -4.717   6.697 130.951  0.00  0.00    +0.024 C 
ATOM     10  C   LIG A   1      -4.275   7.887 130.112  0.00  0.00    +0.010 C 
ENDROOT
BRANCH   1  12
ATOM     11  O   LIG A   1      -5.877   2.189 132.501  0.00  0.00    -0.245 OA
ATOM     12  C   LIG A   1      -6.523   3.169 132.803  0.00  0.00    +0.338 C 
BRANCH  12  13
ATOM     13  O   LIG A   1      -7.309   3.304 133.908  0.00  0.00    -0.465 OA
ATOM     14  C   LIG A   1      -8.709   3.192 133.658  0.00  0.00    +0.280 C 
ENDBRANCH  12  13
ENDBRANCH   1  12
BRANCH   8  15
ATOM     15  O   LIG A   1      -3.252   7.602 132.706  0.00  0.00    -0.392 OA
ATOM     16  H   LIG A   1      -2.347   7.398 132.995  0.00  0.00    +0.210 HD
ENDBRANCH   8  15
BRANCH   4  17
ATOM     17  O   LIG A   1      -8.516   6.922 131.250  0.00  0.00    -0.310 OA
BRANCH  17  18
ATOM     18  C   LIG A   1      -9.679   6.447 130.554  0.00  0.00    +0.286 C 
ATOM     19  O   LIG A   1      -9.789   7.158 129.313  0.00  0.00    -0.340 OA
ATOM     20  C   LIG A   1     -11.005   6.871 128.606  0.00  0.00    +0.178 C 
ATOM     21  C   LIG A   1     -12.176   7.428 129.421  0.00  0.00    +0.177 C 
ATOM     22  C   LIG A   1     -12.240   6.651 130.733  0.00  0.00    +0.179 C 
ATOM     23  C   LIG A   1     -10.904   6.697 131.480  0.00  0.00    +0.201 C 
BRANCH  23  24
ATOM     24  O   LIG A   1     -10.952   5.730 132.547  0.00  0.00    -0.384 OA
ATOM     25  H   LIG A   1     -11.287   4.909 132.136  0.00  0.00    +0.210 HD
ENDBRANCH  23  24
BRANCH  22  26
ATOM     26  O   LIG A   1     -13.271   7.209 131.569  0.00  0.00    -0.386 OA
ATOM     27  H   LIG A   1     -12.994   8.132 131.738  0.00  0.00    +0.210 HD
ENDBRANCH  22  26
BRANCH  21  28
ATOM     28  O   LIG A   1     -13.435   7.284 128.759  0.00  0.00    -0.387 OA
ATOM     29  H   LIG A   1     -13.890   6.532 129.187  0.00  0.00    +0.210 HD
ENDBRANCH  21  28
BRANCH  20  30
ATOM     30  C   LIG A   1     -10.908   7.510 127.217  0.00  0.00    +0.190 C 
BRANCH  30  31
ATOM     31  O   LIG A   1     -11.634   6.741 126.259  0.00  0.00    -0.392 OA
ATOM     32  H   LIG A   1     -12.149   6.093 126.775  0.00  0.00    +0.209 HD
ENDBRANCH  30  31
ENDBRANCH  20  30
ENDBRANCH  17  18
ENDBRANCH   4  17
TORSDOF 10
ENDMDL
MODEL 2
REMARK VINA RESULT:      -7.0      7.300      9.280
REMARK  Name = NuBBE_334
REMARK  12 active torsions:
REMARK  status: ('A' for Active; 'I' for Inactive)
REMARK    1  A    between atoms: C_2  and  C_3
REMARK    2  A    between atoms: C_2  and  O_36
REMARK    3  A    between atoms: C_6  and  O_19
REMARK    4  A    between atoms: C_11  and  O_16
REMARK    5  A    between atoms: C_13  and  C_15
REMARK    6  A    between atoms: O_19  and  C_20
REMARK    7  A    between atoms: C_23  and  C_34
REMARK    8  A    between atoms: C_25  and  O_33
REMARK    9  A    between atoms: C_27  and  O_32
REMARK   10  A    between atoms: C_29  and  O_31
REMARK   11  A    between atoms: C_34  and  O_35
REMARK   12  A    between atoms: O_36  and  C_37
REMARK                            x       y       z     vdW  Elec       q    Type
REMARK                         _______ _______ _______ _____ _____    ______ ____
ROOT
ATOM      1  C   LIG A   1      -8.118  -2.295 126.539  0.00  0.00    +0.074 C 
ATOM      2  C   LIG A   1      -9.247  -1.949 125.904  0.00  0.00    +0.201 C 
ATOM      3  O   LIG A   1      -9.333  -1.073 124.844  0.00  0.00    -0.470 OA
ATOM      4  C   LIG A   1      -8.166  -0.266 124.630  0.00  0.00    +0.313 C 
ATOM      5  C   LIG A   1      -6.876  -1.097 124.716  0.00  0.00    +0.071 C 
ATOM      6  C   LIG A   1      -6.770  -1.791 126.087  0.00  0.00    +0.041 C 
ATOM      7  C   LIG A   1      -5.706  -2.879 125.841  0.00  0.00    +0.040 C 
ATOM      8  C   LIG A   1      -5.696  -3.169 124.335  0.00  0.00    +0.118 C 
ATOM      9  C   LIG A   1      -6.779  -2.271 123.719  0.00  0.00    +0.024 C 
ATOM     10  C   LIG A   1      -6.506  -1.832 122.288  0.00  0.00    +0.010 C 
ENDROOT
BRANCH   1  12
ATOM     11  O   LIG A   1      -8.885  -4.196 127.786  0.00  0.00    -0.245 OA
ATOM     12  C   LIG A   1      -8.249  -3.165 127.742  0.00  0.00    +0.338 C 
BRANCH  12  13
ATOM     13  O   LIG A   1      -7.545  -2.611 128.768  0.00  0.00    -0.465 OA
ATOM     14  C   LIG A   1      -7.024  -3.551 129.706  0.00  0.00    +0.280 C 
ENDBRANCH  12  13
ENDBRANCH   1  12
BRANCH   8  15
ATOM     15  O   LIG A   1      -4.405  -2.902 123.803  0.00  0.00    -0.392 OA
ATOM     16  H   LIG A   1      -4.481  -2.200 123.136  0.00  0.00    +0.210 HD
ENDBRANCH   8  15
BRANCH   4  17
ATOM     17  O   LIG A   1      -8.065   0.804 125.579  0.00  0.00    -0.310 OA
BRANCH  17  18
ATOM     18  C   LIG A   1      -7.320   1.934 125.099  0.00  0.00    +0.286 C 
ATOM     19  O   LIG A   1      -6.148   2.087 125.911  0.00  0.00    -0.340 OA
ATOM     20  C   LIG A   1      -5.409   3.282 125.615  0.00  0.00    +0.178 C 
ATOM     21  C   LIG A   1      -6.264   4.486 126.022  0.00  0.00    +0.177 C 
ATOM     22  C   LIG A   1      -7.500   4.504 125.127  0.00  0.00    +0.179 C 
ATOM     23  C   LIG A   1      -8.257   3.173 125.187  0.00  0.00    +0.201 C 
BRANCH  23  24
ATOM     24  O   LIG A   1      -9.231   3.163 124.127  0.00  0.00    -0.384 OA
ATOM     25  H   LIG A   1      -8.818   3.659 123.392  0.00  0.00    +0.210 HD
ENDBRANCH  23  24
BRANCH  22  26
ATOM     26  O   LIG A   1      -8.376   5.569 125.542  0.00  0.00    -0.386 OA
ATOM     27  H   LIG A   1      -8.734   5.284 126.407  0.00  0.00    +0.210 HD
ENDBRANCH  22  26
BRANCH  21  28
ATOM     28  O   LIG A   1      -5.583   5.733 125.862  0.00  0.00    -0.387 OA
ATOM     29  H   LIG A   1      -5.036   5.650 125.056  0.00  0.00    +0.210 HD
ENDBRANCH  21  28
BRANCH  20  30
ATOM     30  C   LIG A   1      -4.085   3.224 126.382  0.00  0.00    +0.190 C 
BRANCH  30  31
ATOM     31  O   LIG A   1      -3.643   1.874 126.519  0.00  0.00    -0.392 OA
ATOM     32  H   LIG A   1      -4.454   1.337 126.602  0.00  0.00    +0.209 HD
ENDBRANCH  30  31
ENDBRANCH  20  30
ENDBRANCH  17  18
ENDBRANCH   4  17
TORSDOF 10
ENDMDL
MODEL 3
REMARK VINA RESULT:      -6.9      6.028      7.561
REMARK  Name = NuBBE_334
REMARK  12 active torsions:
REMARK  status: ('A' for Active; 'I' for Inactive)
REMARK    1  A    between atoms: C_2  and  C_3
REMARK    2  A    between atoms: C_2  and  O_36
REMARK    3  A    between atoms: C_6  and  O_19
REMARK    4  A    between atoms: C_11  and  O_16
REMARK    5  A    between atoms: C_13  and  C_15
REMARK    6  A    between atoms: O_19  and  C_20
REMARK    7  A    between atoms: C_23  and  C_34
REMARK    8  A    between atoms: C_25  and  O_33
REMARK    9  A    between atoms: C_27  and  O_32
REMARK   10  A    between atoms: C_29  and  O_31
REMARK   11  A    between atoms: C_34  and  O_35
REMARK   12  A    between atoms: O_36  and  C_37
REMARK                            x       y       z     vdW  Elec       q    Type
REMARK                         _______ _______ _______ _____ _____    ______ ____
ROOT
ATOM      1  C   LIG A   1      -6.255   3.873 127.817  0.00  0.00    +0.074 C 
ATOM      2  C   LIG A   1      -6.341   2.681 127.208  0.00  0.00    +0.201 C 
ATOM      3  O   LIG A   1      -5.576   2.273 126.137  0.00  0.00    -0.470 OA
ATOM      4  C   LIG A   1      -4.867   3.325 125.464  0.00  0.00    +0.313 C 
ATOM      5  C   LIG A   1      -4.184   4.277 126.457  0.00  0.00    +0.071 C 
ATOM      6  C   LIG A   1      -5.221   4.895 127.416  0.00  0.00    +0.041 C 
ATOM      7  C   LIG A   1      -4.348   5.438 128.564  0.00  0.00    +0.040 C 
ATOM      8  C   LIG A   1      -3.037   4.642 128.551  0.00  0.00    +0.118 C 
ATOM      9  C   LIG A   1      -3.170   3.616 127.415  0.00  0.00    +0.024 C 
ATOM     10  C   LIG A   1      -1.859   3.235 126.743  0.00  0.00    +0.010 C 
ENDROOT
BRANCH   1  12
ATOM     11  O   LIG A   1      -7.963   5.153 128.914  0.00  0.00    -0.245 OA
ATOM     12  C   LIG A   1      -7.255   4.169 128.882  0.00  0.00    +0.338 C 
BRANCH  12  13
ATOM     13  O   LIG A   1      -7.234   3.164 129.801  0.00  0.00    -0.465 OA
ATOM     14  C   LIG A   1      -6.277   3.333 130.845  0.00  0.00    +0.280 C 
ENDBRANCH  12  13
ENDBRANCH   1  12
BRANCH   8  15
ATOM     15  O   LIG A   1      -1.940   5.526 128.356  0.00  0.00    -0.392 OA
ATOM     16  H   LIG A   1      -2.065   6.308 128.919  0.00  0.00    +0.210 HD
ENDBRANCH   8  15
BRANCH   4  17
ATOM     17  O   LIG A   1      -5.728   4.106 124.625  0.00  0.00    -0.310 OA
BRANCH  17  18
ATOM     18  C   LIG A   1      -5.839   3.603 123.284  0.00  0.00    +0.286 C 
ATOM     19  O   LIG A   1      -5.419   4.629 122.375  0.00  0.00    -0.340 OA
ATOM     20  C   LIG A   1      -5.638   4.285 120.998  0.00  0.00    +0.178 C 
ATOM     21  C   LIG A   1      -7.148   4.215 120.755  0.00  0.00    +0.177 C 
ATOM     22  C   LIG A   1      -7.700   3.060 121.587  0.00  0.00    +0.179 C 
ATOM     23  C   LIG A   1      -7.328   3.203 123.066  0.00  0.00    +0.201 C 
BRANCH  23  24
ATOM     24  O   LIG A   1      -7.633   1.961 123.728  0.00  0.00    -0.384 OA
ATOM     25  H   LIG A   1      -8.609   1.911 123.744  0.00  0.00    +0.210 HD
ENDBRANCH  23  24
BRANCH  22  26
ATOM     26  O   LIG A   1      -9.134   3.021 121.459  0.00  0.00    -0.386 OA
ATOM     27  H   LIG A   1      -9.470   3.623 122.154  0.00  0.00    +0.210 HD
ENDBRANCH  22  26
BRANCH  21  28
ATOM     28  O   LIG A   1      -7.484   3.976 119.387  0.00  0.00    -0.387 OA
ATOM     29  H   LIG A   1      -8.158   3.268 119.385  0.00  0.00    +0.210 HD
ENDBRANCH  21  28
BRANCH  20  30
ATOM     30  C   LIG A   1      -4.959   5.349 120.130  0.00  0.00    +0.190 C 
BRANCH  30  31
ATOM     31  O   LIG A   1      -4.213   6.257 120.939  0.00  0.00    -0.392 OA
ATOM     32  H   LIG A   1      -3.274   6.071 120.749  0.00  0.00    +0.209 HD
ENDBRANCH  30  31
ENDBRANCH  20  30
ENDBRANCH  17  18
ENDBRANCH   4  17
TORSDOF 10
ENDMDL
MODEL 4
REMARK VINA RESULT:      -6.9      1.509      3.750
REMARK  Name = NuBBE_334
REMARK  12 active torsions:
REMARK  status: ('A' for Active; 'I' for Inactive)
REMARK    1  A    between atoms: C_2  and  C_3
REMARK    2  A    between atoms: C_2  and  O_36
REMARK    3  A    between atoms: C_6  and  O_19
REMARK    4  A    between atoms: C_11  and  O_16
REMARK    5  A    between atoms: C_13  and  C_15
REMARK    6  A    between atoms: O_19  and  C_20
REMARK    7  A    between atoms: C_23  and  C_34
REMARK    8  A    between atoms: C_25  and  O_33
REMARK    9  A    between atoms: C_27  and  O_32
REMARK   10  A    between atoms: C_29  and  O_31
REMARK   11  A    between atoms: C_34  and  O_35
REMARK   12  A    between atoms: O_36  and  C_37
REMARK                            x       y       z     vdW  Elec       q    Type
REMARK                         _______ _______ _______ _____ _____    ______ ____
ROOT
ATOM      1  C   LIG A   1      -5.654   5.348 130.603  0.00  0.00    +0.074 C 
ATOM      2  C   LIG A   1      -5.566   5.999 131.771  0.00  0.00    +0.201 C 
ATOM      3  O   LIG A   1      -6.572   6.103 132.707  0.00  0.00    -0.470 OA
ATOM      4  C   LIG A   1      -7.878   5.739 132.234  0.00  0.00    +0.313 C 
ATOM      5  C   LIG A   1      -7.846   4.438 131.420  0.00  0.00    +0.071 C 
ATOM      6  C   LIG A   1      -6.890   4.574 130.218  0.00  0.00    +0.041 C 
ATOM      7  C   LIG A   1      -6.651   3.109 129.801  0.00  0.00    +0.040 C 
ATOM      8  C   LIG A   1      -6.930   2.237 131.032  0.00  0.00    +0.118 C 
ATOM      9  C   LIG A   1      -7.297   3.203 132.167  0.00  0.00    +0.024 C 
ATOM     10  C   LIG A   1      -8.264   2.639 133.198  0.00  0.00    +0.010 C 
ENDROOT
BRANCH   1  12
ATOM     11  O   LIG A   1      -3.566   4.675 129.631  0.00  0.00    -0.245 OA
ATOM     12  C   LIG A   1      -4.494   5.453 129.672  0.00  0.00    +0.338 C 
BRANCH  12  13
ATOM     13  O   LIG A   1      -4.652   6.557 128.891  0.00  0.00    -0.465 OA
ATOM     14  C   LIG A   1      -3.480   7.358 128.750  0.00  0.00    +0.280 C 
ENDBRANCH  12  13
ENDBRANCH   1  12
BRANCH   8  15
ATOM     15  O   LIG A   1      -7.977   1.319 130.742  0.00  0.00    -0.392 OA
ATOM     16  H   LIG A   1      -7.585   0.473 130.470  0.00  0.00    +0.210 HD
ENDBRANCH   8  15
BRANCH   4  17
ATOM     17  O   LIG A   1      -8.460   6.760 131.412  0.00  0.00    -0.310 OA
BRANCH  17  18
ATOM     18  C   LIG A   1      -9.618   6.323 130.682  0.00  0.00    +0.286 C 
ATOM     19  O   LIG A   1      -9.657   7.022 129.430  0.00  0.00    -0.340 OA
ATOM     20  C   LIG A   1     -10.860   6.774 128.686  0.00  0.00    +0.178 C 
ATOM     21  C   LIG A   1     -12.034   7.389 129.454  0.00  0.00    +0.177 C 
ATOM     22  C   LIG A   1     -12.173   6.633 130.773  0.00  0.00    +0.179 C 
ATOM     23  C   LIG A   1     -10.862   6.635 131.564  0.00  0.00    +0.201 C 
BRANCH  23  24
ATOM     24  O   LIG A   1     -10.985   5.685 132.640  0.00  0.00    -0.384 OA
ATOM     25  H   LIG A   1     -11.741   5.116 132.396  0.00  0.00    +0.210 HD
ENDBRANCH  23  24
BRANCH  22  26
ATOM     26  O   LIG A   1     -13.208   7.243 131.567  0.00  0.00    -0.386 OA
ATOM     27  H   LIG A   1     -13.456   8.057 131.084  0.00  0.00    +0.210 HD
ENDBRANCH  22  26
BRANCH  21  28
ATOM     28  O   LIG A   1     -13.275   7.288 128.752  0.00  0.00    -0.387 OA
ATOM     29  H   LIG A   1     -13.454   6.333 128.640  0.00  0.00    +0.210 HD
ENDBRANCH  21  28
BRANCH  20  30
ATOM     30  C   LIG A   1     -10.691   7.391 127.294  0.00  0.00    +0.190 C 
BRANCH  30  31
ATOM     31  O   LIG A   1     -11.442   6.659 126.326  0.00  0.00    -0.392 OA
ATOM     32  H   LIG A   1     -10.786   6.289 125.707  0.00  0.00    +0.209 HD
ENDBRANCH  30  31
ENDBRANCH  20  30
ENDBRANCH  17  18
ENDBRANCH   4  17
TORSDOF 10
ENDMDL
MODEL 5
REMARK VINA RESULT:      -6.7      8.345     10.984
REMARK  Name = NuBBE_334
REMARK  12 active torsions:
REMARK  status: ('A' for Active; 'I' for Inactive)
REMARK    1  A    between atoms: C_2  and  C_3
REMARK    2  A    between atoms: C_2  and  O_36
REMARK    3  A    between atoms: C_6  and  O_19
REMARK    4  A    between atoms: C_11  and  O_16
REMARK    5  A    between atoms: C_13  and  C_15
REMARK    6  A    between atoms: O_19  and  C_20
REMARK    7  A    between atoms: C_23  and  C_34
REMARK    8  A    between atoms: C_25  and  O_33
REMARK    9  A    between atoms: C_27  and  O_32
REMARK   10  A    between atoms: C_29  and  O_31
REMARK   11  A    between atoms: C_34  and  O_35
REMARK   12  A    between atoms: O_36  and  C_37
REMARK                            x       y       z     vdW  Elec       q    Type
REMARK                         _______ _______ _______ _____ _____    ______ ____
ROOT
ATOM      1  C   LIG A   1      -7.391   3.485 121.580  0.00  0.00    +0.074 C 
ATOM      2  C   LIG A   1      -8.695   3.238 121.771  0.00  0.00    +0.201 C 
ATOM      3  O   LIG A   1      -9.231   2.559 122.843  0.00  0.00    -0.470 OA
ATOM      4  C   LIG A   1      -8.283   1.821 123.628  0.00  0.00    +0.313 C 
ATOM      5  C   LIG A   1      -7.018   2.645 123.915  0.00  0.00    +0.071 C 
ATOM      6  C   LIG A   1      -6.352   3.090 122.599  0.00  0.00    +0.041 C 
ATOM      7  C   LIG A   1      -5.409   4.221 123.056  0.00  0.00    +0.040 C 
ATOM      8  C   LIG A   1      -5.968   4.771 124.374  0.00  0.00    +0.118 C 
ATOM      9  C   LIG A   1      -7.252   3.977 124.659  0.00  0.00    +0.024 C 
ATOM     10  C   LIG A   1      -7.578   3.799 126.135  0.00  0.00    +0.010 C 
ENDROOT
BRANCH   1  12
ATOM     11  O   LIG A   1      -7.750   4.337 119.365  0.00  0.00    -0.245 OA
ATOM     12  C   LIG A   1      -6.999   4.130 120.294  0.00  0.00    +0.338 C 
BRANCH  12  13
ATOM     13  O   LIG A   1      -5.673   4.439 120.340  0.00  0.00    -0.465 OA
ATOM     14  C   LIG A   1      -5.297   5.562 119.544  0.00  0.00    +0.280 C 
ENDBRANCH  12  13
ENDBRANCH   1  12
BRANCH   8  15
ATOM     15  O   LIG A   1      -4.999   4.621 125.405  0.00  0.00    -0.392 OA
ATOM     16  H   LIG A   1      -5.320   5.073 126.203  0.00  0.00    +0.210 HD
ENDBRANCH   8  15
BRANCH   4  17
ATOM     17  O   LIG A   1      -7.880   0.604 122.987  0.00  0.00    -0.310 OA
BRANCH  17  18
ATOM     18  C   LIG A   1      -7.573  -0.458 123.904  0.00  0.00    +0.286 C 
ATOM     19  O   LIG A   1      -6.606  -1.324 123.294  0.00  0.00    -0.340 OA
ATOM     20  C   LIG A   1      -6.343  -2.507 124.064  0.00  0.00    +0.178 C 
ATOM     21  C   LIG A   1      -7.611  -3.366 124.070  0.00  0.00    +0.177 C 
ATOM     22  C   LIG A   1      -8.694  -2.591 124.816  0.00  0.00    +0.179 C 
ATOM     23  C   LIG A   1      -8.907  -1.199 124.213  0.00  0.00    +0.201 C 
BRANCH  23  24
ATOM     24  O   LIG A   1      -9.725  -0.437 125.120  0.00  0.00    -0.384 OA
ATOM     25  H   LIG A   1      -9.968  -1.059 125.834  0.00  0.00    +0.210 HD
ENDBRANCH  23  24
BRANCH  22  26
ATOM     26  O   LIG A   1      -9.931  -3.326 124.761  0.00  0.00    -0.386 OA
ATOM     27  H   LIG A   1      -9.933  -3.887 125.564  0.00  0.00    +0.210 HD
ENDBRANCH  22  26
BRANCH  21  28
ATOM     28  O   LIG A   1      -7.431  -4.621 124.729  0.00  0.00    -0.387 OA
ATOM     29  H   LIG A   1      -6.933  -5.191 124.111  0.00  0.00    +0.210 HD
ENDBRANCH  21  28
BRANCH  20  30
ATOM     30  C   LIG A   1      -5.154  -3.231 123.428  0.00  0.00    +0.190 C 
BRANCH  30  31
ATOM     31  O   LIG A   1      -4.585  -4.165 124.345  0.00  0.00    -0.392 OA
ATOM     32  H   LIG A   1      -5.277  -4.334 125.012  0.00  0.00    +0.209 HD
ENDBRANCH  30  31
ENDBRANCH  20  30
ENDBRANCH  17  18
ENDBRANCH   4  17
TORSDOF 10
ENDMDL
MODEL 6
REMARK VINA RESULT:      -6.7      7.219      9.406
REMARK  Name = NuBBE_334
REMARK  12 active torsions:
REMARK  status: ('A' for Active; 'I' for Inactive)
REMARK    1  A    between atoms: C_2  and  C_3
REMARK    2  A    between atoms: C_2  and  O_36
REMARK    3  A    between atoms: C_6  and  O_19
REMARK    4  A    between atoms: C_11  and  O_16
REMARK    5  A    between atoms: C_13  and  C_15
REMARK    6  A    between atoms: O_19  and  C_20
REMARK    7  A    between atoms: C_23  and  C_34
REMARK    8  A    between atoms: C_25  and  O_33
REMARK    9  A    between atoms: C_27  and  O_32
REMARK   10  A    between atoms: C_29  and  O_31
REMARK   11  A    between atoms: C_34  and  O_35
REMARK   12  A    between atoms: O_36  and  C_37
REMARK                            x       y       z     vdW  Elec       q    Type
REMARK                         _______ _______ _______ _____ _____    ______ ____
ROOT
ATOM      1  C   LIG A   1      -7.558  -2.643 125.952  0.00  0.00    +0.074 C 
ATOM      2  C   LIG A   1      -6.370  -2.218 125.498  0.00  0.00    +0.201 C 
ATOM      3  O   LIG A   1      -5.556  -1.300 126.124  0.00  0.00    -0.470 OA
ATOM      4  C   LIG A   1      -6.188  -0.545 127.169  0.00  0.00    +0.313 C 
ATOM      5  C   LIG A   1      -7.028  -1.442 128.091  0.00  0.00    +0.071 C 
ATOM      6  C   LIG A   1      -8.105  -2.192 127.283  0.00  0.00    +0.041 C 
ATOM      7  C   LIG A   1      -8.531  -3.322 128.241  0.00  0.00    +0.040 C 
ATOM      8  C   LIG A   1      -7.365  -3.556 129.210  0.00  0.00    +0.118 C 
ATOM      9  C   LIG A   1      -6.255  -2.582 128.788  0.00  0.00    +0.024 C 
ATOM     10  C   LIG A   1      -5.359  -2.105 129.922  0.00  0.00    +0.010 C 
ENDROOT
BRANCH   1  12
ATOM     11  O   LIG A   1      -8.040  -4.694 124.802  0.00  0.00    -0.245 OA
ATOM     12  C   LIG A   1      -8.343  -3.550 125.067  0.00  0.00    +0.338 C 
BRANCH  12  13
ATOM     13  O   LIG A   1      -9.441  -2.884 124.612  0.00  0.00    -0.465 OA
ATOM     14  C   LIG A   1      -9.360  -2.466 123.250  0.00  0.00    +0.280 C 
ENDBRANCH  12  13
ENDBRANCH   1  12
BRANCH   8  15
ATOM     15  O   LIG A   1      -7.800  -3.334 130.546  0.00  0.00    -0.392 OA
ATOM     16  H   LIG A   1      -7.581  -2.422 130.799  0.00  0.00    +0.210 HD
ENDBRANCH   8  15
BRANCH   4  17
ATOM     17  O   LIG A   1      -7.045   0.482 126.654  0.00  0.00    -0.310 OA
BRANCH  17  18
ATOM     18  C   LIG A   1      -6.408   1.336 125.690  0.00  0.00    +0.286 C 
ATOM     19  O   LIG A   1      -5.768   2.413 126.388  0.00  0.00    -0.340 OA
ATOM     20  C   LIG A   1      -5.230   3.413 125.509  0.00  0.00    +0.178 C 
ATOM     21  C   LIG A   1      -6.399   4.111 124.806  0.00  0.00    +0.177 C 
ATOM     22  C   LIG A   1      -7.092   3.079 123.921  0.00  0.00    +0.179 C 
ATOM     23  C   LIG A   1      -7.516   1.844 124.723  0.00  0.00    +0.201 C 
BRANCH  23  24
ATOM     24  O   LIG A   1      -7.902   0.815 123.792  0.00  0.00    -0.384 OA
ATOM     25  H   LIG A   1      -7.072   0.357 123.555  0.00  0.00    +0.210 HD
ENDBRANCH  23  24
BRANCH  22  26
ATOM     26  O   LIG A   1      -8.255   3.673 123.314  0.00  0.00    -0.386 OA
ATOM     27  H   LIG A   1      -8.937   3.679 124.016  0.00  0.00    +0.210 HD
ENDBRANCH  22  26
BRANCH  21  28
ATOM     28  O   LIG A   1      -5.982   5.197 123.976  0.00  0.00    -0.387 OA
ATOM     29  H   LIG A   1      -6.271   6.017 124.423  0.00  0.00    +0.210 HD
ENDBRANCH  21  28
BRANCH  20  30
ATOM     30  C   LIG A   1      -4.395   4.384 126.349  0.00  0.00    +0.190 C 
BRANCH  30  31
ATOM     31  O   LIG A   1      -5.199   5.468 126.811  0.00  0.00    -0.392 OA
ATOM     32  H   LIG A   1      -6.105   5.113 126.887  0.00  0.00    +0.209 HD
ENDBRANCH  30  31
ENDBRANCH  20  30
ENDBRANCH  17  18
ENDBRANCH   4  17
TORSDOF 10
ENDMDL
MODEL 7
REMARK VINA RESULT:      -6.7      4.173      6.194
REMARK  Name = NuBBE_334
REMARK  12 active torsions:
REMARK  status: ('A' for Active; 'I' for Inactive)
REMARK    1  A    between atoms: C_2  and  C_3
REMARK    2  A    between atoms: C_2  and  O_36
REMARK    3  A    between atoms: C_6  and  O_19
REMARK    4  A    between atoms: C_11  and  O_16
REMARK    5  A    between atoms: C_13  and  C_15
REMARK    6  A    between atoms: O_19  and  C_20
REMARK    7  A    between atoms: C_23  and  C_34
REMARK    8  A    between atoms: C_25  and  O_33
REMARK    9  A    between atoms: C_27  and  O_32
REMARK   10  A    between atoms: C_29  and  O_31
REMARK   11  A    between atoms: C_34  and  O_35
REMARK   12  A    between atoms: O_36  and  C_37
REMARK                            x       y       z     vdW  Elec       q    Type
REMARK                         _______ _______ _______ _____ _____    ______ ____
ROOT
ATOM      1  C   LIG A   1      -5.119   3.754 126.903  0.00  0.00    +0.074 C 
ATOM      2  C   LIG A   1      -5.629   2.873 127.776  0.00  0.00    +0.201 C 
ATOM      3  O   LIG A   1      -6.968   2.601 127.949  0.00  0.00    -0.470 OA
ATOM      4  C   LIG A   1      -7.860   3.558 127.359  0.00  0.00    +0.313 C 
ATOM      5  C   LIG A   1      -7.428   3.936 125.935  0.00  0.00    +0.071 C 
ATOM      6  C   LIG A   1      -5.997   4.510 125.938  0.00  0.00    +0.041 C 
ATOM      7  C   LIG A   1      -5.586   4.416 124.455  0.00  0.00    +0.040 C 
ATOM      8  C   LIG A   1      -6.448   3.321 123.815  0.00  0.00    +0.118 C 
ATOM      9  C   LIG A   1      -7.333   2.761 124.938  0.00  0.00    +0.024 C 
ATOM     10  C   LIG A   1      -8.688   2.240 124.483  0.00  0.00    +0.010 C 
ENDROOT
BRANCH   1  12
ATOM     11  O   LIG A   1      -3.126   5.029 127.299  0.00  0.00    -0.245 OA
ATOM     12  C   LIG A   1      -3.649   3.992 126.951  0.00  0.00    +0.338 C 
BRANCH  12  13
ATOM     13  O   LIG A   1      -3.003   2.865 126.542  0.00  0.00    -0.465 OA
ATOM     14  C   LIG A   1      -1.581   2.974 126.508  0.00  0.00    +0.280 C 
ENDBRANCH  12  13
ENDBRANCH   1  12
BRANCH   8  15
ATOM     15  O   LIG A   1      -7.210   3.873 122.749  0.00  0.00    -0.392 OA
ATOM     16  H   LIG A   1      -7.715   4.632 123.086  0.00  0.00    +0.210 HD
ENDBRANCH   8  15
BRANCH   4  17
ATOM     17  O   LIG A   1      -7.948   4.764 128.129  0.00  0.00    -0.310 OA
BRANCH  17  18
ATOM     18  C   LIG A   1      -8.678   4.615 129.357  0.00  0.00    +0.286 C 
ATOM     19  O   LIG A   1      -9.855   5.431 129.289  0.00  0.00    -0.340 OA
ATOM     20  C   LIG A   1     -10.581   5.477 130.527  0.00  0.00    +0.178 C 
ATOM     21  C   LIG A   1      -9.719   6.209 131.561  0.00  0.00    +0.177 C 
ATOM     22  C   LIG A   1      -8.475   5.361 131.814  0.00  0.00    +0.179 C 
ATOM     23  C   LIG A   1      -7.731   5.051 130.511  0.00  0.00    +0.201 C 
BRANCH  23  24
ATOM     24  O   LIG A   1      -6.748   4.036 130.787  0.00  0.00    -0.384 OA
ATOM     25  H   LIG A   1      -7.233   3.327 131.253  0.00  0.00    +0.210 HD
ENDBRANCH  23  24
BRANCH  22  26
ATOM     26  O   LIG A   1      -7.593   6.062 132.710  0.00  0.00    -0.386 OA
ATOM     27  H   LIG A   1      -8.083   6.127 133.555  0.00  0.00    +0.210 HD
ENDBRANCH  22  26
BRANCH  21  28
ATOM     28  O   LIG A   1     -10.387   6.400 132.810  0.00  0.00    -0.387 OA
ATOM     29  H   LIG A   1     -10.340   5.546 133.284  0.00  0.00    +0.210 HD
ENDBRANCH  21  28
BRANCH  20  30
ATOM     30  C   LIG A   1     -11.912   6.190 130.271  0.00  0.00    +0.190 C 
BRANCH  30  31
ATOM     31  O   LIG A   1     -12.308   6.039 128.909  0.00  0.00    -0.392 OA
ATOM     32  H   LIG A   1     -12.188   5.094 128.702  0.00  0.00    +0.209 HD
ENDBRANCH  30  31
ENDBRANCH  20  30
ENDBRANCH  17  18
ENDBRANCH   4  17
TORSDOF 10
ENDMDL
MODEL 8
REMARK VINA RESULT:      -6.7      2.281      2.629
REMARK  Name = NuBBE_334
REMARK  12 active torsions:
REMARK  status: ('A' for Active; 'I' for Inactive)
REMARK    1  A    between atoms: C_2  and  C_3
REMARK    2  A    between atoms: C_2  and  O_36
REMARK    3  A    between atoms: C_6  and  O_19
REMARK    4  A    between atoms: C_11  and  O_16
REMARK    5  A    between atoms: C_13  and  C_15
REMARK    6  A    between atoms: O_19  and  C_20
REMARK    7  A    between atoms: C_23  and  C_34
REMARK    8  A    between atoms: C_25  and  O_33
REMARK    9  A    between atoms: C_27  and  O_32
REMARK   10  A    between atoms: C_29  and  O_31
REMARK   11  A    between atoms: C_34  and  O_35
REMARK   12  A    between atoms: O_36  and  C_37
REMARK                            x       y       z     vdW  Elec       q    Type
REMARK                         _______ _______ _______ _____ _____    ______ ____
ROOT
ATOM      1  C   LIG A   1      -8.220   2.887 131.614  0.00  0.00    +0.074 C 
ATOM      2  C   LIG A   1      -9.261   2.485 130.871  0.00  0.00    +0.201 C 
ATOM      3  O   LIG A   1      -9.704   3.095 129.718  0.00  0.00    -0.470 OA
ATOM      4  C   LIG A   1      -9.185   4.415 129.495  0.00  0.00    +0.313 C 
ATOM      5  C   LIG A   1      -7.673   4.485 129.757  0.00  0.00    +0.071 C 
ATOM      6  C   LIG A   1      -7.354   4.051 131.201  0.00  0.00    +0.041 C 
ATOM      7  C   LIG A   1      -5.840   3.764 131.148  0.00  0.00    +0.040 C 
ATOM      8  C   LIG A   1      -5.490   3.454 129.687  0.00  0.00    +0.118 C 
ATOM      9  C   LIG A   1      -6.810   3.531 128.904  0.00  0.00    +0.024 C 
ATOM     10  C   LIG A   1      -6.668   3.972 127.455  0.00  0.00    +0.010 C 
ENDROOT
BRANCH   1  12
ATOM     11  O   LIG A   1      -7.930   0.958 133.012  0.00  0.00    -0.245 OA
ATOM     12  C   LIG A   1      -7.973   2.164 132.894  0.00  0.00    +0.338 C 
BRANCH  12  13
ATOM     13  O   LIG A   1      -7.811   3.075 133.894  0.00  0.00    -0.465 OA
ATOM     14  C   LIG A   1      -8.980   3.834 134.200  0.00  0.00    +0.280 C 
ENDBRANCH  12  13
ENDBRANCH   1  12
BRANCH   8  15
ATOM     15  O   LIG A   1      -4.527   4.389 129.216  0.00  0.00    -0.392 OA
ATOM     16  H   LIG A   1      -3.638   4.046 129.407  0.00  0.00    +0.210 HD
ENDBRANCH   8  15
BRANCH   4  17
ATOM     17  O   LIG A   1      -9.823   5.395 130.325  0.00  0.00    -0.310 OA
BRANCH  17  18
ATOM     18  C   LIG A   1     -11.110   5.811 129.843  0.00  0.00    +0.286 C 
ATOM     19  O   LIG A   1     -10.949   6.358 128.527  0.00  0.00    -0.340 OA
ATOM     20  C   LIG A   1     -12.153   6.948 128.011  0.00  0.00    +0.178 C 
ATOM     21  C   LIG A   1     -12.480   8.184 128.854  0.00  0.00    +0.177 C 
ATOM     22  C   LIG A   1     -12.798   7.710 130.270  0.00  0.00    +0.179 C 
ATOM     23  C   LIG A   1     -11.659   6.864 130.849  0.00  0.00    +0.201 C 
BRANCH  23  24
ATOM     24  O   LIG A   1     -12.137   6.232 132.051  0.00  0.00    -0.384 OA
ATOM     25  H   LIG A   1     -13.094   6.092 131.907  0.00  0.00    +0.210 HD
ENDBRANCH  23  24
BRANCH  22  26
ATOM     26  O   LIG A   1     -13.018   8.853 131.118  0.00  0.00    -0.386 OA
ATOM     27  H   LIG A   1     -13.843   9.263 130.787  0.00  0.00    +0.210 HD
ENDBRANCH  22  26
BRANCH  21  28
ATOM     28  O   LIG A   1     -13.611   8.909 128.366  0.00  0.00    -0.387 OA
ATOM     29  H   LIG A   1     -13.331   9.331 127.529  0.00  0.00    +0.210 HD
ENDBRANCH  21  28
BRANCH  20  30
ATOM     30  C   LIG A   1     -11.918   7.295 126.538  0.00  0.00    +0.190 C 
BRANCH  30  31
ATOM     31  O   LIG A   1     -10.725   6.675 126.060  0.00  0.00    -0.392 OA
ATOM     32  H   LIG A   1     -10.441   6.067 126.768  0.00  0.00    +0.209 HD
ENDBRANCH  30  31
ENDBRANCH  20  30
ENDBRANCH  17  18
ENDBRANCH   4  17
TORSDOF 10
ENDMDL
MODEL 9
REMARK VINA RESULT:      -6.7      3.291      5.246
REMARK  Name = NuBBE_334
REMARK  12 active torsions:
REMARK  status: ('A' for Active; 'I' for Inactive)
REMARK    1  A    between atoms: C_2  and  C_3
REMARK    2  A    between atoms: C_2  and  O_36
REMARK    3  A    between atoms: C_6  and  O_19
REMARK    4  A    between atoms: C_11  and  O_16
REMARK    5  A    between atoms: C_13  and  C_15
REMARK    6  A    between atoms: O_19  and  C_20
REMARK    7  A    between atoms: C_23  and  C_34
REMARK    8  A    between atoms: C_25  and  O_33
REMARK    9  A    between atoms: C_27  and  O_32
REMARK   10  A    between atoms: C_29  and  O_31
REMARK   11  A    between atoms: C_34  and  O_35
REMARK   12  A    between atoms: O_36  and  C_37
REMARK                            x       y       z     vdW  Elec       q    Type
REMARK                         _______ _______ _______ _____ _____    ______ ____
ROOT
ATOM      1  C   LIG A   1      -4.975   4.678 127.987  0.00  0.00    +0.074 C 
ATOM      2  C   LIG A   1      -5.168   4.118 129.190  0.00  0.00    +0.201 C 
ATOM      3  O   LIG A   1      -6.296   3.433 129.582  0.00  0.00    -0.470 OA
ATOM      4  C   LIG A   1      -7.439   3.612 128.732  0.00  0.00    +0.313 C 
ATOM      5  C   LIG A   1      -7.066   3.502 127.246  0.00  0.00    +0.071 C 
ATOM      6  C   LIG A   1      -5.991   4.543 126.879  0.00  0.00    +0.041 C 
ATOM      7  C   LIG A   1      -5.442   4.015 125.539  0.00  0.00    +0.040 C 
ATOM      8  C   LIG A   1      -5.732   2.509 125.494  0.00  0.00    +0.118 C 
ATOM      9  C   LIG A   1      -6.418   2.165 126.824  0.00  0.00    +0.024 C 
ATOM     10  C   LIG A   1      -7.405   1.009 126.753  0.00  0.00    +0.010 C 
ENDROOT
BRANCH   1  12
ATOM     11  O   LIG A   1      -2.617   5.019 127.704  0.00  0.00    -0.245 OA
ATOM     12  C   LIG A   1      -3.734   5.481 127.796  0.00  0.00    +0.338 C 
BRANCH  12  13
ATOM     13  O   LIG A   1      -4.064   6.801 127.748  0.00  0.00    -0.465 OA
ATOM     14  C   LIG A   1      -3.579   7.575 128.844  0.00  0.00    +0.280 C 
ENDBRANCH  12  13
ENDBRANCH   1  12
BRANCH   8  15
ATOM     15  O   LIG A   1      -6.551   2.212 124.370  0.00  0.00    -0.392 OA
ATOM     16  H   LIG A   1      -7.482   2.319 124.625  0.00  0.00    +0.210 HD
ENDBRANCH   8  15
BRANCH   4  17
ATOM     17  O   LIG A   1      -8.071   4.883 128.935  0.00  0.00    -0.310 OA
BRANCH  17  18
ATOM     18  C   LIG A   1      -9.289   4.808 129.693  0.00  0.00    +0.286 C 
ATOM     19  O   LIG A   1     -10.267   5.652 129.070  0.00  0.00    -0.340 OA
ATOM     20  C   LIG A   1     -11.476   5.773 129.836  0.00  0.00    +0.178 C 
ATOM     21  C   LIG A   1     -11.151   6.526 131.129  0.00  0.00    +0.177 C 
ATOM     22  C   LIG A   1     -10.201   5.657 131.948  0.00  0.00    +0.179 C 
ATOM     23  C   LIG A   1      -8.957   5.270 131.142  0.00  0.00    +0.201 C 
BRANCH  23  24
ATOM     24  O   LIG A   1      -8.256   4.241 131.866  0.00  0.00    -0.384 OA
ATOM     25  H   LIG A   1      -7.412   4.119 131.387  0.00  0.00    +0.210 HD
ENDBRANCH  23  24
BRANCH  22  26
ATOM     26  O   LIG A   1      -9.797   6.373 133.130  0.00  0.00    -0.386 OA
ATOM     27  H   LIG A   1     -10.478   6.166 133.802  0.00  0.00    +0.210 HD
ENDBRANCH  22  26
BRANCH  21  28
ATOM     28  O   LIG A   1     -12.308   6.791 131.926  0.00  0.00    -0.387 OA
ATOM     29  H   LIG A   1     -13.018   7.051 131.308  0.00  0.00    +0.210 HD
ENDBRANCH  21  28
BRANCH  20  30
ATOM     30  C   LIG A   1     -12.508   6.509 128.978  0.00  0.00    +0.190 C 
BRANCH  30  31
ATOM     31  O   LIG A   1     -12.107   6.523 127.609  0.00  0.00    -0.392 OA
ATOM     32  H   LIG A   1     -12.881   6.213 127.103  0.00  0.00    +0.209 HD
ENDBRANCH  30  31
ENDBRANCH  20  30
ENDBRANCH  17  18
ENDBRANCH   4  17
TORSDOF 10
ENDMDL
