MODEL 1
REMARK VINA RESULT:      -5.8      0.000      0.000
REMARK  Name = NuBBE_43
REMARK  8 active torsions:
REMARK  status: ('A' for Active; 'I' for Inactive)
REMARK    1  A    between atoms: N_3  and  C_4
REMARK    2  A    between atoms: C_4  and  C_5
REMARK    3  A    between atoms: C_6  and  C_7
REMARK    4  A    between atoms: C_6  and  C_8
REMARK    5  A    between atoms: N_9  and  C_10
REMARK    6  A    between atoms: C_10  and  C_11
REMARK    7  A    between atoms: C_12  and  C_13
REMARK    8  A    between atoms: C_12  and  C_14
REMARK                            x       y       z     vdW  Elec       q    Type
REMARK                         _______ _______ _______ _____ _____    ______ ____
ROOT
ATOM      1  N   LIG A   1      -9.986   6.401 133.040  0.00  0.00    -0.130 NA
ATOM      2  C   LIG A   1     -10.584   5.639 132.199  0.00  0.00    +0.379 C 
ATOM      3  N   LIG A   1     -11.698   5.924 131.482  0.00  0.00    -0.273 N 
ATOM      4  N   LIG A   1     -10.161   4.371 131.935  0.00  0.00    -0.273 N 
ATOM      5  H   LIG A   1     -10.466   7.298 133.117  0.00  0.00    +0.306 HD
ATOM      6  H   LIG A   1     -11.719   5.428 130.601  0.00  0.00    +0.258 HD
ATOM      7  H   LIG A   1     -10.933   3.729 131.839  0.00  0.00    +0.258 HD
ENDROOT
BRANCH   3   8
ATOM      8  C   LIG A   1     -12.343   7.215 131.405  0.00  0.00    +0.223 C 
BRANCH   8   9
ATOM      9  C   LIG A   1     -13.152   7.216 130.140  0.00  0.00    +0.008 C 
ATOM     10  C   LIG A   1     -12.819   7.755 128.950  0.00  0.00    -0.077 C 
ATOM     11  C   LIG A   1     -11.566   8.540 128.683  0.00  0.00    +0.038 C 
ATOM     12  C   LIG A   1     -13.734   7.614 127.762  0.00  0.00    +0.038 C 
ENDBRANCH   8   9
ENDBRANCH   3   8
BRANCH   4  13
ATOM     13  C   LIG A   1      -9.077   3.807 132.719  0.00  0.00    +0.223 C 
BRANCH  13  14
ATOM     14  C   LIG A   1      -9.196   2.310 132.651  0.00  0.00    +0.008 C 
ATOM     15  C   LIG A   1      -8.792   1.488 131.660  0.00  0.00    -0.077 C 
ATOM     16  C   LIG A   1      -8.096   1.925 130.400  0.00  0.00    +0.038 C 
ATOM     17  C   LIG A   1      -9.033   0.003 131.742  0.00  0.00    +0.038 C 
ENDBRANCH  13  14
ENDBRANCH   4  13
TORSDOF 4
ENDMDL
MODEL 2
REMARK VINA RESULT:      -5.8      0.705      6.429
REMARK  Name = NuBBE_43
REMARK  8 active torsions:
REMARK  status: ('A' for Active; 'I' for Inactive)
REMARK    1  A    between atoms: N_3  and  C_4
REMARK    2  A    between atoms: C_4  and  C_5
REMARK    3  A    between atoms: C_6  and  C_7
REMARK    4  A    between atoms: C_6  and  C_8
REMARK    5  A    between atoms: N_9  and  C_10
REMARK    6  A    between atoms: C_10  and  C_11
REMARK    7  A    between atoms: C_12  and  C_13
REMARK    8  A    between atoms: C_12  and  C_14
REMARK                            x       y       z     vdW  Elec       q    Type
REMARK                         _______ _______ _______ _____ _____    ______ ____
ROOT
ATOM      1  N   LIG A   1      -9.380   6.602 131.764  0.00  0.00    -0.130 NA
ATOM      2  C   LIG A   1     -10.299   5.785 132.129  0.00  0.00    +0.379 C 
ATOM      3  N   LIG A   1     -10.134   4.542 132.642  0.00  0.00    -0.273 N 
ATOM      4  N   LIG A   1     -11.624   6.076 132.008  0.00  0.00    -0.273 N 
ATOM      5  H   LIG A   1      -8.457   6.193 131.909  0.00  0.00    +0.306 HD
ATOM      6  H   LIG A   1     -10.891   4.284 133.263  0.00  0.00    +0.258 HD
ATOM      7  H   LIG A   1     -12.159   5.278 131.702  0.00  0.00    +0.258 HD
ENDROOT
BRANCH   3   8
ATOM      8  C   LIG A   1      -8.874   3.951 133.034  0.00  0.00    +0.223 C 
BRANCH   8   9
ATOM      9  C   LIG A   1      -9.030   2.466 132.882  0.00  0.00    +0.008 C 
ATOM     10  C   LIG A   1      -8.975   1.743 131.745  0.00  0.00    -0.077 C 
ATOM     11  C   LIG A   1      -8.812   2.320 130.368  0.00  0.00    +0.038 C 
ATOM     12  C   LIG A   1      -9.100   0.242 131.784  0.00  0.00    +0.038 C 
ENDBRANCH   8   9
ENDBRANCH   3   8
BRANCH   4  13
ATOM     13  C   LIG A   1     -12.023   7.295 131.328  0.00  0.00    +0.223 C 
BRANCH  13  14
ATOM     14  C   LIG A   1     -12.748   6.900 130.072  0.00  0.00    +0.008 C 
ATOM     15  C   LIG A   1     -13.122   7.690 129.044  0.00  0.00    -0.077 C 
ATOM     16  C   LIG A   1     -12.852   9.167 128.942  0.00  0.00    +0.038 C 
ATOM     17  C   LIG A   1     -13.885   7.125 127.874  0.00  0.00    +0.038 C 
ENDBRANCH  13  14
ENDBRANCH   4  13
TORSDOF 4
ENDMDL
MODEL 3
REMARK VINA RESULT:      -5.7      1.714      6.419
REMARK  Name = NuBBE_43
REMARK  8 active torsions:
REMARK  status: ('A' for Active; 'I' for Inactive)
REMARK    1  A    between atoms: N_3  and  C_4
REMARK    2  A    between atoms: C_4  and  C_5
REMARK    3  A    between atoms: C_6  and  C_7
REMARK    4  A    between atoms: C_6  and  C_8
REMARK    5  A    between atoms: N_9  and  C_10
REMARK    6  A    between atoms: C_10  and  C_11
REMARK    7  A    between atoms: C_12  and  C_13
REMARK    8  A    between atoms: C_12  and  C_14
REMARK                            x       y       z     vdW  Elec       q    Type
REMARK                         _______ _______ _______ _____ _____    ______ ____
ROOT
ATOM      1  N   LIG A   1      -9.664   6.744 131.527  0.00  0.00    -0.130 NA
ATOM      2  C   LIG A   1     -10.531   5.860 131.865  0.00  0.00    +0.379 C 
ATOM      3  N   LIG A   1     -10.290   4.587 132.263  0.00  0.00    -0.273 N 
ATOM      4  N   LIG A   1     -11.870   6.103 131.834  0.00  0.00    -0.273 N 
ATOM      5  H   LIG A   1      -8.719   6.365 131.593  0.00  0.00    +0.306 HD
ATOM      6  H   LIG A   1     -11.004   4.247 132.895  0.00  0.00    +0.258 HD
ATOM      7  H   LIG A   1     -12.389   5.310 131.486  0.00  0.00    +0.258 HD
ENDROOT
BRANCH   3   8
ATOM      8  C   LIG A   1      -8.990   4.022 132.542  0.00  0.00    +0.223 C 
BRANCH   8   9
ATOM      9  C   LIG A   1      -8.654   4.393 133.957  0.00  0.00    +0.008 C 
ATOM     10  C   LIG A   1      -7.626   5.151 134.388  0.00  0.00    -0.077 C 
ATOM     11  C   LIG A   1      -6.553   5.725 133.507  0.00  0.00    +0.038 C 
ATOM     12  C   LIG A   1      -7.470   5.470 135.852  0.00  0.00    +0.038 C 
ENDBRANCH   8   9
ENDBRANCH   3   8
BRANCH   4  13
ATOM     13  C   LIG A   1     -12.352   7.355 131.279  0.00  0.00    +0.223 C 
BRANCH  13  14
ATOM     14  C   LIG A   1     -12.906   7.065 129.912  0.00  0.00    +0.008 C 
ATOM     15  C   LIG A   1     -12.454   7.509 128.720  0.00  0.00    -0.077 C 
ATOM     16  C   LIG A   1     -11.250   8.389 128.522  0.00  0.00    +0.038 C 
ATOM     17  C   LIG A   1     -13.166   7.149 127.442  0.00  0.00    +0.038 C 
ENDBRANCH  13  14
ENDBRANCH   4  13
TORSDOF 4
ENDMDL
MODEL 4
REMARK VINA RESULT:      -5.7      3.191      4.037
REMARK  Name = NuBBE_43
REMARK  8 active torsions:
REMARK  status: ('A' for Active; 'I' for Inactive)
REMARK    1  A    between atoms: N_3  and  C_4
REMARK    2  A    between atoms: C_4  and  C_5
REMARK    3  A    between atoms: C_6  and  C_7
REMARK    4  A    between atoms: C_6  and  C_8
REMARK    5  A    between atoms: N_9  and  C_10
REMARK    6  A    between atoms: C_10  and  C_11
REMARK    7  A    between atoms: C_12  and  C_13
REMARK    8  A    between atoms: C_12  and  C_14
REMARK                            x       y       z     vdW  Elec       q    Type
REMARK                         _______ _______ _______ _____ _____    ______ ____
ROOT
ATOM      1  N   LIG A   1     -10.062   6.445 132.816  0.00  0.00    -0.130 NA
ATOM      2  C   LIG A   1      -9.887   6.417 131.546  0.00  0.00    +0.379 C 
ATOM      3  N   LIG A   1     -10.844   6.407 130.587  0.00  0.00    -0.273 N 
ATOM      4  N   LIG A   1      -8.649   6.361 130.981  0.00  0.00    -0.273 N 
ATOM      5  H   LIG A   1     -11.057   6.460 133.042  0.00  0.00    +0.306 HD
ATOM      6  H   LIG A   1     -10.527   6.840 129.729  0.00  0.00    +0.258 HD
ATOM      7  H   LIG A   1      -8.625   5.740 130.186  0.00  0.00    +0.258 HD
ENDROOT
BRANCH   3   8
ATOM      8  C   LIG A   1     -12.261   6.591 130.806  0.00  0.00    +0.223 C 
BRANCH   8   9
ATOM      9  C   LIG A   1     -12.606   7.950 130.271  0.00  0.00    +0.008 C 
ATOM     10  C   LIG A   1     -13.120   8.253 129.062  0.00  0.00    -0.077 C 
ATOM     11  C   LIG A   1     -13.385   7.259 127.967  0.00  0.00    +0.038 C 
ATOM     12  C   LIG A   1     -13.458   9.678 128.709  0.00  0.00    +0.038 C 
ENDBRANCH   8   9
ENDBRANCH   3   8
BRANCH   4  13
ATOM     13  C   LIG A   1      -7.486   6.197 131.835  0.00  0.00    +0.223 C 
BRANCH  13  14
ATOM     14  C   LIG A   1      -6.321   6.854 131.150  0.00  0.00    +0.008 C 
ATOM     15  C   LIG A   1      -5.031   6.879 131.545  0.00  0.00    -0.077 C 
ATOM     16  C   LIG A   1      -4.487   6.208 132.777  0.00  0.00    +0.038 C 
ATOM     17  C   LIG A   1      -3.994   7.630 130.749  0.00  0.00    +0.038 C 
ENDBRANCH  13  14
ENDBRANCH   4  13
TORSDOF 4
ENDMDL
MODEL 5
REMARK VINA RESULT:      -5.7      1.966      3.040
REMARK  Name = NuBBE_43
REMARK  8 active torsions:
REMARK  status: ('A' for Active; 'I' for Inactive)
REMARK    1  A    between atoms: N_3  and  C_4
REMARK    2  A    between atoms: C_4  and  C_5
REMARK    3  A    between atoms: C_6  and  C_7
REMARK    4  A    between atoms: C_6  and  C_8
REMARK    5  A    between atoms: N_9  and  C_10
REMARK    6  A    between atoms: C_10  and  C_11
REMARK    7  A    between atoms: C_12  and  C_13
REMARK    8  A    between atoms: C_12  and  C_14
REMARK                            x       y       z     vdW  Elec       q    Type
REMARK                         _______ _______ _______ _____ _____    ______ ____
ROOT
ATOM      1  N   LIG A   1      -9.357   6.584 131.748  0.00  0.00    -0.130 NA
ATOM      2  C   LIG A   1     -10.343   5.907 132.213  0.00  0.00    +0.379 C 
ATOM      3  N   LIG A   1     -11.651   6.261 132.215  0.00  0.00    -0.273 N 
ATOM      4  N   LIG A   1     -10.176   4.699 132.819  0.00  0.00    -0.273 N 
ATOM      5  H   LIG A   1      -9.681   7.469 131.358  0.00  0.00    +0.306 HD
ATOM      6  H   LIG A   1     -12.262   5.454 132.183  0.00  0.00    +0.258 HD
ATOM      7  H   LIG A   1     -10.773   4.597 133.626  0.00  0.00    +0.258 HD
ENDROOT
BRANCH   3   8
ATOM      8  C   LIG A   1     -12.216   7.409 131.543  0.00  0.00    +0.223 C 
BRANCH   8   9
ATOM      9  C   LIG A   1     -12.785   6.910 130.246  0.00  0.00    +0.008 C 
ATOM     10  C   LIG A   1     -13.067   7.628 129.141  0.00  0.00    -0.077 C 
ATOM     11  C   LIG A   1     -12.924   9.119 129.024  0.00  0.00    +0.038 C 
ATOM     12  C   LIG A   1     -13.587   6.950 127.899  0.00  0.00    +0.038 C 
ENDBRANCH   8   9
ENDBRANCH   3   8
BRANCH   4  13
ATOM     13  C   LIG A   1      -8.833   4.209 133.069  0.00  0.00    +0.223 C 
BRANCH  13  14
ATOM     14  C   LIG A   1      -8.437   4.647 134.451  0.00  0.00    +0.008 C 
ATOM     15  C   LIG A   1      -7.309   5.281 134.832  0.00  0.00    -0.077 C 
ATOM     16  C   LIG A   1      -6.202   5.711 133.908  0.00  0.00    +0.038 C 
ATOM     17  C   LIG A   1      -7.057   5.607 136.282  0.00  0.00    +0.038 C 
ENDBRANCH  13  14
ENDBRANCH   4  13
TORSDOF 4
ENDMDL
MODEL 6
REMARK VINA RESULT:      -5.6      1.875      2.117
REMARK  Name = NuBBE_43
REMARK  8 active torsions:
REMARK  status: ('A' for Active; 'I' for Inactive)
REMARK    1  A    between atoms: N_3  and  C_4
REMARK    2  A    between atoms: C_4  and  C_5
REMARK    3  A    between atoms: C_6  and  C_7
REMARK    4  A    between atoms: C_6  and  C_8
REMARK    5  A    between atoms: N_9  and  C_10
REMARK    6  A    between atoms: C_10  and  C_11
REMARK    7  A    between atoms: C_12  and  C_13
REMARK    8  A    between atoms: C_12  and  C_14
REMARK                            x       y       z     vdW  Elec       q    Type
REMARK                         _______ _______ _______ _____ _____    ______ ____
ROOT
ATOM      1  N   LIG A   1      -9.401   6.628 131.163  0.00  0.00    -0.130 NA
ATOM      2  C   LIG A   1     -10.298   6.097 131.910  0.00  0.00    +0.379 C 
ATOM      3  N   LIG A   1     -11.620   5.972 131.642  0.00  0.00    -0.273 N 
ATOM      4  N   LIG A   1     -10.015   5.595 133.144  0.00  0.00    -0.273 N 
ATOM      5  H   LIG A   1      -9.813   6.967 130.293  0.00  0.00    +0.306 HD
ATOM      6  H   LIG A   1     -12.025   5.164 132.097  0.00  0.00    +0.258 HD
ATOM      7  H   LIG A   1     -10.736   5.813 133.815  0.00  0.00    +0.258 HD
ENDROOT
BRANCH   3   8
ATOM      8  C   LIG A   1     -12.257   6.271 130.379  0.00  0.00    +0.223 C 
BRANCH   8   9
ATOM      9  C   LIG A   1     -12.754   7.684 130.471  0.00  0.00    +0.008 C 
ATOM     10  C   LIG A   1     -12.480   8.710 129.641  0.00  0.00    -0.077 C 
ATOM     11  C   LIG A   1     -11.541   8.641 128.470  0.00  0.00    +0.038 C 
ATOM     12  C   LIG A   1     -13.115  10.059 129.855  0.00  0.00    +0.038 C 
ENDBRANCH   8   9
ENDBRANCH   3   8
BRANCH   4  13
ATOM     13  C   LIG A   1      -8.684   5.776 133.696  0.00  0.00    +0.223 C 
BRANCH  13  14
ATOM     14  C   LIG A   1      -8.147   4.417 134.047  0.00  0.00    +0.008 C 
ATOM     15  C   LIG A   1      -7.466   3.561 133.256  0.00  0.00    -0.077 C 
ATOM     16  C   LIG A   1      -7.077   3.825 131.827  0.00  0.00    +0.038 C 
ATOM     17  C   LIG A   1      -7.039   2.210 133.768  0.00  0.00    +0.038 C 
ENDBRANCH  13  14
ENDBRANCH   4  13
TORSDOF 4
ENDMDL
MODEL 7
REMARK VINA RESULT:      -5.6      8.419     11.056
REMARK  Name = NuBBE_43
REMARK  8 active torsions:
REMARK  status: ('A' for Active; 'I' for Inactive)
REMARK    1  A    between atoms: N_3  and  C_4
REMARK    2  A    between atoms: C_4  and  C_5
REMARK    3  A    between atoms: C_6  and  C_7
REMARK    4  A    between atoms: C_6  and  C_8
REMARK    5  A    between atoms: N_9  and  C_10
REMARK    6  A    between atoms: C_10  and  C_11
REMARK    7  A    between atoms: C_12  and  C_13
REMARK    8  A    between atoms: C_12  and  C_14
REMARK                            x       y       z     vdW  Elec       q    Type
REMARK                         _______ _______ _______ _____ _____    ______ ____
ROOT
ATOM      1  N   LIG A   1      -9.761   2.137 124.648  0.00  0.00    -0.130 NA
ATOM      2  C   LIG A   1      -8.950   1.323 124.078  0.00  0.00    +0.379 C 
ATOM      3  N   LIG A   1      -8.645   0.062 124.469  0.00  0.00    -0.273 N 
ATOM      4  N   LIG A   1      -8.237   1.662 122.968  0.00  0.00    -0.273 N 
ATOM      5  H   LIG A   1     -10.178   1.710 125.476  0.00  0.00    +0.306 HD
ATOM      6  H   LIG A   1      -8.389  -0.526 123.686  0.00  0.00    +0.258 HD
ATOM      7  H   LIG A   1      -7.292   1.310 123.005  0.00  0.00    +0.258 HD
ENDROOT
BRANCH   3   8
ATOM      8  C   LIG A   1      -9.303  -0.677 125.522  0.00  0.00    +0.223 C 
BRANCH   8   9
ATOM      9  C   LIG A   1      -8.642  -2.023 125.580  0.00  0.00    +0.008 C 
ATOM     10  C   LIG A   1      -8.716  -3.017 124.672  0.00  0.00    -0.077 C 
ATOM     11  C   LIG A   1      -9.556  -2.983 123.427  0.00  0.00    +0.038 C 
ATOM     12  C   LIG A   1      -7.938  -4.292 124.866  0.00  0.00    +0.038 C 
ENDBRANCH   8   9
ENDBRANCH   3   8
BRANCH   4  13
ATOM     13  C   LIG A   1      -8.292   3.027 122.479  0.00  0.00    +0.223 C 
BRANCH  13  14
ATOM     14  C   LIG A   1      -6.884   3.463 122.185  0.00  0.00    +0.008 C 
ATOM     15  C   LIG A   1      -6.383   3.929 121.022  0.00  0.00    -0.077 C 
ATOM     16  C   LIG A   1      -7.172   4.133 119.757  0.00  0.00    +0.038 C 
ATOM     17  C   LIG A   1      -4.923   4.282 120.895  0.00  0.00    +0.038 C 
ENDBRANCH  13  14
ENDBRANCH   4  13
TORSDOF 4
ENDMDL
MODEL 8
REMARK VINA RESULT:      -5.6      1.614      6.792
REMARK  Name = NuBBE_43
REMARK  8 active torsions:
REMARK  status: ('A' for Active; 'I' for Inactive)
REMARK    1  A    between atoms: N_3  and  C_4
REMARK    2  A    between atoms: C_4  and  C_5
REMARK    3  A    between atoms: C_6  and  C_7
REMARK    4  A    between atoms: C_6  and  C_8
REMARK    5  A    between atoms: N_9  and  C_10
REMARK    6  A    between atoms: C_10  and  C_11
REMARK    7  A    between atoms: C_12  and  C_13
REMARK    8  A    between atoms: C_12  and  C_14
REMARK                            x       y       z     vdW  Elec       q    Type
REMARK                         _______ _______ _______ _____ _____    ______ ____
ROOT
ATOM      1  N   LIG A   1      -9.470   6.510 131.155  0.00  0.00    -0.130 NA
ATOM      2  C   LIG A   1     -10.285   6.066 132.040  0.00  0.00    +0.379 C 
ATOM      3  N   LIG A   1      -9.974   5.493 133.228  0.00  0.00    -0.273 N 
ATOM      4  N   LIG A   1     -11.636   6.092 131.865  0.00  0.00    -0.273 N 
ATOM      5  H   LIG A   1      -8.504   6.379 131.458  0.00  0.00    +0.306 HD
ATOM      6  H   LIG A   1     -10.692   5.648 133.923  0.00  0.00    +0.258 HD
ATOM      7  H   LIG A   1     -12.076   5.249 132.202  0.00  0.00    +0.258 HD
ENDROOT
BRANCH   3   8
ATOM      8  C   LIG A   1      -8.652   5.417 133.807  0.00  0.00    +0.223 C 
BRANCH   8   9
ATOM      9  C   LIG A   1      -8.310   3.959 133.910  0.00  0.00    +0.008 C 
ATOM     10  C   LIG A   1      -7.640   3.205 133.017  0.00  0.00    -0.077 C 
ATOM     11  C   LIG A   1      -7.157   3.684 131.677  0.00  0.00    +0.038 C 
ATOM     12  C   LIG A   1      -7.336   1.758 133.310  0.00  0.00    +0.038 C 
ENDBRANCH   8   9
ENDBRANCH   3   8
BRANCH   4  13
ATOM     13  C   LIG A   1     -12.178   6.516 130.587  0.00  0.00    +0.223 C 
BRANCH  13  14
ATOM     14  C   LIG A   1     -12.681   7.923 130.749  0.00  0.00    +0.008 C 
ATOM     15  C   LIG A   1     -12.770   8.888 129.810  0.00  0.00    -0.077 C 
ATOM     16  C   LIG A   1     -12.395   8.726 128.362  0.00  0.00    +0.038 C 
ATOM     17  C   LIG A   1     -13.263  10.267 130.164  0.00  0.00    +0.038 C 
ENDBRANCH  13  14
ENDBRANCH   4  13
TORSDOF 4
ENDMDL
MODEL 9
REMARK VINA RESULT:      -5.6      8.872      9.981
REMARK  Name = NuBBE_43
REMARK  8 active torsions:
REMARK  status: ('A' for Active; 'I' for Inactive)
REMARK    1  A    between atoms: N_3  and  C_4
REMARK    2  A    between atoms: C_4  and  C_5
REMARK    3  A    between atoms: C_6  and  C_7
REMARK    4  A    between atoms: C_6  and  C_8
REMARK    5  A    between atoms: N_9  and  C_10
REMARK    6  A    between atoms: C_10  and  C_11
REMARK    7  A    between atoms: C_12  and  C_13
REMARK    8  A    between atoms: C_12  and  C_14
REMARK                            x       y       z     vdW  Elec       q    Type
REMARK                         _______ _______ _______ _____ _____    ______ ____
ROOT
ATOM      1  N   LIG A   1      -8.796   2.477 124.296  0.00  0.00    -0.130 NA
ATOM      2  C   LIG A   1      -7.947   1.722 123.701  0.00  0.00    +0.379 C 
ATOM      3  N   LIG A   1      -7.021   2.093 122.785  0.00  0.00    -0.273 N 
ATOM      4  N   LIG A   1      -7.895   0.377 123.912  0.00  0.00    -0.273 N 
ATOM      5  H   LIG A   1      -8.695   3.445 123.988  0.00  0.00    +0.306 HD
ATOM      6  H   LIG A   1      -6.205   1.494 122.806  0.00  0.00    +0.258 HD
ATOM      7  H   LIG A   1      -7.732  -0.132 123.056  0.00  0.00    +0.258 HD
ENDROOT
BRANCH   3   8
ATOM      8  C   LIG A   1      -6.698   3.452 122.415  0.00  0.00    +0.223 C 
BRANCH   8   9
ATOM      9  C   LIG A   1      -7.272   3.673 121.046  0.00  0.00    +0.008 C 
ATOM     10  C   LIG A   1      -6.697   4.304 120.003  0.00  0.00    -0.077 C 
ATOM     11  C   LIG A   1      -5.358   4.986 120.043  0.00  0.00    +0.038 C 
ATOM     12  C   LIG A   1      -7.401   4.388 118.674  0.00  0.00    +0.038 C 
ENDBRANCH   8   9
ENDBRANCH   3   8
BRANCH   4  13
ATOM     13  C   LIG A   1      -8.911  -0.252 124.736  0.00  0.00    +0.223 C 
BRANCH  13  14
ATOM     14  C   LIG A   1      -8.418  -1.625 125.098  0.00  0.00    +0.008 C 
ATOM     15  C   LIG A   1      -8.652  -2.789 124.457  0.00  0.00    -0.077 C 
ATOM     16  C   LIG A   1      -9.460  -2.938 123.196  0.00  0.00    +0.038 C 
ATOM     17  C   LIG A   1      -8.108  -4.089 124.992  0.00  0.00    +0.038 C 
ENDBRANCH  13  14
ENDBRANCH   4  13
TORSDOF 4
ENDMDL
