MODEL 1
REMARK VINA RESULT:      -5.6      0.000      0.000
REMARK  Name = NuBBE_934
REMARK  3 active torsions:
REMARK  status: ('A' for Active; 'I' for Inactive)
REMARK    1  A    between atoms: C_1  and  N_2
REMARK    2  A    between atoms: C_5  and  O_9
REMARK    3  A    between atoms: O_9  and  C_10
REMARK                            x       y       z     vdW  Elec       q    Type
REMARK                         _______ _______ _______ _____ _____    ______ ____
ROOT
ATOM      1  C   LIG A   1     -10.515   7.215 126.594  0.00  0.00    +0.152 C 
ATOM      2  N   LIG A   1     -10.574   7.024 128.034  0.00  0.00    -0.311 N 
ATOM      3  C   LIG A   1     -11.490   7.789 128.821  0.00  0.00    +0.055 A 
ATOM      4  C   LIG A   1     -11.535   7.592 130.213  0.00  0.00    +0.040 A 
ATOM      5  C   LIG A   1     -10.638   6.604 130.844  0.00  0.00    +0.134 A 
ATOM      6  C   LIG A   1      -9.794   5.908 130.071  0.00  0.00    +0.116 A 
ATOM      7  C   LIG A   1      -9.725   6.090 128.605  0.00  0.00    +0.255 A 
ATOM      8  O   LIG A   1      -8.918   5.404 127.979  0.00  0.00    -0.268 OA
ATOM      9  C   LIG A   1     -12.438   8.345 130.987  0.00  0.00    +0.013 A 
ATOM     10  C   LIG A   1     -13.286   9.280 130.393  0.00  0.00    +0.001 A 
ATOM     11  C   LIG A   1     -13.241   9.474 129.019  0.00  0.00    +0.002 A 
ATOM     12  C   LIG A   1     -12.351   8.735 128.237  0.00  0.00    +0.026 A 
ENDROOT
BRANCH   5  13
ATOM     13  O   LIG A   1     -10.764   6.494 132.213  0.00  0.00    -0.494 OA
ATOM     14  C   LIG A   1      -9.738   5.814 132.926  0.00  0.00    +0.277 C 
ENDBRANCH   5  13
TORSDOF 1
ENDMDL
MODEL 2
REMARK VINA RESULT:      -5.5      6.981      9.178
REMARK  Name = NuBBE_934
REMARK  3 active torsions:
REMARK  status: ('A' for Active; 'I' for Inactive)
REMARK    1  A    between atoms: C_1  and  N_2
REMARK    2  A    between atoms: C_5  and  O_9
REMARK    3  A    between atoms: O_9  and  C_10
REMARK                            x       y       z     vdW  Elec       q    Type
REMARK                         _______ _______ _______ _____ _____    ______ ____
ROOT
ATOM      1  C   LIG A   1      -5.826   4.306 126.050  0.00  0.00    +0.152 C 
ATOM      2  N   LIG A   1      -6.759   3.731 125.094  0.00  0.00    -0.311 N 
ATOM      3  C   LIG A   1      -6.476   3.786 123.695  0.00  0.00    +0.055 A 
ATOM      4  C   LIG A   1      -7.389   3.225 122.783  0.00  0.00    +0.040 A 
ATOM      5  C   LIG A   1      -8.624   2.589 123.280  0.00  0.00    +0.134 A 
ATOM      6  C   LIG A   1      -8.852   2.557 124.599  0.00  0.00    +0.116 A 
ATOM      7  C   LIG A   1      -7.912   3.136 125.583  0.00  0.00    +0.255 A 
ATOM      8  O   LIG A   1      -8.207   3.058 126.774  0.00  0.00    -0.268 OA
ATOM      9  C   LIG A   1      -7.108   3.280 121.405  0.00  0.00    +0.013 A 
ATOM     10  C   LIG A   1      -5.941   3.882 120.934  0.00  0.00    +0.001 A 
ATOM     11  C   LIG A   1      -5.040   4.435 121.834  0.00  0.00    +0.002 A 
ATOM     12  C   LIG A   1      -5.304   4.389 123.204  0.00  0.00    +0.026 A 
ENDROOT
BRANCH   5  13
ATOM     13  O   LIG A   1      -9.448   2.074 122.300  0.00  0.00    -0.494 OA
ATOM     14  C   LIG A   1     -10.162   0.879 122.590  0.00  0.00    +0.277 C 
ENDBRANCH   5  13
TORSDOF 1
ENDMDL
MODEL 3
REMARK VINA RESULT:      -5.4      7.477      9.045
REMARK  Name = NuBBE_934
REMARK  3 active torsions:
REMARK  status: ('A' for Active; 'I' for Inactive)
REMARK    1  A    between atoms: C_1  and  N_2
REMARK    2  A    between atoms: C_5  and  O_9
REMARK    3  A    between atoms: O_9  and  C_10
REMARK                            x       y       z     vdW  Elec       q    Type
REMARK                         _______ _______ _______ _____ _____    ______ ____
ROOT
ATOM      1  C   LIG A   1      -9.270   2.243 122.580  0.00  0.00    +0.152 C 
ATOM      2  N   LIG A   1      -8.161   2.818 123.325  0.00  0.00    -0.311 N 
ATOM      3  C   LIG A   1      -7.055   3.397 122.629  0.00  0.00    +0.055 A 
ATOM      4  C   LIG A   1      -5.990   3.950 123.364  0.00  0.00    +0.040 A 
ATOM      5  C   LIG A   1      -6.025   3.923 124.839  0.00  0.00    +0.134 A 
ATOM      6  C   LIG A   1      -7.080   3.371 125.453  0.00  0.00    +0.116 A 
ATOM      7  C   LIG A   1      -8.215   2.784 124.709  0.00  0.00    +0.255 A 
ATOM      8  O   LIG A   1      -9.140   2.301 125.361  0.00  0.00    -0.268 OA
ATOM      9  C   LIG A   1      -4.903   4.520 122.677  0.00  0.00    +0.013 A 
ATOM     10  C   LIG A   1      -4.867   4.546 121.283  0.00  0.00    +0.001 A 
ATOM     11  C   LIG A   1      -5.919   4.001 120.558  0.00  0.00    +0.002 A 
ATOM     12  C   LIG A   1      -7.005   3.431 121.224  0.00  0.00    +0.026 A 
ENDROOT
BRANCH   5  13
ATOM     13  O   LIG A   1      -4.929   4.488 125.457  0.00  0.00    -0.494 OA
ATOM     14  C   LIG A   1      -4.041   3.627 126.160  0.00  0.00    +0.277 C 
ENDBRANCH   5  13
TORSDOF 1
ENDMDL
MODEL 4
REMARK VINA RESULT:      -5.4      9.395     11.294
REMARK  Name = NuBBE_934
REMARK  3 active torsions:
REMARK  status: ('A' for Active; 'I' for Inactive)
REMARK    1  A    between atoms: C_1  and  N_2
REMARK    2  A    between atoms: C_5  and  O_9
REMARK    3  A    between atoms: O_9  and  C_10
REMARK                            x       y       z     vdW  Elec       q    Type
REMARK                         _______ _______ _______ _____ _____    ______ ____
ROOT
ATOM      1  C   LIG A   1      -9.222  -0.224 123.049  0.00  0.00    +0.152 C 
ATOM      2  N   LIG A   1      -8.526  -0.791 124.194  0.00  0.00    -0.311 N 
ATOM      3  C   LIG A   1      -7.328  -1.545 124.002  0.00  0.00    +0.055 A 
ATOM      4  C   LIG A   1      -6.666  -2.086 125.120  0.00  0.00    +0.040 A 
ATOM      5  C   LIG A   1      -7.216  -1.871 126.473  0.00  0.00    +0.134 A 
ATOM      6  C   LIG A   1      -8.341  -1.158 126.609  0.00  0.00    +0.116 A 
ATOM      7  C   LIG A   1      -9.059  -0.574 125.455  0.00  0.00    +0.255 A 
ATOM      8  O   LIG A   1     -10.084   0.066 125.680  0.00  0.00    -0.268 OA
ATOM      9  C   LIG A   1      -5.486  -2.828 124.929  0.00  0.00    +0.013 A 
ATOM     10  C   LIG A   1      -4.965  -3.033 123.652  0.00  0.00    +0.001 A 
ATOM     11  C   LIG A   1      -5.618  -2.499 122.549  0.00  0.00    +0.002 A 
ATOM     12  C   LIG A   1      -6.790  -1.760 122.721  0.00  0.00    +0.026 A 
ENDROOT
BRANCH   5  13
ATOM     13  O   LIG A   1      -6.490  -2.447 127.494  0.00  0.00    -0.494 OA
ATOM     14  C   LIG A   1      -7.160  -2.717 128.719  0.00  0.00    +0.277 C 
ENDBRANCH   5  13
TORSDOF 1
ENDMDL
MODEL 5
REMARK VINA RESULT:      -5.4      8.758     10.756
REMARK  Name = NuBBE_934
REMARK  3 active torsions:
REMARK  status: ('A' for Active; 'I' for Inactive)
REMARK    1  A    between atoms: C_1  and  N_2
REMARK    2  A    between atoms: C_5  and  O_9
REMARK    3  A    between atoms: O_9  and  C_10
REMARK                            x       y       z     vdW  Elec       q    Type
REMARK                         _______ _______ _______ _____ _____    ______ ____
ROOT
ATOM      1  C   LIG A   1      -6.535   0.609 127.691  0.00  0.00    +0.152 C 
ATOM      2  N   LIG A   1      -7.356  -0.267 126.870  0.00  0.00    -0.311 N 
ATOM      3  C   LIG A   1      -7.834  -1.504 127.401  0.00  0.00    +0.055 A 
ATOM      4  C   LIG A   1      -8.627  -2.341 126.594  0.00  0.00    +0.040 A 
ATOM      5  C   LIG A   1      -8.955  -1.933 125.214  0.00  0.00    +0.134 A 
ATOM      6  C   LIG A   1      -8.487  -0.765 124.755  0.00  0.00    +0.116 A 
ATOM      7  C   LIG A   1      -7.653   0.137 125.578  0.00  0.00    +0.255 A 
ATOM      8  O   LIG A   1      -7.271   1.190 125.070  0.00  0.00    -0.268 OA
ATOM      9  C   LIG A   1      -9.097  -3.559 127.118  0.00  0.00    +0.013 A 
ATOM     10  C   LIG A   1      -8.788  -3.947 128.422  0.00  0.00    +0.001 A 
ATOM     11  C   LIG A   1      -8.006  -3.121 129.218  0.00  0.00    +0.002 A 
ATOM     12  C   LIG A   1      -7.531  -1.909 128.713  0.00  0.00    +0.026 A 
ENDROOT
BRANCH   5  13
ATOM     13  O   LIG A   1      -9.735  -2.828 124.513  0.00  0.00    -0.494 OA
ATOM     14  C   LIG A   1      -9.344  -3.157 123.185  0.00  0.00    +0.277 C 
ENDBRANCH   5  13
TORSDOF 1
ENDMDL
MODEL 6
REMARK VINA RESULT:      -5.3      9.956     11.245
REMARK  Name = NuBBE_934
REMARK  3 active torsions:
REMARK  status: ('A' for Active; 'I' for Inactive)
REMARK    1  A    between atoms: C_1  and  N_2
REMARK    2  A    between atoms: C_5  and  O_9
REMARK    3  A    between atoms: O_9  and  C_10
REMARK                            x       y       z     vdW  Elec       q    Type
REMARK                         _______ _______ _______ _____ _____    ______ ____
ROOT
ATOM      1  C   LIG A   1      -9.390  -3.429 123.850  0.00  0.00    +0.152 C 
ATOM      2  N   LIG A   1      -8.314  -2.699 124.501  0.00  0.00    -0.311 N 
ATOM      3  C   LIG A   1      -8.134  -2.800 125.915  0.00  0.00    +0.055 A 
ATOM      4  C   LIG A   1      -7.088  -2.088 126.530  0.00  0.00    +0.040 A 
ATOM      5  C   LIG A   1      -6.193  -1.246 125.712  0.00  0.00    +0.134 A 
ATOM      6  C   LIG A   1      -6.395  -1.179 124.390  0.00  0.00    +0.116 A 
ATOM      7  C   LIG A   1      -7.484  -1.917 123.714  0.00  0.00    +0.255 A 
ATOM      8  O   LIG A   1      -7.590  -1.793 122.495  0.00  0.00    -0.268 OA
ATOM      9  C   LIG A   1      -6.912  -2.189 127.923  0.00  0.00    +0.013 A 
ATOM     10  C   LIG A   1      -7.757  -2.982 128.698  0.00  0.00    +0.001 A 
ATOM     11  C   LIG A   1      -8.789  -3.685 128.091  0.00  0.00    +0.002 A 
ATOM     12  C   LIG A   1      -8.978  -3.596 126.710  0.00  0.00    +0.026 A 
ENDROOT
BRANCH   5  13
ATOM     13  O   LIG A   1      -5.204  -0.592 126.418  0.00  0.00    -0.494 OA
ATOM     14  C   LIG A   1      -5.138   0.826 126.314  0.00  0.00    +0.277 C 
ENDBRANCH   5  13
TORSDOF 1
ENDMDL
MODEL 7
REMARK VINA RESULT:      -5.3      7.858      9.892
REMARK  Name = NuBBE_934
REMARK  3 active torsions:
REMARK  status: ('A' for Active; 'I' for Inactive)
REMARK    1  A    between atoms: C_1  and  N_2
REMARK    2  A    between atoms: C_5  and  O_9
REMARK    3  A    between atoms: O_9  and  C_10
REMARK                            x       y       z     vdW  Elec       q    Type
REMARK                         _______ _______ _______ _____ _____    ______ ____
ROOT
ATOM      1  C   LIG A   1      -9.716   1.174 122.857  0.00  0.00    +0.152 C 
ATOM      2  N   LIG A   1      -9.252   0.608 124.114  0.00  0.00    -0.311 N 
ATOM      3  C   LIG A   1      -9.022  -0.797 124.226  0.00  0.00    +0.055 A 
ATOM      4  C   LIG A   1      -8.573  -1.329 125.449  0.00  0.00    +0.040 A 
ATOM      5  C   LIG A   1      -8.347  -0.432 126.599  0.00  0.00    +0.134 A 
ATOM      6  C   LIG A   1      -8.574   0.880 126.453  0.00  0.00    +0.116 A 
ATOM      7  C   LIG A   1      -9.044   1.469 125.181  0.00  0.00    +0.255 A 
ATOM      8  O   LIG A   1      -9.223   2.685 125.143  0.00  0.00    -0.268 OA
ATOM      9  C   LIG A   1      -8.346  -2.713 125.557  0.00  0.00    +0.013 A 
ATOM     10  C   LIG A   1      -8.560  -3.562 124.471  0.00  0.00    +0.001 A 
ATOM     11  C   LIG A   1      -9.003  -3.038 123.264  0.00  0.00    +0.002 A 
ATOM     12  C   LIG A   1      -9.233  -1.666 123.141  0.00  0.00    +0.026 A 
ENDROOT
BRANCH   5  13
ATOM     13  O   LIG A   1      -7.910  -1.059 127.748  0.00  0.00    -0.494 OA
ATOM     14  C   LIG A   1      -7.380  -0.248 128.790  0.00  0.00    +0.277 C 
ENDBRANCH   5  13
TORSDOF 1
ENDMDL
MODEL 8
REMARK VINA RESULT:      -5.2      7.868      9.192
REMARK  Name = NuBBE_934
REMARK  3 active torsions:
REMARK  status: ('A' for Active; 'I' for Inactive)
REMARK    1  A    between atoms: C_1  and  N_2
REMARK    2  A    between atoms: C_5  and  O_9
REMARK    3  A    between atoms: O_9  and  C_10
REMARK                            x       y       z     vdW  Elec       q    Type
REMARK                         _______ _______ _______ _____ _____    ______ ____
ROOT
ATOM      1  C   LIG A   1      -8.986   1.173 126.293  0.00  0.00    +0.152 C 
ATOM      2  N   LIG A   1      -8.686   1.791 125.011  0.00  0.00    -0.311 N 
ATOM      3  C   LIG A   1      -7.496   2.565 124.850  0.00  0.00    +0.055 A 
ATOM      4  C   LIG A   1      -7.220   3.156 123.603  0.00  0.00    +0.040 A 
ATOM      5  C   LIG A   1      -8.161   2.973 122.481  0.00  0.00    +0.134 A 
ATOM      6  C   LIG A   1      -9.265   2.239 122.673  0.00  0.00    +0.116 A 
ATOM      7  C   LIG A   1      -9.582   1.604 123.970  0.00  0.00    +0.255 A 
ATOM      8  O   LIG A   1     -10.619   0.948 124.050  0.00  0.00    -0.268 OA
ATOM      9  C   LIG A   1      -6.048   3.918 123.447  0.00  0.00    +0.013 A 
ATOM     10  C   LIG A   1      -5.158   4.093 124.507  0.00  0.00    +0.001 A 
ATOM     11  C   LIG A   1      -5.430   3.510 125.737  0.00  0.00    +0.002 A 
ATOM     12  C   LIG A   1      -6.590   2.751 125.909  0.00  0.00    +0.026 A 
ENDROOT
BRANCH   5  13
ATOM     13  O   LIG A   1      -7.794   3.598 121.307  0.00  0.00    -0.494 OA
ATOM     14  C   LIG A   1      -8.814   3.889 120.359  0.00  0.00    +0.277 C 
ENDBRANCH   5  13
TORSDOF 1
ENDMDL
MODEL 9
REMARK VINA RESULT:      -5.2      8.850     10.619
REMARK  Name = NuBBE_934
REMARK  3 active torsions:
REMARK  status: ('A' for Active; 'I' for Inactive)
REMARK    1  A    between atoms: C_1  and  N_2
REMARK    2  A    between atoms: C_5  and  O_9
REMARK    3  A    between atoms: O_9  and  C_10
REMARK                            x       y       z     vdW  Elec       q    Type
REMARK                         _______ _______ _______ _____ _____    ______ ____
ROOT
ATOM      1  C   LIG A   1      -9.168   2.225 123.482  0.00  0.00    +0.152 C 
ATOM      2  N   LIG A   1      -8.718   0.848 123.609  0.00  0.00    -0.311 N 
ATOM      3  C   LIG A   1      -7.552   0.543 124.375  0.00  0.00    +0.055 A 
ATOM      4  C   LIG A   1      -7.130  -0.794 124.488  0.00  0.00    +0.040 A 
ATOM      5  C   LIG A   1      -7.892  -1.864 123.815  0.00  0.00    +0.134 A 
ATOM      6  C   LIG A   1      -8.981  -1.536 123.106  0.00  0.00    +0.116 A 
ATOM      7  C   LIG A   1      -9.451  -0.141 122.970  0.00  0.00    +0.255 A 
ATOM      8  O   LIG A   1     -10.462   0.062 122.299  0.00  0.00    -0.268 OA
ATOM      9  C   LIG A   1      -5.981  -1.093 125.244  0.00  0.00    +0.013 A 
ATOM     10  C   LIG A   1      -5.258  -0.083 125.880  0.00  0.00    +0.001 A 
ATOM     11  C   LIG A   1      -5.675   1.236 125.769  0.00  0.00    +0.002 A 
ATOM     12  C   LIG A   1      -6.813   1.549 125.023  0.00  0.00    +0.026 A 
ENDROOT
BRANCH   5  13
ATOM     13  O   LIG A   1      -7.389  -3.136 123.990  0.00  0.00    -0.494 OA
ATOM     14  C   LIG A   1      -8.173  -4.069 124.723  0.00  0.00    +0.277 C 
ENDBRANCH   5  13
TORSDOF 1
ENDMDL
