MODEL 1
REMARK VINA RESULT:      -7.4      0.000      0.000
REMARK  Name = NuBBE_2307
REMARK  8 active torsions:
REMARK  status: ('A' for Active; 'I' for Inactive)
REMARK    1  A    between atoms: C_5  and  C_6
REMARK    2  A    between atoms: C_8  and  O_23
REMARK    3  A    between atoms: C_9  and  O_22
REMARK    4  A    between atoms: C_10  and  C_19
REMARK    5  A    between atoms: C_11  and  C_13
REMARK    6  A    between atoms: C_15  and  O_18
REMARK    7  A    between atoms: C_19  and  C_20
REMARK    8  A    between atoms: O_23  and  C_24
REMARK                            x       y       z     vdW  Elec       q    Type
REMARK                         _______ _______ _______ _____ _____    ______ ____
ROOT
ATOM      1  C   LIG A   1      -7.114  -1.119 126.728  0.00  0.00    +0.065 C 
ATOM      2  C   LIG A   1      -8.292  -1.765 125.931  0.00  0.00    +0.168 C 
ATOM      3  C   LIG A   1      -7.516  -2.638 124.920  0.00  0.00    +0.165 C 
ATOM      4  C   LIG A   1      -6.513  -1.617 124.332  0.00  0.00    +0.028 C 
ATOM      5  C   LIG A   1      -6.016  -0.865 125.627  0.00  0.00    +0.009 C 
ATOM      6  C   LIG A   1      -5.743   0.636 125.462  0.00  0.00    +0.009 C 
ATOM      7  C   LIG A   1      -7.326  -0.730 123.405  0.00  0.00    +0.032 C 
ATOM      8  C   LIG A   1      -8.544  -0.290 123.753  0.00  0.00    +0.159 C 
ATOM      9  C   LIG A   1      -9.041  -0.635 125.132  0.00  0.00    +0.231 C 
ATOM     10  O   LIG A   1      -9.968   0.024 125.616  0.00  0.00    -0.286 OA
ENDROOT
BRANCH   1  15
ATOM     11  C   LIG A   1      -4.587  -3.063 128.968  0.00  0.00    +0.050 A 
ATOM     12  C   LIG A   1      -5.298  -3.067 130.141  0.00  0.00    +0.166 A 
ATOM     13  C   LIG A   1      -6.568  -2.551 130.210  0.00  0.00    +0.167 A 
ATOM     14  C   LIG A   1      -7.181  -1.965 129.116  0.00  0.00    +0.053 A 
ATOM     15  C   LIG A   1      -6.477  -1.899 127.896  0.00  0.00    -0.037 A 
ATOM     16  C   LIG A   1      -5.193  -2.494 127.840  0.00  0.00    +0.008 A 
ATOM     17  O   LIG A   1      -7.103  -2.672 131.455  0.00  0.00    -0.453 OA
ATOM     18  C   LIG A   1      -6.005  -3.286 132.165  0.00  0.00    +0.466 C 
ATOM     19  O   LIG A   1      -4.863  -3.559 131.329  0.00  0.00    -0.453 OA
ENDBRANCH   1  15
BRANCH   8  20
ATOM     20  O   LIG A   1      -9.320   0.479 122.915  0.00  0.00    -0.503 OA
ATOM     21  H   LIG A   1      -9.936  -0.105 122.443  0.00  0.00    +0.292 HD
ENDBRANCH   8  20
BRANCH   3  22
ATOM     22  O   LIG A   1      -8.354  -3.281 123.962  0.00  0.00    -0.388 OA
ATOM     23  H   LIG A   1      -7.791  -3.445 123.180  0.00  0.00    +0.210 HD
ENDBRANCH   3  22
BRANCH   2  24
ATOM     24  O   LIG A   1      -9.156  -2.601 126.701  0.00  0.00    -0.365 OA
ATOM     25  C   LIG A   1      -8.731  -3.957 126.836  0.00  0.00    +0.195 C 
ENDBRANCH   2  24
BRANCH   4  26
ATOM     26  C   LIG A   1      -5.373  -2.358 123.588  0.00  0.00    +0.040 C 
BRANCH  26  27
ATOM     27  C   LIG A   1      -4.883  -3.613 124.264  0.00  0.00    -0.034 C 
ATOM     28  C   LIG A   1      -4.432  -4.689 123.605  0.00  0.00    +0.004 C 
ENDBRANCH  26  27
ENDBRANCH   4  26
TORSDOF 6
ENDMDL
MODEL 2
REMARK VINA RESULT:      -7.3      2.841      4.728
REMARK  Name = NuBBE_2307
REMARK  8 active torsions:
REMARK  status: ('A' for Active; 'I' for Inactive)
REMARK    1  A    between atoms: C_5  and  C_6
REMARK    2  A    between atoms: C_8  and  O_23
REMARK    3  A    between atoms: C_9  and  O_22
REMARK    4  A    between atoms: C_10  and  C_19
REMARK    5  A    between atoms: C_11  and  C_13
REMARK    6  A    between atoms: C_15  and  O_18
REMARK    7  A    between atoms: C_19  and  C_20
REMARK    8  A    between atoms: O_23  and  C_24
REMARK                            x       y       z     vdW  Elec       q    Type
REMARK                         _______ _______ _______ _____ _____    ______ ____
ROOT
ATOM      1  C   LIG A   1      -7.047   0.472 125.035  0.00  0.00    +0.065 C 
ATOM      2  C   LIG A   1      -7.697  -0.332 126.207  0.00  0.00    +0.168 C 
ATOM      3  C   LIG A   1      -6.619  -1.410 126.454  0.00  0.00    +0.165 C 
ATOM      4  C   LIG A   1      -6.398  -1.963 125.027  0.00  0.00    +0.028 C 
ATOM      5  C   LIG A   1      -6.343  -0.639 124.169  0.00  0.00    +0.009 C 
ATOM      6  C   LIG A   1      -6.971  -0.725 122.772  0.00  0.00    +0.009 C 
ATOM      7  C   LIG A   1      -7.617  -2.818 124.723  0.00  0.00    +0.032 C 
ATOM      8  C   LIG A   1      -8.850  -2.415 125.060  0.00  0.00    +0.159 C 
ATOM      9  C   LIG A   1      -8.993  -1.046 125.671  0.00  0.00    +0.231 C 
ATOM     10  O   LIG A   1     -10.103  -0.502 125.668  0.00  0.00    -0.286 OA
ENDROOT
BRANCH   1  15
ATOM     11  C   LIG A   1      -5.177   3.887 125.187  0.00  0.00    +0.050 A 
ATOM     12  C   LIG A   1      -4.288   3.600 126.190  0.00  0.00    +0.166 A 
ATOM     13  C   LIG A   1      -4.216   2.348 126.747  0.00  0.00    +0.167 A 
ATOM     14  C   LIG A   1      -5.060   1.324 126.358  0.00  0.00    +0.053 A 
ATOM     15  C   LIG A   1      -6.021   1.577 125.358  0.00  0.00    -0.037 A 
ATOM     16  C   LIG A   1      -6.030   2.861 124.759  0.00  0.00    +0.008 A 
ATOM     17  O   LIG A   1      -3.255   2.269 127.708  0.00  0.00    -0.453 OA
ATOM     18  C   LIG A   1      -2.764   3.627 127.715  0.00  0.00    +0.466 C 
ATOM     19  O   LIG A   1      -3.401   4.473 126.737  0.00  0.00    -0.453 OA
ENDBRANCH   1  15
BRANCH   8  20
ATOM     20  O   LIG A   1      -9.967  -3.188 124.836  0.00  0.00    -0.503 OA
ATOM     21  H   LIG A   1      -9.749  -4.111 125.041  0.00  0.00    +0.292 HD
ENDBRANCH   8  20
BRANCH   3  22
ATOM     22  O   LIG A   1      -6.999  -2.382 127.426  0.00  0.00    -0.388 OA
ATOM     23  H   LIG A   1      -7.694  -2.925 127.004  0.00  0.00    +0.210 HD
ENDBRANCH   3  22
BRANCH   2  24
ATOM     24  O   LIG A   1      -7.899   0.410 127.410  0.00  0.00    -0.365 OA
ATOM     25  C   LIG A   1      -8.692   1.588 127.274  0.00  0.00    +0.195 C 
ENDBRANCH   2  24
BRANCH   4  26
ATOM     26  C   LIG A   1      -5.080  -2.776 124.968  0.00  0.00    +0.040 C 
BRANCH  26  27
ATOM     27  C   LIG A   1      -4.833  -3.496 123.667  0.00  0.00    -0.034 C 
ATOM     28  C   LIG A   1      -4.327  -4.733 123.582  0.00  0.00    +0.004 C 
ENDBRANCH  26  27
ENDBRANCH   4  26
TORSDOF 6
ENDMDL
MODEL 3
REMARK VINA RESULT:      -7.2      8.236     11.020
REMARK  Name = NuBBE_2307
REMARK  8 active torsions:
REMARK  status: ('A' for Active; 'I' for Inactive)
REMARK    1  A    between atoms: C_5  and  C_6
REMARK    2  A    between atoms: C_8  and  O_23
REMARK    3  A    between atoms: C_9  and  O_22
REMARK    4  A    between atoms: C_10  and  C_19
REMARK    5  A    between atoms: C_11  and  C_13
REMARK    6  A    between atoms: C_15  and  O_18
REMARK    7  A    between atoms: C_19  and  C_20
REMARK    8  A    between atoms: O_23  and  C_24
REMARK                            x       y       z     vdW  Elec       q    Type
REMARK                         _______ _______ _______ _____ _____    ______ ____
ROOT
ATOM      1  C   LIG A   1      -7.640   6.104 132.338  0.00  0.00    +0.065 C 
ATOM      2  C   LIG A   1      -6.423   5.455 131.603  0.00  0.00    +0.168 C 
ATOM      3  C   LIG A   1      -6.815   3.962 131.652  0.00  0.00    +0.165 C 
ATOM      4  C   LIG A   1      -7.136   3.774 133.154  0.00  0.00    +0.028 C 
ATOM      5  C   LIG A   1      -7.986   5.065 133.470  0.00  0.00    +0.009 C 
ATOM      6  C   LIG A   1      -7.772   5.679 134.860  0.00  0.00    +0.009 C 
ATOM      7  C   LIG A   1      -5.792   3.758 133.863  0.00  0.00    +0.032 C 
ATOM      8  C   LIG A   1      -4.819   4.617 133.529  0.00  0.00    +0.159 C 
ATOM      9  C   LIG A   1      -5.135   5.655 132.484  0.00  0.00    +0.231 C 
ATOM     10  O   LIG A   1      -4.418   6.660 132.403  0.00  0.00    -0.286 OA
ENDROOT
BRANCH   1  15
ATOM     11  C   LIG A   1     -11.373   6.472 131.285  0.00  0.00    +0.050 A 
ATOM     12  C   LIG A   1     -11.205   7.251 130.169  0.00  0.00    +0.166 A 
ATOM     13  C   LIG A   1      -9.956   7.583 129.708  0.00  0.00    +0.167 A 
ATOM     14  C   LIG A   1      -8.805   7.187 130.364  0.00  0.00    +0.053 A 
ATOM     15  C   LIG A   1      -8.922   6.418 131.540  0.00  0.00    -0.037 A 
ATOM     16  C   LIG A   1     -10.222   6.039 131.957  0.00  0.00    +0.008 A 
ATOM     17  O   LIG A   1     -10.011   8.342 128.579  0.00  0.00    -0.453 OA
ATOM     18  C   LIG A   1     -11.439   8.479 128.413  0.00  0.00    +0.466 C 
ATOM     19  O   LIG A   1     -12.204   7.769 129.407  0.00  0.00    -0.453 OA
ENDBRANCH   1  15
BRANCH   8  20
ATOM     20  O   LIG A   1      -3.578   4.597 134.124  0.00  0.00    -0.503 OA
ATOM     21  H   LIG A   1      -3.168   3.734 133.954  0.00  0.00    +0.292 HD
ENDBRANCH   8  20
BRANCH   3  22
ATOM     22  O   LIG A   1      -5.809   3.092 131.136  0.00  0.00    -0.388 OA
ATOM     23  H   LIG A   1      -4.953   3.498 131.380  0.00  0.00    +0.210 HD
ENDBRANCH   3  22
BRANCH   2  24
ATOM     24  O   LIG A   1      -6.260   5.849 130.240  0.00  0.00    -0.365 OA
ATOM     25  C   LIG A   1      -5.002   5.516 129.656  0.00  0.00    +0.195 C 
ENDBRANCH   2  24
BRANCH   4  26
ATOM     26  C   LIG A   1      -7.930   2.460 133.369  0.00  0.00    +0.040 C 
BRANCH  26  27
ATOM     27  C   LIG A   1      -9.385   2.526 132.982  0.00  0.00    -0.034 C 
ATOM     28  C   LIG A   1      -9.900   1.922 131.902  0.00  0.00    +0.004 C 
ENDBRANCH  26  27
ENDBRANCH   4  26
TORSDOF 6
ENDMDL
MODEL 4
REMARK VINA RESULT:      -7.2      1.756      2.750
REMARK  Name = NuBBE_2307
REMARK  8 active torsions:
REMARK  status: ('A' for Active; 'I' for Inactive)
REMARK    1  A    between atoms: C_5  and  C_6
REMARK    2  A    between atoms: C_8  and  O_23
REMARK    3  A    between atoms: C_9  and  O_22
REMARK    4  A    between atoms: C_10  and  C_19
REMARK    5  A    between atoms: C_11  and  C_13
REMARK    6  A    between atoms: C_15  and  O_18
REMARK    7  A    between atoms: C_19  and  C_20
REMARK    8  A    between atoms: O_23  and  C_24
REMARK                            x       y       z     vdW  Elec       q    Type
REMARK                         _______ _______ _______ _____ _____    ______ ____
ROOT
ATOM      1  C   LIG A   1      -8.126  -1.481 125.965  0.00  0.00    +0.065 C 
ATOM      2  C   LIG A   1      -7.831  -1.851 124.476  0.00  0.00    +0.168 C 
ATOM      3  C   LIG A   1      -6.804  -0.760 124.102  0.00  0.00    +0.165 C 
ATOM      4  C   LIG A   1      -7.533   0.525 124.560  0.00  0.00    +0.028 C 
ATOM      5  C   LIG A   1      -8.101   0.094 125.968  0.00  0.00    +0.009 C 
ATOM      6  C   LIG A   1      -9.478   0.664 126.333  0.00  0.00    +0.009 C 
ATOM      7  C   LIG A   1      -8.622   0.769 123.529  0.00  0.00    +0.032 C 
ATOM      8  C   LIG A   1      -9.363  -0.239 123.047  0.00  0.00    +0.159 C 
ATOM      9  C   LIG A   1      -9.135  -1.610 123.629  0.00  0.00    +0.231 C 
ATOM     10  O   LIG A   1     -10.007  -2.474 123.483  0.00  0.00    -0.286 OA
ENDROOT
BRANCH   1  15
ATOM     11  C   LIG A   1      -4.972  -2.161 128.149  0.00  0.00    +0.050 A 
ATOM     12  C   LIG A   1      -5.582  -2.733 129.236  0.00  0.00    +0.166 A 
ATOM     13  C   LIG A   1      -6.933  -2.978 129.252  0.00  0.00    +0.167 A 
ATOM     14  C   LIG A   1      -7.754  -2.625 128.196  0.00  0.00    +0.053 A 
ATOM     15  C   LIG A   1      -7.182  -1.996 127.071  0.00  0.00    -0.037 A 
ATOM     16  C   LIG A   1      -5.777  -1.813 127.057  0.00  0.00    +0.008 A 
ATOM     17  O   LIG A   1      -7.333  -3.569 130.411  0.00  0.00    -0.453 OA
ATOM     18  C   LIG A   1      -6.083  -3.627 131.132  0.00  0.00    +0.466 C 
ATOM     19  O   LIG A   1      -4.963  -3.117 130.382  0.00  0.00    -0.453 OA
ENDBRANCH   1  15
BRANCH   8  20
ATOM     20  O   LIG A   1     -10.326  -0.054 122.082  0.00  0.00    -0.503 OA
ATOM     21  H   LIG A   1     -10.871   0.710 122.332  0.00  0.00    +0.292 HD
ENDBRANCH   8  20
BRANCH   3  22
ATOM     22  O   LIG A   1      -6.425  -0.782 122.727  0.00  0.00    -0.388 OA
ATOM     23  H   LIG A   1      -7.258  -0.873 122.221  0.00  0.00    +0.210 HD
ENDBRANCH   3  22
BRANCH   2  24
ATOM     24  O   LIG A   1      -7.240  -3.135 124.278  0.00  0.00    -0.365 OA
ATOM     25  C   LIG A   1      -8.009  -4.240 124.753  0.00  0.00    +0.195 C 
ENDBRANCH   2  24
BRANCH   4  26
ATOM     26  C   LIG A   1      -6.531   1.704 124.647  0.00  0.00    +0.040 C 
BRANCH  26  27
ATOM     27  C   LIG A   1      -5.945   1.941 126.016  0.00  0.00    -0.034 C 
ATOM     28  C   LIG A   1      -4.663   1.711 126.330  0.00  0.00    +0.004 C 
ENDBRANCH  26  27
ENDBRANCH   4  26
TORSDOF 6
ENDMDL
MODEL 5
REMARK VINA RESULT:      -7.2      2.358      3.510
REMARK  Name = NuBBE_2307
REMARK  8 active torsions:
REMARK  status: ('A' for Active; 'I' for Inactive)
REMARK    1  A    between atoms: C_5  and  C_6
REMARK    2  A    between atoms: C_8  and  O_23
REMARK    3  A    between atoms: C_9  and  O_22
REMARK    4  A    between atoms: C_10  and  C_19
REMARK    5  A    between atoms: C_11  and  C_13
REMARK    6  A    between atoms: C_15  and  O_18
REMARK    7  A    between atoms: C_19  and  C_20
REMARK    8  A    between atoms: O_23  and  C_24
REMARK                            x       y       z     vdW  Elec       q    Type
REMARK                         _______ _______ _______ _____ _____    ______ ____
ROOT
ATOM      1  C   LIG A   1      -7.573   0.258 125.838  0.00  0.00    +0.065 C 
ATOM      2  C   LIG A   1      -8.720   1.320 125.827  0.00  0.00    +0.168 C 
ATOM      3  C   LIG A   1      -9.779   0.598 124.966  0.00  0.00    +0.165 C 
ATOM      4  C   LIG A   1      -8.948   0.191 123.726  0.00  0.00    +0.028 C 
ATOM      5  C   LIG A   1      -7.622  -0.354 124.388  0.00  0.00    +0.009 C 
ATOM      6  C   LIG A   1      -6.326  -0.055 123.623  0.00  0.00    +0.009 C 
ATOM      7  C   LIG A   1      -8.735   1.470 122.935  0.00  0.00    +0.032 C 
ATOM      8  C   LIG A   1      -8.432   2.624 123.546  0.00  0.00    +0.159 C 
ATOM      9  C   LIG A   1      -8.225   2.588 125.038  0.00  0.00    +0.231 C 
ATOM     10  O   LIG A   1      -7.614   3.517 125.579  0.00  0.00    -0.286 OA
ENDROOT
BRANCH   1  15
ATOM     11  C   LIG A   1      -8.348  -3.126 127.606  0.00  0.00    +0.050 A 
ATOM     12  C   LIG A   1      -7.451  -3.039 128.640  0.00  0.00    +0.166 A 
ATOM     13  C   LIG A   1      -6.684  -1.917 128.829  0.00  0.00    +0.167 A 
ATOM     14  C   LIG A   1      -6.743  -0.835 127.968  0.00  0.00    +0.053 A 
ATOM     15  C   LIG A   1      -7.621  -0.890 126.866  0.00  0.00    -0.037 A 
ATOM     16  C   LIG A   1      -8.443  -2.036 126.732  0.00  0.00    +0.008 A 
ATOM     17  O   LIG A   1      -5.878  -2.025 129.921  0.00  0.00    -0.453 OA
ATOM     18  C   LIG A   1      -6.201  -3.360 130.366  0.00  0.00    +0.466 C 
ATOM     19  O   LIG A   1      -7.216  -4.002 129.569  0.00  0.00    -0.453 OA
ENDBRANCH   1  15
BRANCH   8  20
ATOM     20  O   LIG A   1      -8.277   3.806 122.859  0.00  0.00    -0.503 OA
ATOM     21  H   LIG A   1      -7.550   3.702 122.224  0.00  0.00    +0.292 HD
ENDBRANCH   8  20
BRANCH   3  22
ATOM     22  O   LIG A   1     -10.927   1.397 124.687  0.00  0.00    -0.388 OA
ATOM     23  H   LIG A   1     -11.056   1.352 123.718  0.00  0.00    +0.210 HD
ENDBRANCH   3  22
BRANCH   2  24
ATOM     24  O   LIG A   1      -9.282   1.616 127.106  0.00  0.00    -0.365 OA
ATOM     25  C   LIG A   1      -8.383   2.203 128.046  0.00  0.00    +0.195 C 
ENDBRANCH   2  24
BRANCH   4  26
ATOM     26  C   LIG A   1      -9.703  -0.888 122.910  0.00  0.00    +0.040 C 
BRANCH  26  27
ATOM     27  C   LIG A   1      -9.061  -2.252 122.910  0.00  0.00    -0.034 C 
ATOM     28  C   LIG A   1      -9.605  -3.334 123.483  0.00  0.00    +0.004 C 
ENDBRANCH  26  27
ENDBRANCH   4  26
TORSDOF 6
ENDMDL
MODEL 6
REMARK VINA RESULT:      -7.1      3.100      6.647
REMARK  Name = NuBBE_2307
REMARK  8 active torsions:
REMARK  status: ('A' for Active; 'I' for Inactive)
REMARK    1  A    between atoms: C_5  and  C_6
REMARK    2  A    between atoms: C_8  and  O_23
REMARK    3  A    between atoms: C_9  and  O_22
REMARK    4  A    between atoms: C_10  and  C_19
REMARK    5  A    between atoms: C_11  and  C_13
REMARK    6  A    between atoms: C_15  and  O_18
REMARK    7  A    between atoms: C_19  and  C_20
REMARK    8  A    between atoms: O_23  and  C_24
REMARK                            x       y       z     vdW  Elec       q    Type
REMARK                         _______ _______ _______ _____ _____    ______ ____
ROOT
ATOM      1  C   LIG A   1      -7.454   1.084 124.787  0.00  0.00    +0.065 C 
ATOM      2  C   LIG A   1      -6.734   0.535 126.061  0.00  0.00    +0.168 C 
ATOM      3  C   LIG A   1      -5.708  -0.428 125.425  0.00  0.00    +0.165 C 
ATOM      4  C   LIG A   1      -6.610  -1.272 124.493  0.00  0.00    +0.028 C 
ATOM      5  C   LIG A   1      -7.522  -0.167 123.832  0.00  0.00    +0.009 C 
ATOM      6  C   LIG A   1      -8.976  -0.576 123.567  0.00  0.00    +0.009 C 
ATOM      7  C   LIG A   1      -7.380  -2.211 125.407  0.00  0.00    +0.032 C 
ATOM      8  C   LIG A   1      -7.897  -1.784 126.567  0.00  0.00    +0.159 C 
ATOM      9  C   LIG A   1      -7.761  -0.319 126.893  0.00  0.00    +0.231 C 
ATOM     10  O   LIG A   1      -8.506   0.176 127.746  0.00  0.00    -0.286 OA
ENDROOT
BRANCH   1  15
ATOM     11  C   LIG A   1      -5.403   4.272 123.887  0.00  0.00    +0.050 A 
ATOM     12  C   LIG A   1      -5.512   4.219 122.521  0.00  0.00    +0.166 A 
ATOM     13  C   LIG A   1      -6.276   3.263 121.900  0.00  0.00    +0.167 A 
ATOM     14  C   LIG A   1      -6.940   2.280 122.613  0.00  0.00    +0.053 A 
ATOM     15  C   LIG A   1      -6.827   2.265 124.018  0.00  0.00    -0.037 A 
ATOM     16  C   LIG A   1      -6.083   3.301 124.634  0.00  0.00    +0.008 A 
ATOM     17  O   LIG A   1      -6.268   3.400 120.546  0.00  0.00    -0.453 OA
ATOM     18  C   LIG A   1      -5.378   4.527 120.392  0.00  0.00    +0.466 C 
ATOM     19  O   LIG A   1      -4.912   5.066 121.645  0.00  0.00    -0.453 OA
ENDBRANCH   1  15
BRANCH   8  20
ATOM     20  O   LIG A   1      -8.562  -2.621 127.434  0.00  0.00    -0.503 OA
ATOM     21  H   LIG A   1      -7.959  -3.335 127.697  0.00  0.00    +0.292 HD
ENDBRANCH   8  20
BRANCH   3  22
ATOM     22  O   LIG A   1      -4.960  -1.176 126.382  0.00  0.00    -0.388 OA
ATOM     23  H   LIG A   1      -4.526  -1.895 125.880  0.00  0.00    +0.210 HD
ENDBRANCH   3  22
BRANCH   2  24
ATOM     24  O   LIG A   1      -6.037   1.515 126.831  0.00  0.00    -0.365 OA
ATOM     25  C   LIG A   1      -5.680   1.111 128.152  0.00  0.00    +0.195 C 
ENDBRANCH   2  24
BRANCH   4  26
ATOM     26  C   LIG A   1      -5.742  -2.036 123.461  0.00  0.00    +0.040 C 
BRANCH  26  27
ATOM     27  C   LIG A   1      -5.489  -3.485 123.791  0.00  0.00    -0.034 C 
ATOM     28  C   LIG A   1      -4.292  -4.077 123.687  0.00  0.00    +0.004 C 
ENDBRANCH  26  27
ENDBRANCH   4  26
TORSDOF 6
ENDMDL
MODEL 7
REMARK VINA RESULT:      -7.1      3.470      6.235
REMARK  Name = NuBBE_2307
REMARK  8 active torsions:
REMARK  status: ('A' for Active; 'I' for Inactive)
REMARK    1  A    between atoms: C_5  and  C_6
REMARK    2  A    between atoms: C_8  and  O_23
REMARK    3  A    between atoms: C_9  and  O_22
REMARK    4  A    between atoms: C_10  and  C_19
REMARK    5  A    between atoms: C_11  and  C_13
REMARK    6  A    between atoms: C_15  and  O_18
REMARK    7  A    between atoms: C_19  and  C_20
REMARK    8  A    between atoms: O_23  and  C_24
REMARK                            x       y       z     vdW  Elec       q    Type
REMARK                         _______ _______ _______ _____ _____    ______ ____
ROOT
ATOM      1  C   LIG A   1      -7.220   1.366 126.965  0.00  0.00    +0.065 C 
ATOM      2  C   LIG A   1      -7.687   2.825 126.657  0.00  0.00    +0.168 C 
ATOM      3  C   LIG A   1      -6.462   3.368 125.890  0.00  0.00    +0.165 C 
ATOM      4  C   LIG A   1      -5.305   3.001 126.850  0.00  0.00    +0.028 C 
ATOM      5  C   LIG A   1      -5.682   1.524 127.263  0.00  0.00    +0.009 C 
ATOM      6  C   LIG A   1      -5.361   1.138 128.712  0.00  0.00    +0.009 C 
ATOM      7  C   LIG A   1      -5.400   3.984 128.004  0.00  0.00    +0.032 C 
ATOM      8  C   LIG A   1      -6.583   4.316 128.540  0.00  0.00    +0.159 C 
ATOM      9  C   LIG A   1      -7.807   3.613 128.014  0.00  0.00    +0.231 C 
ATOM     10  O   LIG A   1      -8.839   3.618 128.695  0.00  0.00    -0.286 OA
ENDROOT
BRANCH   1  15
ATOM     11  C   LIG A   1      -6.587  -1.141 124.050  0.00  0.00    +0.050 A 
ATOM     12  C   LIG A   1      -7.729  -1.892 124.161  0.00  0.00    +0.166 A 
ATOM     13  C   LIG A   1      -8.711  -1.574 125.066  0.00  0.00    +0.167 A 
ATOM     14  C   LIG A   1      -8.584  -0.508 125.939  0.00  0.00    +0.053 A 
ATOM     15  C   LIG A   1      -7.410   0.273 125.894  0.00  0.00    -0.037 A 
ATOM     16  C   LIG A   1      -6.443  -0.043 124.909  0.00  0.00    +0.008 A 
ATOM     17  O   LIG A   1      -9.767  -2.430 124.999  0.00  0.00    -0.453 OA
ATOM     18  C   LIG A   1      -9.312  -3.343 123.977  0.00  0.00    +0.466 C 
ATOM     19  O   LIG A   1      -8.027  -2.994 123.425  0.00  0.00    -0.453 OA
ENDBRANCH   1  15
BRANCH   8  20
ATOM     20  O   LIG A   1      -6.703   5.236 129.557  0.00  0.00    -0.503 OA
ATOM     21  H   LIG A   1      -7.467   5.804 129.370  0.00  0.00    +0.292 HD
ENDBRANCH   8  20
BRANCH   3  22
ATOM     22  O   LIG A   1      -6.561   4.754 125.567  0.00  0.00    -0.388 OA
ATOM     23  H   LIG A   1      -6.248   5.237 126.359  0.00  0.00    +0.210 HD
ENDBRANCH   3  22
BRANCH   2  24
ATOM     24  O   LIG A   1      -8.842   2.927 125.823  0.00  0.00    -0.365 OA
ATOM     25  C   LIG A   1      -8.578   2.983 124.422  0.00  0.00    +0.195 C 
ENDBRANCH   2  24
BRANCH   4  26
ATOM     26  C   LIG A   1      -3.948   3.093 126.108  0.00  0.00    +0.040 C 
BRANCH  26  27
ATOM     27  C   LIG A   1      -2.744   3.248 127.001  0.00  0.00    -0.034 C 
ATOM     28  C   LIG A   1      -1.492   2.953 126.625  0.00  0.00    +0.004 C 
ENDBRANCH  26  27
ENDBRANCH   4  26
TORSDOF 6
ENDMDL
MODEL 8
REMARK VINA RESULT:      -7.0      3.080      7.053
REMARK  Name = NuBBE_2307
REMARK  8 active torsions:
REMARK  status: ('A' for Active; 'I' for Inactive)
REMARK    1  A    between atoms: C_5  and  C_6
REMARK    2  A    between atoms: C_8  and  O_23
REMARK    3  A    between atoms: C_9  and  O_22
REMARK    4  A    between atoms: C_10  and  C_19
REMARK    5  A    between atoms: C_11  and  C_13
REMARK    6  A    between atoms: C_15  and  O_18
REMARK    7  A    between atoms: C_19  and  C_20
REMARK    8  A    between atoms: O_23  and  C_24
REMARK                            x       y       z     vdW  Elec       q    Type
REMARK                         _______ _______ _______ _____ _____    ______ ____
ROOT
ATOM      1  C   LIG A   1      -7.083   0.700 124.639  0.00  0.00    +0.065 C 
ATOM      2  C   LIG A   1      -8.284   0.749 125.638  0.00  0.00    +0.168 C 
ATOM      3  C   LIG A   1      -7.565   1.166 126.939  0.00  0.00    +0.165 C 
ATOM      4  C   LIG A   1      -6.412   0.137 127.002  0.00  0.00    +0.028 C 
ATOM      5  C   LIG A   1      -5.901   0.128 125.509  0.00  0.00    +0.009 C 
ATOM      6  C   LIG A   1      -5.435  -1.232 124.973  0.00  0.00    +0.009 C 
ATOM      7  C   LIG A   1      -7.054  -1.175 127.418  0.00  0.00    +0.032 C 
ATOM      8  C   LIG A   1      -8.225  -1.572 126.902  0.00  0.00    +0.159 C 
ATOM      9  C   LIG A   1      -8.840  -0.711 125.829  0.00  0.00    +0.231 C 
ATOM     10  O   LIG A   1      -9.705  -1.199 125.092  0.00  0.00    -0.286 OA
ENDROOT
BRANCH   1  15
ATOM     11  C   LIG A   1      -5.500   4.201 123.991  0.00  0.00    +0.050 A 
ATOM     12  C   LIG A   1      -5.561   4.214 122.620  0.00  0.00    +0.166 A 
ATOM     13  C   LIG A   1      -6.156   3.195 121.921  0.00  0.00    +0.167 A 
ATOM     14  C   LIG A   1      -6.688   2.085 122.554  0.00  0.00    +0.053 A 
ATOM     15  C   LIG A   1      -6.616   2.003 123.959  0.00  0.00    -0.037 A 
ATOM     16  C   LIG A   1      -6.050   3.099 124.657  0.00  0.00    +0.008 A 
ATOM     17  O   LIG A   1      -6.130   3.411 120.577  0.00  0.00    -0.453 OA
ATOM     18  C   LIG A   1      -5.412   4.663 120.518  0.00  0.00    +0.466 C 
ATOM     19  O   LIG A   1      -5.067   5.189 121.814  0.00  0.00    -0.453 OA
ENDBRANCH   1  15
BRANCH   8  20
ATOM     20  O   LIG A   1      -8.851  -2.734 127.292  0.00  0.00    -0.503 OA
ATOM     21  H   LIG A   1      -8.180  -3.428 127.389  0.00  0.00    +0.292 HD
ENDBRANCH   8  20
BRANCH   3  22
ATOM     22  O   LIG A   1      -8.420   1.185 128.080  0.00  0.00    -0.388 OA
ATOM     23  H   LIG A   1      -9.004   0.405 127.991  0.00  0.00    +0.210 HD
ENDBRANCH   3  22
BRANCH   2  24
ATOM     24  O   LIG A   1      -9.288   1.716 125.329  0.00  0.00    -0.365 OA
ATOM     25  C   LIG A   1      -9.957   1.524 124.084  0.00  0.00    +0.195 C 
ENDBRANCH   2  24
BRANCH   4  26
ATOM     26  C   LIG A   1      -5.331   0.609 128.008  0.00  0.00    +0.040 C 
BRANCH  26  27
ATOM     27  C   LIG A   1      -5.028   2.085 127.970  0.00  0.00    -0.034 C 
ATOM     28  C   LIG A   1      -3.842   2.595 127.610  0.00  0.00    +0.004 C 
ENDBRANCH  26  27
ENDBRANCH   4  26
TORSDOF 6
ENDMDL
MODEL 9
REMARK VINA RESULT:      -7.0      2.555      5.256
REMARK  Name = NuBBE_2307
REMARK  8 active torsions:
REMARK  status: ('A' for Active; 'I' for Inactive)
REMARK    1  A    between atoms: C_5  and  C_6
REMARK    2  A    between atoms: C_8  and  O_23
REMARK    3  A    between atoms: C_9  and  O_22
REMARK    4  A    between atoms: C_10  and  C_19
REMARK    5  A    between atoms: C_11  and  C_13
REMARK    6  A    between atoms: C_15  and  O_18
REMARK    7  A    between atoms: C_19  and  C_20
REMARK    8  A    between atoms: O_23  and  C_24
REMARK                            x       y       z     vdW  Elec       q    Type
REMARK                         _______ _______ _______ _____ _____    ______ ____
ROOT
ATOM      1  C   LIG A   1      -7.362   0.142 123.684  0.00  0.00    +0.065 C 
ATOM      2  C   LIG A   1      -8.660  -0.283 124.443  0.00  0.00    +0.168 C 
ATOM      3  C   LIG A   1      -8.061  -1.078 125.623  0.00  0.00    +0.165 C 
ATOM      4  C   LIG A   1      -7.112  -2.057 124.890  0.00  0.00    +0.028 C 
ATOM      5  C   LIG A   1      -6.416  -1.108 123.838  0.00  0.00    +0.009 C 
ATOM      6  C   LIG A   1      -6.114  -1.738 122.472  0.00  0.00    +0.009 C 
ATOM      7  C   LIG A   1      -8.012  -3.098 124.248  0.00  0.00    +0.032 C 
ATOM      8  C   LIG A   1      -9.154  -2.751 123.638  0.00  0.00    +0.159 C 
ATOM      9  C   LIG A   1      -9.470  -1.282 123.536  0.00  0.00    +0.231 C 
ATOM     10  O   LIG A   1     -10.298  -0.904 122.700  0.00  0.00    -0.286 OA
ENDROOT
BRANCH   1  15
ATOM     11  C   LIG A   1      -5.985   3.779 123.925  0.00  0.00    +0.050 A 
ATOM     12  C   LIG A   1      -5.415   3.711 125.170  0.00  0.00    +0.166 A 
ATOM     13  C   LIG A   1      -5.385   2.538 125.881  0.00  0.00    +0.167 A 
ATOM     14  C   LIG A   1      -5.964   1.376 125.401  0.00  0.00    +0.053 A 
ATOM     15  C   LIG A   1      -6.600   1.402 124.143  0.00  0.00    -0.037 A 
ATOM     16  C   LIG A   1      -6.560   2.612 123.406  0.00  0.00    +0.008 A 
ATOM     17  O   LIG A   1      -4.756   2.680 127.079  0.00  0.00    -0.453 OA
ATOM     18  C   LIG A   1      -4.432   4.087 127.051  0.00  0.00    +0.466 C 
ATOM     19  O   LIG A   1      -4.829   4.744 125.831  0.00  0.00    -0.453 OA
ENDBRANCH   1  15
BRANCH   8  20
ATOM     20  O   LIG A   1     -10.009  -3.678 123.085  0.00  0.00    -0.503 OA
ATOM     21  H   LIG A   1     -10.897  -3.289 123.039  0.00  0.00    +0.292 HD
ENDBRANCH   8  20
BRANCH   3  22
ATOM     22  O   LIG A   1      -9.045  -1.698 126.450  0.00  0.00    -0.388 OA
ATOM     23  H   LIG A   1      -9.508  -2.342 125.878  0.00  0.00    +0.210 HD
ENDBRANCH   3  22
BRANCH   2  24
ATOM     24  O   LIG A   1      -9.440   0.797 124.957  0.00  0.00    -0.365 OA
ATOM     25  C   LIG A   1     -10.033   1.643 123.974  0.00  0.00    +0.195 C 
ENDBRANCH   2  24
BRANCH   4  26
ATOM     26  C   LIG A   1      -6.111  -2.682 125.895  0.00  0.00    +0.040 C 
BRANCH  26  27
ATOM     27  C   LIG A   1      -5.557  -1.725 126.920  0.00  0.00    -0.034 C 
ATOM     28  C   LIG A   1      -5.427  -2.017 128.221  0.00  0.00    +0.004 C 
ENDBRANCH  26  27
ENDBRANCH   4  26
TORSDOF 6
ENDMDL
