MODEL 1
REMARK VINA RESULT:      -9.5      0.000      0.000
REMARK  Name = NuBBE_856
REMARK  10 active torsions:
REMARK  status: ('A' for Active; 'I' for Inactive)
REMARK    1  A    between atoms: C_6  and  C_39
REMARK    2  A    between atoms: C_7  and  O_35
REMARK    3  A    between atoms: C_11  and  C_12
REMARK    4  A    between atoms: C_11  and  C_34
REMARK    5  A    between atoms: C_16  and  C_32
REMARK    6  A    between atoms: C_20  and  C_31
REMARK    7  A    between atoms: C_21  and  C_24
REMARK    8  A    between atoms: C_26  and  O_27
REMARK    9  A    between atoms: O_35  and  C_36
REMARK   10  A    between atoms: C_36  and  C_37
REMARK                            x       y       z     vdW  Elec       q    Type
REMARK                         _______ _______ _______ _____ _____    ______ ____
ROOT
ATOM      1  O   LIG A   1      -7.154   0.123 133.373  0.00  0.00    -0.248 OA
ATOM      2  C   LIG A   1      -7.513   0.634 132.307  0.00  0.00    +0.340 C 
ATOM      3  C   LIG A   1      -7.233  -0.033 131.018  0.00  0.00    +0.260 C 
ATOM      4  C   LIG A   1      -7.472   0.611 129.677  0.00  0.00    +0.125 C 
ATOM      5  C   LIG A   1      -6.846   0.057 128.328  0.00  0.00    +0.041 C 
ATOM      6  C   LIG A   1      -6.701  -1.517 128.315  0.00  0.00    +0.186 C 
ATOM      7  C   LIG A   1      -6.345  -2.087 126.922  0.00  0.00    +0.050 C 
ATOM      8  C   LIG A   1      -7.352  -1.672 125.840  0.00  0.00    +0.016 C 
ATOM      9  C   LIG A   1      -7.204  -2.424 124.465  0.00  0.00    +0.031 C 
ATOM     10  C   LIG A   1      -7.237  -3.954 124.672  0.00  0.00    +0.019 C 
ATOM     11  C   LIG A   1      -8.409  -2.040 123.592  0.00  0.00    +0.162 C 
ATOM     12  C   LIG A   1      -9.032  -0.709 123.785  0.00  0.00    +0.043 C 
ATOM     13  C   LIG A   1      -8.612   0.154 124.721  0.00  0.00    -0.016 C 
ATOM     14  C   LIG A   1      -7.488  -0.108 125.725  0.00  0.00    -0.006 C 
ATOM     15  C   LIG A   1      -7.856   0.454 127.166  0.00  0.00    +0.011 C 
ATOM     16  C   LIG A   1      -8.168   1.973 127.200  0.00  0.00    +0.006 C 
ATOM     17  C   LIG A   1      -8.789   2.408 128.526  0.00  0.00    +0.014 C 
ATOM     18  C   LIG A   1      -7.930   2.077 129.761  0.00  0.00    +0.042 C 
ATOM     19  C   LIG A   1      -8.802   2.279 131.064  0.00  0.00    +0.222 C 
ATOM     20  O   LIG A   1      -8.081   1.852 132.255  0.00  0.00    -0.454 OA
ATOM     21  C   LIG A   1      -6.697   3.011 129.848  0.00  0.00    +0.018 C 
ATOM     22  C   LIG A   1      -6.239   0.596 125.149  0.00  0.00    +0.016 C 
ATOM     23  O   LIG A   1      -8.843  -2.758 122.692  0.00  0.00    -0.292 OA
ATOM     24  C   LIG A   1      -5.932  -2.106 123.660  0.00  0.00    +0.019 C 
ATOM     25  C   LIG A   1      -5.428   0.657 128.166  0.00  0.00    +0.018 C 
ATOM     26  O   LIG A   1      -8.397  -0.334 130.247  0.00  0.00    -0.351 OA
ENDROOT
BRANCH  19  27
ATOM     27  C   LIG A   1      -9.187   3.698 131.348  0.00  0.00    +0.079 C 
ATOM     28  C   LIG A   1      -8.582   4.628 132.092  0.00  0.00    +0.061 C 
ATOM     29  C   LIG A   1      -9.344   5.882 132.088  0.00  0.00    +0.334 C 
ATOM     30  O   LIG A   1     -10.520   5.580 131.354  0.00  0.00    -0.428 OA
ATOM     31  C   LIG A   1     -10.425   4.313 130.872  0.00  0.00    +0.341 C 
ATOM     32  O   LIG A   1     -11.238   3.769 130.146  0.00  0.00    -0.245 OA
BRANCH  29  33
ATOM     33  O   LIG A   1      -9.641   6.287 133.404  0.00  0.00    -0.354 OA
ATOM     34  H   LIG A   1      -9.145   7.102 133.581  0.00  0.00    +0.214 HD
ENDBRANCH  29  33
ENDBRANCH  19  27
BRANCH   6  35
ATOM     35  O   LIG A   1      -5.623  -1.956 129.187  0.00  0.00    -0.461 OA
BRANCH  35  36
ATOM     36  C   LIG A   1      -5.694  -3.221 129.693  0.00  0.00    +0.304 C 
ATOM     37  C   LIG A   1      -7.118  -3.616 129.949  0.00  0.00    +0.136 C 
ATOM     38  O   LIG A   1      -4.741  -3.958 129.897  0.00  0.00    -0.251 OA
ENDBRANCH  35  36
ENDBRANCH   6  35
TORSDOF 4
ENDMDL
MODEL 2
REMARK VINA RESULT:      -8.9      3.552      7.189
REMARK  Name = NuBBE_856
REMARK  10 active torsions:
REMARK  status: ('A' for Active; 'I' for Inactive)
REMARK    1  A    between atoms: C_6  and  C_39
REMARK    2  A    between atoms: C_7  and  O_35
REMARK    3  A    between atoms: C_11  and  C_12
REMARK    4  A    between atoms: C_11  and  C_34
REMARK    5  A    between atoms: C_16  and  C_32
REMARK    6  A    between atoms: C_20  and  C_31
REMARK    7  A    between atoms: C_21  and  C_24
REMARK    8  A    between atoms: C_26  and  O_27
REMARK    9  A    between atoms: O_35  and  C_36
REMARK   10  A    between atoms: C_36  and  C_37
REMARK                            x       y       z     vdW  Elec       q    Type
REMARK                         _______ _______ _______ _____ _____    ______ ____
ROOT
ATOM      1  O   LIG A   1      -9.126   6.049 126.127  0.00  0.00    -0.248 OA
ATOM      2  C   LIG A   1      -8.335   5.112 125.975  0.00  0.00    +0.340 C 
ATOM      3  C   LIG A   1      -8.079   4.155 127.072  0.00  0.00    +0.260 C 
ATOM      4  C   LIG A   1      -6.999   3.105 127.027  0.00  0.00    +0.125 C 
ATOM      5  C   LIG A   1      -6.489   2.335 128.316  0.00  0.00    +0.041 C 
ATOM      6  C   LIG A   1      -7.628   2.099 129.387  0.00  0.00    +0.186 C 
ATOM      7  C   LIG A   1      -7.213   1.129 130.517  0.00  0.00    +0.050 C 
ATOM      8  C   LIG A   1      -6.745  -0.232 129.984  0.00  0.00    +0.016 C 
ATOM      9  C   LIG A   1      -6.561  -1.352 131.075  0.00  0.00    +0.031 C 
ATOM     10  C   LIG A   1      -7.850  -1.516 131.912  0.00  0.00    +0.019 C 
ATOM     11  C   LIG A   1      -6.302  -2.678 130.344  0.00  0.00    +0.162 C 
ATOM     12  C   LIG A   1      -5.630  -2.642 129.023  0.00  0.00    +0.043 C 
ATOM     13  C   LIG A   1      -5.280  -1.494 128.424  0.00  0.00    -0.016 C 
ATOM     14  C   LIG A   1      -5.545  -0.092 128.974  0.00  0.00    -0.006 C 
ATOM     15  C   LIG A   1      -5.995   0.907 127.823  0.00  0.00    +0.011 C 
ATOM     16  C   LIG A   1      -4.974   1.045 126.662  0.00  0.00    +0.006 C 
ATOM     17  C   LIG A   1      -5.563   1.778 125.458  0.00  0.00    +0.014 C 
ATOM     18  C   LIG A   1      -6.103   3.184 125.779  0.00  0.00    +0.042 C 
ATOM     19  C   LIG A   1      -6.958   3.700 124.553  0.00  0.00    +0.222 C 
ATOM     20  O   LIG A   1      -7.604   4.970 124.855  0.00  0.00    -0.454 OA
ATOM     21  C   LIG A   1      -4.945   4.183 126.023  0.00  0.00    +0.018 C 
ATOM     22  C   LIG A   1      -4.219   0.360 129.626  0.00  0.00    +0.016 C 
ATOM     23  O   LIG A   1      -6.565  -3.777 130.831  0.00  0.00    -0.292 OA
ATOM     24  C   LIG A   1      -5.405  -1.139 132.067  0.00  0.00    +0.019 C 
ATOM     25  C   LIG A   1      -5.386   3.187 128.989  0.00  0.00    +0.018 C 
ATOM     26  O   LIG A   1      -8.378   2.797 126.750  0.00  0.00    -0.351 OA
ENDROOT
BRANCH  19  27
ATOM     27  C   LIG A   1      -6.170   3.968 123.307  0.00  0.00    +0.079 C 
ATOM     28  C   LIG A   1      -4.994   4.578 123.140  0.00  0.00    +0.061 C 
ATOM     29  C   LIG A   1      -4.620   4.619 121.722  0.00  0.00    +0.334 C 
ATOM     30  O   LIG A   1      -5.738   4.068 121.044  0.00  0.00    -0.428 OA
ATOM     31  C   LIG A   1      -6.641   3.636 121.963  0.00  0.00    +0.341 C 
ATOM     32  O   LIG A   1      -7.682   3.055 121.715  0.00  0.00    -0.245 OA
BRANCH  29  33
ATOM     33  O   LIG A   1      -4.366   5.944 121.314  0.00  0.00    -0.354 OA
ATOM     34  H   LIG A   1      -3.403   6.060 121.273  0.00  0.00    +0.214 HD
ENDBRANCH  29  33
ENDBRANCH  19  27
BRANCH   6  35
ATOM     35  O   LIG A   1      -7.979   3.337 130.066  0.00  0.00    -0.461 OA
BRANCH  35  36
ATOM     36  C   LIG A   1      -9.273   3.492 130.470  0.00  0.00    +0.304 C 
ATOM     37  C   LIG A   1      -9.337   3.939 131.900  0.00  0.00    +0.136 C 
ATOM     38  O   LIG A   1     -10.260   3.318 129.771  0.00  0.00    -0.251 OA
ENDBRANCH  35  36
ENDBRANCH   6  35
TORSDOF 4
ENDMDL
MODEL 3
REMARK VINA RESULT:      -8.6      2.984      4.665
REMARK  Name = NuBBE_856
REMARK  10 active torsions:
REMARK  status: ('A' for Active; 'I' for Inactive)
REMARK    1  A    between atoms: C_6  and  C_39
REMARK    2  A    between atoms: C_7  and  O_35
REMARK    3  A    between atoms: C_11  and  C_12
REMARK    4  A    between atoms: C_11  and  C_34
REMARK    5  A    between atoms: C_16  and  C_32
REMARK    6  A    between atoms: C_20  and  C_31
REMARK    7  A    between atoms: C_21  and  C_24
REMARK    8  A    between atoms: C_26  and  O_27
REMARK    9  A    between atoms: O_35  and  C_36
REMARK   10  A    between atoms: C_36  and  C_37
REMARK                            x       y       z     vdW  Elec       q    Type
REMARK                         _______ _______ _______ _____ _____    ______ ____
ROOT
ATOM      1  O   LIG A   1      -6.130   6.006 132.846  0.00  0.00    -0.248 OA
ATOM      2  C   LIG A   1      -6.708   5.204 132.105  0.00  0.00    +0.340 C 
ATOM      3  C   LIG A   1      -6.117   3.880 131.818  0.00  0.00    +0.260 C 
ATOM      4  C   LIG A   1      -6.664   2.928 130.786  0.00  0.00    +0.125 C 
ATOM      5  C   LIG A   1      -5.841   1.694 130.225  0.00  0.00    +0.041 C 
ATOM      6  C   LIG A   1      -4.876   1.054 131.302  0.00  0.00    +0.186 C 
ATOM      7  C   LIG A   1      -4.272  -0.298 130.856  0.00  0.00    +0.050 C 
ATOM      8  C   LIG A   1      -5.345  -1.327 130.478  0.00  0.00    +0.016 C 
ATOM      9  C   LIG A   1      -4.819  -2.797 130.270  0.00  0.00    +0.031 C 
ATOM     10  C   LIG A   1      -4.028  -3.275 131.508  0.00  0.00    +0.019 C 
ATOM     11  C   LIG A   1      -6.043  -3.712 130.111  0.00  0.00    +0.162 C 
ATOM     12  C   LIG A   1      -7.282  -3.148 129.523  0.00  0.00    +0.043 C 
ATOM     13  C   LIG A   1      -7.387  -1.859 129.166  0.00  0.00    -0.016 C 
ATOM     14  C   LIG A   1      -6.297  -0.801 129.340  0.00  0.00    -0.006 C 
ATOM     15  C   LIG A   1      -6.907   0.586 129.822  0.00  0.00    +0.011 C 
ATOM     16  C   LIG A   1      -7.983   1.175 128.872  0.00  0.00    +0.006 C 
ATOM     17  C   LIG A   1      -8.739   2.341 129.506  0.00  0.00    +0.014 C 
ATOM     18  C   LIG A   1      -7.835   3.500 129.968  0.00  0.00    +0.042 C 
ATOM     19  C   LIG A   1      -8.678   4.480 130.878  0.00  0.00    +0.222 C 
ATOM     20  O   LIG A   1      -7.840   5.523 131.452  0.00  0.00    -0.454 OA
ATOM     21  C   LIG A   1      -7.293   4.300 128.758  0.00  0.00    +0.018 C 
ATOM     22  C   LIG A   1      -5.619  -0.667 127.958  0.00  0.00    +0.016 C 
ATOM     23  O   LIG A   1      -6.027  -4.911 130.386  0.00  0.00    -0.292 OA
ATOM     24  C   LIG A   1      -3.915  -3.019 129.046  0.00  0.00    +0.019 C 
ATOM     25  C   LIG A   1      -4.963   2.186 129.049  0.00  0.00    +0.018 C 
ATOM     26  O   LIG A   1      -6.939   2.775 132.191  0.00  0.00    -0.351 OA
ENDROOT
BRANCH  19  27
ATOM     27  C   LIG A   1      -9.763   5.225 130.161  0.00  0.00    +0.079 C 
ATOM     28  C   LIG A   1      -9.771   6.453 129.636  0.00  0.00    +0.061 C 
ATOM     29  C   LIG A   1     -11.075   6.762 129.041  0.00  0.00    +0.334 C 
ATOM     30  O   LIG A   1     -11.883   5.638 129.352  0.00  0.00    -0.428 OA
ATOM     31  C   LIG A   1     -11.116   4.703 129.971  0.00  0.00    +0.341 C 
ATOM     32  O   LIG A   1     -11.488   3.594 130.312  0.00  0.00    -0.245 OA
BRANCH  29  33
ATOM     33  O   LIG A   1     -11.602   7.949 129.587  0.00  0.00    -0.354 OA
ATOM     34  H   LIG A   1     -11.521   7.890 130.553  0.00  0.00    +0.214 HD
ENDBRANCH  29  33
ENDBRANCH  19  27
BRANCH   6  35
ATOM     35  O   LIG A   1      -3.729   1.911 131.560  0.00  0.00    -0.461 OA
BRANCH  35  36
ATOM     36  C   LIG A   1      -3.341   2.074 132.858  0.00  0.00    +0.304 C 
ATOM     37  C   LIG A   1      -2.523   3.321 133.018  0.00  0.00    +0.136 C 
ATOM     38  O   LIG A   1      -3.628   1.331 133.784  0.00  0.00    -0.251 OA
ENDBRANCH  35  36
ENDBRANCH   6  35
TORSDOF 4
ENDMDL
MODEL 4
REMARK VINA RESULT:      -8.5      2.549      7.423
REMARK  Name = NuBBE_856
REMARK  10 active torsions:
REMARK  status: ('A' for Active; 'I' for Inactive)
REMARK    1  A    between atoms: C_6  and  C_39
REMARK    2  A    between atoms: C_7  and  O_35
REMARK    3  A    between atoms: C_11  and  C_12
REMARK    4  A    between atoms: C_11  and  C_34
REMARK    5  A    between atoms: C_16  and  C_32
REMARK    6  A    between atoms: C_20  and  C_31
REMARK    7  A    between atoms: C_21  and  C_24
REMARK    8  A    between atoms: C_26  and  O_27
REMARK    9  A    between atoms: O_35  and  C_36
REMARK   10  A    between atoms: C_36  and  C_37
REMARK                            x       y       z     vdW  Elec       q    Type
REMARK                         _______ _______ _______ _____ _____    ______ ____
ROOT
ATOM      1  O   LIG A   1      -5.030  -3.408 124.619  0.00  0.00    -0.248 OA
ATOM      2  C   LIG A   1      -5.736  -2.505 125.080  0.00  0.00    +0.340 C 
ATOM      3  C   LIG A   1      -5.581  -2.067 126.483  0.00  0.00    +0.260 C 
ATOM      4  C   LIG A   1      -6.522  -1.109 127.167  0.00  0.00    +0.125 C 
ATOM      5  C   LIG A   1      -6.574  -0.925 128.741  0.00  0.00    +0.041 C 
ATOM      6  C   LIG A   1      -5.164  -1.108 129.433  0.00  0.00    +0.186 C 
ATOM      7  C   LIG A   1      -5.149  -0.674 130.917  0.00  0.00    +0.050 C 
ATOM      8  C   LIG A   1      -5.612   0.776 131.112  0.00  0.00    +0.016 C 
ATOM      9  C   LIG A   1      -5.374   1.367 132.551  0.00  0.00    +0.031 C 
ATOM     10  C   LIG A   1      -3.893   1.214 132.966  0.00  0.00    +0.019 C 
ATOM     11  C   LIG A   1      -5.695   2.868 132.499  0.00  0.00    +0.162 C 
ATOM     12  C   LIG A   1      -6.710   3.344 131.528  0.00  0.00    +0.043 C 
ATOM     13  C   LIG A   1      -7.324   2.521 130.666  0.00  0.00    -0.016 C 
ATOM     14  C   LIG A   1      -7.054   1.021 130.529  0.00  0.00    -0.006 C 
ATOM     15  C   LIG A   1      -7.044   0.571 129.005  0.00  0.00    +0.011 C 
ATOM     16  C   LIG A   1      -8.357   0.881 128.238  0.00  0.00    +0.006 C 
ATOM     17  C   LIG A   1      -8.202   0.699 126.730  0.00  0.00    +0.014 C 
ATOM     18  C   LIG A   1      -7.735  -0.706 126.310  0.00  0.00    +0.042 C 
ATOM     19  C   LIG A   1      -7.311  -0.676 124.787  0.00  0.00    +0.222 C 
ATOM     20  O   LIG A   1      -6.734  -1.946 124.371  0.00  0.00    -0.454 OA
ATOM     21  C   LIG A   1      -8.870  -1.746 126.481  0.00  0.00    +0.018 C 
ATOM     22  C   LIG A   1      -8.183   0.319 131.316  0.00  0.00    +0.016 C 
ATOM     23  O   LIG A   1      -5.201   3.689 133.269  0.00  0.00    -0.292 OA
ATOM     24  C   LIG A   1      -6.221   0.753 133.678  0.00  0.00    +0.019 C 
ATOM     25  C   LIG A   1      -7.523  -1.998 129.328  0.00  0.00    +0.018 C 
ATOM     26  O   LIG A   1      -5.252  -0.687 126.636  0.00  0.00    -0.351 OA
ENDROOT
BRANCH  19  27
ATOM     27  C   LIG A   1      -8.438  -0.445 123.827  0.00  0.00    +0.079 C 
ATOM     28  C   LIG A   1      -9.107   0.671 123.529  0.00  0.00    +0.061 C 
ATOM     29  C   LIG A   1     -10.149   0.409 122.530  0.00  0.00    +0.334 C 
ATOM     30  O   LIG A   1     -10.108  -0.995 122.335  0.00  0.00    -0.428 OA
ATOM     31  C   LIG A   1      -9.077  -1.510 123.055  0.00  0.00    +0.341 C 
ATOM     32  O   LIG A   1      -8.727  -2.677 123.057  0.00  0.00    -0.245 OA
BRANCH  29  33
ATOM     33  O   LIG A   1     -11.407   0.832 123.001  0.00  0.00    -0.354 OA
ATOM     34  H   LIG A   1     -11.503   1.773 122.781  0.00  0.00    +0.214 HD
ENDBRANCH  29  33
ENDBRANCH  19  27
BRANCH   6  35
ATOM     35  O   LIG A   1      -4.760  -2.506 129.446  0.00  0.00    -0.461 OA
BRANCH  35  36
ATOM     36  C   LIG A   1      -3.427  -2.778 129.540  0.00  0.00    +0.304 C 
ATOM     37  C   LIG A   1      -3.069  -3.986 128.727  0.00  0.00    +0.136 C 
ATOM     38  O   LIG A   1      -2.612  -2.125 130.176  0.00  0.00    -0.251 OA
ENDBRANCH  35  36
ENDBRANCH   6  35
TORSDOF 4
ENDMDL
MODEL 5
REMARK VINA RESULT:      -8.5      2.522      6.614
REMARK  Name = NuBBE_856
REMARK  10 active torsions:
REMARK  status: ('A' for Active; 'I' for Inactive)
REMARK    1  A    between atoms: C_6  and  C_39
REMARK    2  A    between atoms: C_7  and  O_35
REMARK    3  A    between atoms: C_11  and  C_12
REMARK    4  A    between atoms: C_11  and  C_34
REMARK    5  A    between atoms: C_16  and  C_32
REMARK    6  A    between atoms: C_20  and  C_31
REMARK    7  A    between atoms: C_21  and  C_24
REMARK    8  A    between atoms: C_26  and  O_27
REMARK    9  A    between atoms: O_35  and  C_36
REMARK   10  A    between atoms: C_36  and  C_37
REMARK                            x       y       z     vdW  Elec       q    Type
REMARK                         _______ _______ _______ _____ _____    ______ ____
ROOT
ATOM      1  O   LIG A   1      -9.010   4.426 129.212  0.00  0.00    -0.248 OA
ATOM      2  C   LIG A   1      -8.557   3.362 128.776  0.00  0.00    +0.340 C 
ATOM      3  C   LIG A   1      -7.868   2.411 129.674  0.00  0.00    +0.260 C 
ATOM      4  C   LIG A   1      -7.131   1.191 129.188  0.00  0.00    +0.125 C 
ATOM      5  C   LIG A   1      -6.103   0.386 130.089  0.00  0.00    +0.041 C 
ATOM      6  C   LIG A   1      -6.493   0.384 131.621  0.00  0.00    +0.186 C 
ATOM      7  C   LIG A   1      -5.657  -0.606 132.464  0.00  0.00    +0.050 C 
ATOM      8  C   LIG A   1      -5.732  -2.044 131.932  0.00  0.00    +0.016 C 
ATOM      9  C   LIG A   1      -5.127  -3.143 132.883  0.00  0.00    +0.031 C 
ATOM     10  C   LIG A   1      -5.760  -3.056 134.290  0.00  0.00    +0.019 C 
ATOM     11  C   LIG A   1      -5.480  -4.516 132.292  0.00  0.00    +0.162 C 
ATOM     12  C   LIG A   1      -5.637  -4.639 130.823  0.00  0.00    +0.043 C 
ATOM     13  C   LIG A   1      -5.528  -3.589 129.996  0.00  0.00    -0.016 C 
ATOM     14  C   LIG A   1      -5.270  -2.145 130.430  0.00  0.00    -0.006 C 
ATOM     15  C   LIG A   1      -6.144  -1.121 129.584  0.00  0.00    +0.011 C 
ATOM     16  C   LIG A   1      -5.913  -1.197 128.052  0.00  0.00    +0.006 C 
ATOM     17  C   LIG A   1      -6.963  -0.413 127.268  0.00  0.00    +0.014 C 
ATOM     18  C   LIG A   1      -7.058   1.074 127.655  0.00  0.00    +0.042 C 
ATOM     19  C   LIG A   1      -8.369   1.690 127.022  0.00  0.00    +0.222 C 
ATOM     20  O   LIG A   1      -8.579   3.061 127.465  0.00  0.00    -0.454 OA
ATOM     21  C   LIG A   1      -5.838   1.866 127.123  0.00  0.00    +0.018 C 
ATOM     22  C   LIG A   1      -3.759  -1.906 130.215  0.00  0.00    +0.016 C 
ATOM     23  O   LIG A   1      -5.571  -5.538 132.972  0.00  0.00    -0.292 OA
ATOM     24  C   LIG A   1      -3.602  -3.100 133.073  0.00  0.00    +0.019 C 
ATOM     25  C   LIG A   1      -4.713   1.057 129.963  0.00  0.00    +0.018 C 
ATOM     26  O   LIG A   1      -8.464   1.115 129.727  0.00  0.00    -0.351 OA
ENDROOT
BRANCH  19  27
ATOM     27  C   LIG A   1      -8.361   1.778 125.526  0.00  0.00    +0.079 C 
ATOM     28  C   LIG A   1      -7.779   2.663 124.713  0.00  0.00    +0.061 C 
ATOM     29  C   LIG A   1      -8.061   2.352 123.308  0.00  0.00    +0.334 C 
ATOM     30  O   LIG A   1      -8.958   1.254 123.361  0.00  0.00    -0.428 OA
ATOM     31  C   LIG A   1      -9.110   0.872 124.656  0.00  0.00    +0.341 C 
ATOM     32  O   LIG A   1      -9.762  -0.081 125.042  0.00  0.00    -0.245 OA
BRANCH  29  33
ATOM     33  O   LIG A   1      -8.638   3.462 122.659  0.00  0.00    -0.354 OA
ATOM     34  H   LIG A   1      -9.024   4.034 123.342  0.00  0.00    +0.214 HD
ENDBRANCH  29  33
ENDBRANCH  19  27
BRANCH   6  35
ATOM     35  O   LIG A   1      -6.257   1.685 132.228  0.00  0.00    -0.461 OA
BRANCH  35  36
ATOM     36  C   LIG A   1      -7.029   2.034 133.297  0.00  0.00    +0.304 C 
ATOM     37  C   LIG A   1      -6.184   2.560 134.418  0.00  0.00    +0.136 C 
ATOM     38  O   LIG A   1      -8.248   1.958 133.347  0.00  0.00    -0.251 OA
ENDBRANCH  35  36
ENDBRANCH   6  35
TORSDOF 4
ENDMDL
MODEL 6
REMARK VINA RESULT:      -8.3      4.801      7.316
REMARK  Name = NuBBE_856
REMARK  10 active torsions:
REMARK  status: ('A' for Active; 'I' for Inactive)
REMARK    1  A    between atoms: C_6  and  C_39
REMARK    2  A    between atoms: C_7  and  O_35
REMARK    3  A    between atoms: C_11  and  C_12
REMARK    4  A    between atoms: C_11  and  C_34
REMARK    5  A    between atoms: C_16  and  C_32
REMARK    6  A    between atoms: C_20  and  C_31
REMARK    7  A    between atoms: C_21  and  C_24
REMARK    8  A    between atoms: C_26  and  O_27
REMARK    9  A    between atoms: O_35  and  C_36
REMARK   10  A    between atoms: C_36  and  C_37
REMARK                            x       y       z     vdW  Elec       q    Type
REMARK                         _______ _______ _______ _____ _____    ______ ____
ROOT
ATOM      1  O   LIG A   1      -4.141   6.675 127.451  0.00  0.00    -0.248 OA
ATOM      2  C   LIG A   1      -3.884   6.117 128.523  0.00  0.00    +0.340 C 
ATOM      3  C   LIG A   1      -4.244   4.700 128.741  0.00  0.00    +0.260 C 
ATOM      4  C   LIG A   1      -4.134   4.007 130.074  0.00  0.00    +0.125 C 
ATOM      5  C   LIG A   1      -4.848   2.627 130.393  0.00  0.00    +0.041 C 
ATOM      6  C   LIG A   1      -4.943   1.675 129.134  0.00  0.00    +0.186 C 
ATOM      7  C   LIG A   1      -5.391   0.238 129.487  0.00  0.00    +0.050 C 
ATOM      8  C   LIG A   1      -4.488  -0.420 130.539  0.00  0.00    +0.016 C 
ATOM      9  C   LIG A   1      -4.721  -1.963 130.751  0.00  0.00    +0.031 C 
ATOM     10  C   LIG A   1      -4.623  -2.720 129.408  0.00  0.00    +0.019 C 
ATOM     11  C   LIG A   1      -3.603  -2.482 131.667  0.00  0.00    +0.162 C 
ATOM     12  C   LIG A   1      -3.008  -1.555 132.660  0.00  0.00    +0.043 C 
ATOM     13  C   LIG A   1      -3.380  -0.270 132.758  0.00  0.00    -0.016 C 
ATOM     14  C   LIG A   1      -4.411   0.423 131.866  0.00  0.00    -0.006 C 
ATOM     15  C   LIG A   1      -3.947   1.894 131.479  0.00  0.00    +0.011 C 
ATOM     16  C   LIG A   1      -3.681   2.821 132.694  0.00  0.00    +0.006 C 
ATOM     17  C   LIG A   1      -2.971   4.112 132.293  0.00  0.00    +0.014 C 
ATOM     18  C   LIG A   1      -3.717   4.936 131.228  0.00  0.00    +0.042 C 
ATOM     19  C   LIG A   1      -2.751   6.058 130.673  0.00  0.00    +0.222 C 
ATOM     20  O   LIG A   1      -3.360   6.783 129.567  0.00  0.00    -0.454 OA
ATOM     21  C   LIG A   1      -4.968   5.623 131.831  0.00  0.00    +0.018 C 
ATOM     22  C   LIG A   1      -5.724   0.444 132.680  0.00  0.00    +0.016 C 
ATOM     23  O   LIG A   1      -3.219  -3.651 131.665  0.00  0.00    -0.292 OA
ATOM     24  C   LIG A   1      -6.063  -2.357 131.392  0.00  0.00    +0.019 C 
ATOM     25  C   LIG A   1      -6.292   2.922 130.865  0.00  0.00    +0.018 C 
ATOM     26  O   LIG A   1      -3.137   3.852 129.047  0.00  0.00    -0.351 OA
ENDROOT
BRANCH  19  27
ATOM     27  C   LIG A   1      -2.390   7.122 131.664  0.00  0.00    +0.079 C 
ATOM     28  C   LIG A   1      -3.020   8.253 131.990  0.00  0.00    +0.061 C 
ATOM     29  C   LIG A   1      -2.275   8.994 133.013  0.00  0.00    +0.334 C 
ATOM     30  O   LIG A   1      -1.081   8.249 133.193  0.00  0.00    -0.428 OA
ATOM     31  C   LIG A   1      -1.151   7.118 132.441  0.00  0.00    +0.341 C 
ATOM     32  O   LIG A   1      -0.317   6.231 132.418  0.00  0.00    -0.245 OA
BRANCH  29  33
ATOM     33  O   LIG A   1      -2.007  10.307 132.579  0.00  0.00    -0.354 OA
ATOM     34  H   LIG A   1      -1.043  10.410 132.528  0.00  0.00    +0.214 HD
ENDBRANCH  29  33
ENDBRANCH  19  27
BRANCH   6  35
ATOM     35  O   LIG A   1      -5.934   2.155 128.184  0.00  0.00    -0.461 OA
BRANCH  35  36
ATOM     36  C   LIG A   1      -5.851   1.701 126.900  0.00  0.00    +0.304 C 
ATOM     37  C   LIG A   1      -4.483   1.943 126.335  0.00  0.00    +0.136 C 
ATOM     38  O   LIG A   1      -6.749   1.147 126.283  0.00  0.00    -0.251 OA
ENDBRANCH  35  36
ENDBRANCH   6  35
TORSDOF 4
ENDMDL
MODEL 7
REMARK VINA RESULT:      -8.3      4.230      6.219
REMARK  Name = NuBBE_856
REMARK  10 active torsions:
REMARK  status: ('A' for Active; 'I' for Inactive)
REMARK    1  A    between atoms: C_6  and  C_39
REMARK    2  A    between atoms: C_7  and  O_35
REMARK    3  A    between atoms: C_11  and  C_12
REMARK    4  A    between atoms: C_11  and  C_34
REMARK    5  A    between atoms: C_16  and  C_32
REMARK    6  A    between atoms: C_20  and  C_31
REMARK    7  A    between atoms: C_21  and  C_24
REMARK    8  A    between atoms: C_26  and  O_27
REMARK    9  A    between atoms: O_35  and  C_36
REMARK   10  A    between atoms: C_36  and  C_37
REMARK                            x       y       z     vdW  Elec       q    Type
REMARK                         _______ _______ _______ _____ _____    ______ ____
ROOT
ATOM      1  O   LIG A   1      -7.203   5.557 133.610  0.00  0.00    -0.248 OA
ATOM      2  C   LIG A   1      -6.377   5.496 132.693  0.00  0.00    +0.340 C 
ATOM      3  C   LIG A   1      -6.716   4.836 131.415  0.00  0.00    +0.260 C 
ATOM      4  C   LIG A   1      -5.711   4.559 130.327  0.00  0.00    +0.125 C 
ATOM      5  C   LIG A   1      -5.982   3.547 129.136  0.00  0.00    +0.041 C 
ATOM      6  C   LIG A   1      -7.499   3.506 128.692  0.00  0.00    +0.186 C 
ATOM      7  C   LIG A   1      -7.730   2.732 127.374  0.00  0.00    +0.050 C 
ATOM      8  C   LIG A   1      -6.888   3.279 126.213  0.00  0.00    +0.016 C 
ATOM      9  C   LIG A   1      -7.263   2.718 124.791  0.00  0.00    +0.031 C 
ATOM     10  C   LIG A   1      -8.769   2.917 124.505  0.00  0.00    +0.019 C 
ATOM     11  C   LIG A   1      -6.475   3.525 123.749  0.00  0.00    +0.162 C 
ATOM     12  C   LIG A   1      -5.159   4.090 124.133  0.00  0.00    +0.043 C 
ATOM     13  C   LIG A   1      -4.653   3.962 125.368  0.00  0.00    -0.016 C 
ATOM     14  C   LIG A   1      -5.348   3.268 126.541  0.00  0.00    -0.006 C 
ATOM     15  C   LIG A   1      -5.136   4.071 127.897  0.00  0.00    +0.011 C 
ATOM     16  C   LIG A   1      -3.649   4.278 128.291  0.00  0.00    +0.006 C 
ATOM     17  C   LIG A   1      -3.487   5.286 129.426  0.00  0.00    +0.014 C 
ATOM     18  C   LIG A   1      -4.265   4.925 130.705  0.00  0.00    +0.042 C 
ATOM     19  C   LIG A   1      -4.278   6.175 131.672  0.00  0.00    +0.222 C 
ATOM     20  O   LIG A   1      -5.113   5.934 132.840  0.00  0.00    -0.454 OA
ATOM     21  C   LIG A   1      -3.598   3.740 131.446  0.00  0.00    +0.018 C 
ATOM     22  C   LIG A   1      -4.728   1.856 126.620  0.00  0.00    +0.016 C 
ATOM     23  O   LIG A   1      -6.850   3.669 122.586  0.00  0.00    -0.292 OA
ATOM     24  C   LIG A   1      -6.954   1.230 124.554  0.00  0.00    +0.019 C 
ATOM     25  C   LIG A   1      -5.597   2.124 129.609  0.00  0.00    +0.018 C 
ATOM     26  O   LIG A   1      -6.611   5.682 130.270  0.00  0.00    -0.351 OA
ENDROOT
BRANCH  19  27
ATOM     27  C   LIG A   1      -2.940   6.543 132.239  0.00  0.00    +0.079 C 
ATOM     28  C   LIG A   1      -2.047   5.805 132.903  0.00  0.00    +0.061 C 
ATOM     29  C   LIG A   1      -0.877   6.606 133.278  0.00  0.00    +0.334 C 
ATOM     30  O   LIG A   1      -1.203   7.924 132.866  0.00  0.00    -0.428 OA
ATOM     31  C   LIG A   1      -2.393   7.899 132.211  0.00  0.00    +0.341 C 
ATOM     32  O   LIG A   1      -2.926   8.853 131.674  0.00  0.00    -0.245 OA
BRANCH  29  33
ATOM     33  O   LIG A   1      -0.652   6.536 134.667  0.00  0.00    -0.354 OA
ATOM     34  H   LIG A   1      -1.194   7.223 135.088  0.00  0.00    +0.214 HD
ENDBRANCH  29  33
ENDBRANCH  19  27
BRANCH   6  35
ATOM     35  O   LIG A   1      -8.320   2.822 129.679  0.00  0.00    -0.461 OA
BRANCH  35  36
ATOM     36  C   LIG A   1      -9.484   3.423 130.060  0.00  0.00    +0.304 C 
ATOM     37  C   LIG A   1     -10.081   2.728 131.248  0.00  0.00    +0.136 C 
ATOM     38  O   LIG A   1      -9.979   4.409 129.534  0.00  0.00    -0.251 OA
ENDBRANCH  35  36
ENDBRANCH   6  35
TORSDOF 4
ENDMDL
MODEL 8
REMARK VINA RESULT:      -8.1      2.770      5.878
REMARK  Name = NuBBE_856
REMARK  10 active torsions:
REMARK  status: ('A' for Active; 'I' for Inactive)
REMARK    1  A    between atoms: C_6  and  C_39
REMARK    2  A    between atoms: C_7  and  O_35
REMARK    3  A    between atoms: C_11  and  C_12
REMARK    4  A    between atoms: C_11  and  C_34
REMARK    5  A    between atoms: C_16  and  C_32
REMARK    6  A    between atoms: C_20  and  C_31
REMARK    7  A    between atoms: C_21  and  C_24
REMARK    8  A    between atoms: C_26  and  O_27
REMARK    9  A    between atoms: O_35  and  C_36
REMARK   10  A    between atoms: C_36  and  C_37
REMARK                            x       y       z     vdW  Elec       q    Type
REMARK                         _______ _______ _______ _____ _____    ______ ____
ROOT
ATOM      1  O   LIG A   1      -8.325   6.548 130.445  0.00  0.00    -0.248 OA
ATOM      2  C   LIG A   1      -7.911   5.671 131.212  0.00  0.00    +0.340 C 
ATOM      3  C   LIG A   1      -7.822   4.264 130.770  0.00  0.00    +0.260 C 
ATOM      4  C   LIG A   1      -7.507   3.118 131.696  0.00  0.00    +0.125 C 
ATOM      5  C   LIG A   1      -7.765   1.600 131.314  0.00  0.00    +0.041 C 
ATOM      6  C   LIG A   1      -7.565   1.309 129.773  0.00  0.00    +0.186 C 
ATOM      7  C   LIG A   1      -7.553  -0.199 129.432  0.00  0.00    +0.050 C 
ATOM      8  C   LIG A   1      -6.493  -0.975 130.225  0.00  0.00    +0.016 C 
ATOM      9  C   LIG A   1      -6.245  -2.453 129.743  0.00  0.00    +0.031 C 
ATOM     10  C   LIG A   1      -5.920  -2.488 128.233  0.00  0.00    +0.019 C 
ATOM     11  C   LIG A   1      -5.022  -2.992 130.501  0.00  0.00    +0.162 C 
ATOM     12  C   LIG A   1      -4.740  -2.469 131.860  0.00  0.00    +0.043 C 
ATOM     13  C   LIG A   1      -5.486  -1.512 132.432  0.00  0.00    -0.016 C 
ATOM     14  C   LIG A   1      -6.679  -0.811 131.780  0.00  0.00    -0.006 C 
ATOM     15  C   LIG A   1      -6.685   0.745 132.106  0.00  0.00    +0.011 C 
ATOM     16  C   LIG A   1      -6.716   1.080 133.620  0.00  0.00    +0.006 C 
ATOM     17  C   LIG A   1      -6.433   2.557 133.892  0.00  0.00    +0.014 C 
ATOM     18  C   LIG A   1      -7.395   3.524 133.177  0.00  0.00    +0.042 C 
ATOM     19  C   LIG A   1      -6.816   4.992 133.273  0.00  0.00    +0.222 C 
ATOM     20  O   LIG A   1      -7.617   5.929 132.499  0.00  0.00    -0.454 OA
ATOM     21  C   LIG A   1      -8.796   3.506 133.836  0.00  0.00    +0.018 C 
ATOM     22  C   LIG A   1      -7.936  -1.510 132.345  0.00  0.00    +0.016 C 
ATOM     23  O   LIG A   1      -4.301  -3.887 130.064  0.00  0.00    -0.292 OA
ATOM     24  C   LIG A   1      -7.403  -3.439 129.976  0.00  0.00    +0.019 C 
ATOM     25  C   LIG A   1      -9.232   1.251 131.667  0.00  0.00    +0.018 C 
ATOM     26  O   LIG A   1      -6.510   3.707 130.842  0.00  0.00    -0.351 OA
ENDROOT
BRANCH  19  27
ATOM     27  C   LIG A   1      -6.797   5.569 134.656  0.00  0.00    +0.079 C 
ATOM     28  C   LIG A   1      -7.790   5.764 135.527  0.00  0.00    +0.061 C 
ATOM     29  C   LIG A   1      -7.292   6.377 136.763  0.00  0.00    +0.334 C 
ATOM     30  O   LIG A   1      -5.920   6.628 136.507  0.00  0.00    -0.428 OA
ATOM     31  C   LIG A   1      -5.599   6.117 135.289  0.00  0.00    +0.341 C 
ATOM     32  O   LIG A   1      -4.485   6.107 134.797  0.00  0.00    -0.245 OA
BRANCH  29  33
ATOM     33  O   LIG A   1      -7.994   7.566 137.045  0.00  0.00    -0.354 OA
ATOM     34  H   LIG A   1      -8.019   7.671 138.010  0.00  0.00    +0.214 HD
ENDBRANCH  29  33
ENDBRANCH  19  27
BRANCH   6  35
ATOM     35  O   LIG A   1      -8.654   1.864 128.984  0.00  0.00    -0.461 OA
BRANCH  35  36
ATOM     36  C   LIG A   1      -8.456   2.003 127.641  0.00  0.00    +0.304 C 
ATOM     37  C   LIG A   1      -7.231   2.823 127.364  0.00  0.00    +0.136 C 
ATOM     38  O   LIG A   1      -9.155   1.515 126.766  0.00  0.00    -0.251 OA
ENDBRANCH  35  36
ENDBRANCH   6  35
TORSDOF 4
ENDMDL
MODEL 9
REMARK VINA RESULT:      -8.1      4.197      8.850
REMARK  Name = NuBBE_856
REMARK  10 active torsions:
REMARK  status: ('A' for Active; 'I' for Inactive)
REMARK    1  A    between atoms: C_6  and  C_39
REMARK    2  A    between atoms: C_7  and  O_35
REMARK    3  A    between atoms: C_11  and  C_12
REMARK    4  A    between atoms: C_11  and  C_34
REMARK    5  A    between atoms: C_16  and  C_32
REMARK    6  A    between atoms: C_20  and  C_31
REMARK    7  A    between atoms: C_21  and  C_24
REMARK    8  A    between atoms: C_26  and  O_27
REMARK    9  A    between atoms: O_35  and  C_36
REMARK   10  A    between atoms: C_36  and  C_37
REMARK                            x       y       z     vdW  Elec       q    Type
REMARK                         _______ _______ _______ _____ _____    ______ ____
ROOT
ATOM      1  O   LIG A   1      -9.614   1.674 132.256  0.00  0.00    -0.248 OA
ATOM      2  C   LIG A   1      -8.729   2.102 131.507  0.00  0.00    +0.340 C 
ATOM      3  C   LIG A   1      -7.773   3.127 131.976  0.00  0.00    +0.260 C 
ATOM      4  C   LIG A   1      -6.792   3.828 131.072  0.00  0.00    +0.125 C 
ATOM      5  C   LIG A   1      -6.035   5.158 131.484  0.00  0.00    +0.041 C 
ATOM      6  C   LIG A   1      -5.713   5.233 133.031  0.00  0.00    +0.186 C 
ATOM      7  C   LIG A   1      -4.752   6.386 133.401  0.00  0.00    +0.050 C 
ATOM      8  C   LIG A   1      -3.431   6.326 132.622  0.00  0.00    +0.016 C 
ATOM      9  C   LIG A   1      -2.308   7.304 133.132  0.00  0.00    +0.031 C 
ATOM     10  C   LIG A   1      -2.052   7.102 134.643  0.00  0.00    +0.019 C 
ATOM     11  C   LIG A   1      -1.012   6.957 132.384  0.00  0.00    +0.162 C 
ATOM     12  C   LIG A   1      -1.109   6.395 131.015  0.00  0.00    +0.043 C 
ATOM     13  C   LIG A   1      -2.286   6.138 130.425  0.00  0.00    -0.016 C 
ATOM     14  C   LIG A   1      -3.660   6.341 131.064  0.00  0.00    -0.006 C 
ATOM     15  C   LIG A   1      -4.648   5.147 130.708  0.00  0.00    +0.011 C 
ATOM     16  C   LIG A   1      -4.867   4.931 129.187  0.00  0.00    +0.006 C 
ATOM     17  C   LIG A   1      -5.580   3.615 128.887  0.00  0.00    +0.014 C 
ATOM     18  C   LIG A   1      -6.945   3.466 129.584  0.00  0.00    +0.042 C 
ATOM     19  C   LIG A   1      -7.427   1.965 129.458  0.00  0.00    +0.222 C 
ATOM     20  O   LIG A   1      -8.650   1.735 130.215  0.00  0.00    -0.454 OA
ATOM     21  C   LIG A   1      -8.010   4.378 128.926  0.00  0.00    +0.018 C 
ATOM     22  C   LIG A   1      -4.183   7.687 130.514  0.00  0.00    +0.016 C 
ATOM     23  O   LIG A   1       0.109   7.185 132.838  0.00  0.00    -0.292 OA
ATOM     24  C   LIG A   1      -2.576   8.804 132.920  0.00  0.00    +0.019 C 
ATOM     25  C   LIG A   1      -6.943   6.364 131.139  0.00  0.00    +0.018 C 
ATOM     26  O   LIG A   1      -6.404   2.726 131.914  0.00  0.00    -0.351 OA
ENDROOT
BRANCH  19  27
ATOM     27  C   LIG A   1      -7.762   1.528 128.065  0.00  0.00    +0.079 C 
ATOM     28  C   LIG A   1      -8.884   1.677 127.356  0.00  0.00    +0.061 C 
ATOM     29  C   LIG A   1      -8.753   1.068 126.028  0.00  0.00    +0.334 C 
ATOM     30  O   LIG A   1      -7.477   0.446 126.048  0.00  0.00    -0.428 OA
ATOM     31  C   LIG A   1      -6.860   0.745 127.221  0.00  0.00    +0.341 C 
ATOM     32  O   LIG A   1      -5.727   0.421 127.528  0.00  0.00    -0.245 OA
BRANCH  29  33
ATOM     33  O   LIG A   1      -9.783   0.133 125.806  0.00  0.00    -0.354 OA
ATOM     34  H   LIG A   1      -9.483  -0.476 125.112  0.00  0.00    +0.214 HD
ENDBRANCH  29  33
ENDBRANCH  19  27
BRANCH   6  35
ATOM     35  O   LIG A   1      -6.916   5.482 133.809  0.00  0.00    -0.461 OA
BRANCH  35  36
ATOM     36  C   LIG A   1      -6.924   5.072 135.111  0.00  0.00    +0.304 C 
ATOM     37  C   LIG A   1      -7.772   5.979 135.952  0.00  0.00    +0.136 C 
ATOM     38  O   LIG A   1      -6.345   4.089 135.549  0.00  0.00    -0.251 OA
ENDBRANCH  35  36
ENDBRANCH   6  35
TORSDOF 4
ENDMDL
