MODEL 1
REMARK VINA RESULT:      -8.6      0.000      0.000
REMARK  Name = NuBBE_521
REMARK  17 active torsions:
REMARK  status: ('A' for Active; 'I' for Inactive)
REMARK    1  A    between atoms: C_4  and  C_6
REMARK    2  A    between atoms: C_8  and  C_9
REMARK    3  A    between atoms: C_9  and  C_10
REMARK    4  A    between atoms: C_10  and  C_12
REMARK    5  A    between atoms: C_10  and  C_13
REMARK    6  A    between atoms: C_13  and  O_15
REMARK    7  A    between atoms: C_13  and  C_28
REMARK    8  A    between atoms: O_15  and  C_16
REMARK    9  A    between atoms: C_16  and  C_17
REMARK   10  A    between atoms: C_17  and  O_19
REMARK   11  A    between atoms: C_17  and  C_21
REMARK   12  A    between atoms: O_19  and  C_20
REMARK   13  A    between atoms: C_37  and  C_38
REMARK   14  A    between atoms: C_39  and  C_40
REMARK   15  A    between atoms: C_40  and  C_42
REMARK   16  A    between atoms: C_40  and  C_43
REMARK   17  A    between atoms: C_43  and  C_44
REMARK                            x       y       z     vdW  Elec       q    Type
REMARK                         _______ _______ _______ _____ _____    ______ ____
ROOT
ATOM      1 CL   LIG A   1      -5.016   7.764 130.346  0.00  0.00    -0.079 Cl
ATOM      2  C   LIG A   1      -5.761   6.741 131.530  0.00  0.00    +0.096 C 
ATOM      3  C   LIG A   1      -4.819   6.114 132.545  0.00  0.00    +0.222 C 
ATOM      4  C   LIG A   1      -5.423   5.244 133.679  0.00  0.00    +0.200 C 
ATOM      5  O   LIG A   1      -4.620   4.111 134.003  0.00  0.00    -0.442 OA
ATOM      6  C   LIG A   1      -5.575   6.077 134.952  0.00  0.00    +0.070 C 
ATOM      7  C   LIG A   1      -6.678   4.635 133.190  0.00  0.00    +0.031 C 
ATOM      8  C   LIG A   1      -6.606   3.300 133.145  0.00  0.00    +0.110 C 
ATOM      9  C   LIG A   1      -5.340   2.975 133.798  0.00  0.00    +0.344 C 
ATOM     10  O   LIG A   1      -4.979   1.858 134.145  0.00  0.00    -0.245 OA
ATOM     11  O   LIG A   1      -3.604   6.315 132.481  0.00  0.00    -0.286 OA
ATOM     12  C   LIG A   1      -7.088   6.491 131.557  0.00  0.00    +0.011 C 
ATOM     13  C   LIG A   1      -7.597   5.540 132.553  0.00  0.00    +0.027 C 
ATOM     14  C   LIG A   1      -8.915   5.571 132.805  0.00  0.00    +0.204 C 
ATOM     15  O   LIG A   1      -9.812   6.349 132.100  0.00  0.00    -0.463 OA
ATOM     16  C   LIG A   1      -9.370   6.951 130.920  0.00  0.00    +0.128 C 
ATOM     17  C   LIG A   1      -8.060   7.051 130.621  0.00  0.00    +0.056 C 
ENDROOT
BRANCH   8  18
ATOM     18  C   LIG A   1      -7.571   2.389 132.480  0.00  0.00    +0.177 C 
ATOM     19  O   LIG A   1      -8.392   1.793 133.176  0.00  0.00    -0.291 OA
BRANCH  18  20
ATOM     20  C   LIG A   1      -7.498   2.098 130.980  0.00  0.00    +0.098 C 
ATOM     21  C   LIG A   1      -8.017   0.668 130.837  0.00  0.00    +0.020 C 
BRANCH  20  22
ATOM     22  C   LIG A   1      -8.339   3.100 130.142  0.00  0.00    +0.184 C 
ATOM     23  C   LIG A   1      -9.848   3.009 130.411  0.00  0.00    +0.052 C 
BRANCH  22  24
ATOM     24  O   LIG A   1      -8.166   2.800 128.736  0.00  0.00    -0.459 OA
BRANCH  24  25
ATOM     25  C   LIG A   1      -7.849   3.879 127.958  0.00  0.00    +0.341 C 
ATOM     26  O   LIG A   1      -8.403   4.958 128.045  0.00  0.00    -0.247 OA
BRANCH  25  27
ATOM     27  C   LIG A   1      -6.760   3.561 126.925  0.00  0.00    +0.256 C 
BRANCH  27  28
ATOM     28  C   LIG A   1      -5.365   3.867 127.461  0.00  0.00    -0.008 A 
ATOM     29  C   LIG A   1      -5.150   4.144 128.819  0.00  0.00    +0.007 A 
ATOM     30  C   LIG A   1      -3.882   4.491 129.289  0.00  0.00    +0.000 A 
ATOM     31  C   LIG A   1      -2.797   4.518 128.420  0.00  0.00    +0.000 A 
ATOM     32  C   LIG A   1      -2.980   4.191 127.080  0.00  0.00    +0.000 A 
ATOM     33  C   LIG A   1      -4.254   3.872 126.601  0.00  0.00    +0.007 A 
ENDBRANCH  27  28
BRANCH  27  34
ATOM     34  O   LIG A   1      -6.942   4.287 125.696  0.00  0.00    -0.364 OA
ATOM     35  C   LIG A   1      -7.495   3.513 124.635  0.00  0.00    +0.195 C 
ENDBRANCH  27  34
ENDBRANCH  25  27
ENDBRANCH  24  25
ENDBRANCH  22  24
ENDBRANCH  20  22
ENDBRANCH  18  20
ENDBRANCH   8  18
BRANCH  16  36
ATOM     36  C   LIG A   1     -10.420   7.421 130.041  0.00  0.00    +0.042 C 
ATOM     37  C   LIG A   1     -10.207   7.929 128.816  0.00  0.00    -0.020 C 
BRANCH  37  38
ATOM     38  C   LIG A   1     -11.295   8.453 127.915  0.00  0.00    +0.008 C 
ATOM     39  C   LIG A   1     -11.286   7.638 126.619  0.00  0.00    +0.012 C 
BRANCH  38  40
ATOM     40  C   LIG A   1     -12.671   8.378 128.605  0.00  0.00    +0.004 C 
ATOM     41  C   LIG A   1     -13.155   9.729 129.123  0.00  0.00    +0.004 C 
ENDBRANCH  38  40
ENDBRANCH  37  38
ENDBRANCH  16  36
TORSDOF 11
ENDMDL
MODEL 2
REMARK VINA RESULT:      -8.5      2.285      3.582
REMARK  Name = NuBBE_521
REMARK  17 active torsions:
REMARK  status: ('A' for Active; 'I' for Inactive)
REMARK    1  A    between atoms: C_4  and  C_6
REMARK    2  A    between atoms: C_8  and  C_9
REMARK    3  A    between atoms: C_9  and  C_10
REMARK    4  A    between atoms: C_10  and  C_12
REMARK    5  A    between atoms: C_10  and  C_13
REMARK    6  A    between atoms: C_13  and  O_15
REMARK    7  A    between atoms: C_13  and  C_28
REMARK    8  A    between atoms: O_15  and  C_16
REMARK    9  A    between atoms: C_16  and  C_17
REMARK   10  A    between atoms: C_17  and  O_19
REMARK   11  A    between atoms: C_17  and  C_21
REMARK   12  A    between atoms: O_19  and  C_20
REMARK   13  A    between atoms: C_37  and  C_38
REMARK   14  A    between atoms: C_39  and  C_40
REMARK   15  A    between atoms: C_40  and  C_42
REMARK   16  A    between atoms: C_40  and  C_43
REMARK   17  A    between atoms: C_43  and  C_44
REMARK                            x       y       z     vdW  Elec       q    Type
REMARK                         _______ _______ _______ _____ _____    ______ ____
ROOT
ATOM      1 CL   LIG A   1      -5.262   7.336 130.625  0.00  0.00    -0.079 Cl
ATOM      2  C   LIG A   1      -6.163   6.443 131.807  0.00  0.00    +0.096 C 
ATOM      3  C   LIG A   1      -5.343   5.803 132.915  0.00  0.00    +0.222 C 
ATOM      4  C   LIG A   1      -6.088   5.050 134.048  0.00  0.00    +0.200 C 
ATOM      5  O   LIG A   1      -5.402   3.878 134.485  0.00  0.00    -0.442 OA
ATOM      6  C   LIG A   1      -6.252   5.963 135.263  0.00  0.00    +0.070 C 
ATOM      7  C   LIG A   1      -7.355   4.514 133.507  0.00  0.00    +0.031 C 
ATOM      8  C   LIG A   1      -7.389   3.177 133.536  0.00  0.00    +0.110 C 
ATOM      9  C   LIG A   1      -6.199   2.792 134.290  0.00  0.00    +0.344 C 
ATOM     10  O   LIG A   1      -5.953   1.671 134.719  0.00  0.00    -0.245 OA
ATOM     11  O   LIG A   1      -4.114   5.904 132.924  0.00  0.00    -0.286 OA
ATOM     12  C   LIG A   1      -7.506   6.299 131.756  0.00  0.00    +0.011 C 
ATOM     13  C   LIG A   1      -8.153   5.450 132.762  0.00  0.00    +0.027 C 
ATOM     14  C   LIG A   1      -9.478   5.598 132.922  0.00  0.00    +0.204 C 
ATOM     15  O   LIG A   1     -10.261   6.403 132.117  0.00  0.00    -0.463 OA
ATOM     16  C   LIG A   1      -9.696   6.900 130.941  0.00  0.00    +0.128 C 
ATOM     17  C   LIG A   1      -8.366   6.880 130.728  0.00  0.00    +0.056 C 
ENDROOT
BRANCH   8  18
ATOM     18  C   LIG A   1      -8.381   2.308 132.855  0.00  0.00    +0.177 C 
ATOM     19  O   LIG A   1      -9.545   2.319 133.254  0.00  0.00    -0.291 OA
BRANCH  18  20
ATOM     20  C   LIG A   1      -7.970   1.332 131.750  0.00  0.00    +0.098 C 
ATOM     21  C   LIG A   1      -9.061   0.262 131.752  0.00  0.00    +0.020 C 
BRANCH  20  22
ATOM     22  C   LIG A   1      -7.848   2.025 130.365  0.00  0.00    +0.184 C 
ATOM     23  C   LIG A   1      -8.878   3.142 130.146  0.00  0.00    +0.052 C 
BRANCH  22  24
ATOM     24  O   LIG A   1      -8.094   1.047 129.326  0.00  0.00    -0.459 OA
BRANCH  24  25
ATOM     25  C   LIG A   1      -6.978   0.647 128.645  0.00  0.00    +0.341 C 
ATOM     26  O   LIG A   1      -5.844   0.889 129.008  0.00  0.00    -0.247 OA
BRANCH  25  27
ATOM     27  C   LIG A   1      -7.316  -0.090 127.341  0.00  0.00    +0.256 C 
BRANCH  27  28
ATOM     28  C   LIG A   1      -7.887  -1.480 127.608  0.00  0.00    -0.008 A 
ATOM     29  C   LIG A   1      -7.749  -2.097 128.860  0.00  0.00    +0.007 A 
ATOM     30  C   LIG A   1      -8.213  -3.396 129.076  0.00  0.00    +0.000 A 
ATOM     31  C   LIG A   1      -8.868  -4.082 128.059  0.00  0.00    +0.000 A 
ATOM     32  C   LIG A   1      -9.064  -3.465 126.827  0.00  0.00    +0.000 A 
ATOM     33  C   LIG A   1      -8.574  -2.176 126.600  0.00  0.00    +0.007 A 
ENDBRANCH  27  28
BRANCH  27  34
ATOM     34  O   LIG A   1      -6.173  -0.229 126.479  0.00  0.00    -0.364 OA
ATOM     35  C   LIG A   1      -6.121   0.723 125.420  0.00  0.00    +0.195 C 
ENDBRANCH  27  34
ENDBRANCH  25  27
ENDBRANCH  24  25
ENDBRANCH  22  24
ENDBRANCH  20  22
ENDBRANCH  18  20
ENDBRANCH   8  18
BRANCH  16  36
ATOM     36  C   LIG A   1     -10.646   7.399 129.969  0.00  0.00    +0.042 C 
ATOM     37  C   LIG A   1     -10.302   7.938 128.787  0.00  0.00    -0.020 C 
BRANCH  37  38
ATOM     38  C   LIG A   1     -11.287   8.493 127.791  0.00  0.00    +0.008 C 
ATOM     39  C   LIG A   1     -11.100   7.756 126.462  0.00  0.00    +0.012 C 
BRANCH  38  40
ATOM     40  C   LIG A   1     -12.734   8.350 128.302  0.00  0.00    +0.004 C 
ATOM     41  C   LIG A   1     -13.333   9.670 128.780  0.00  0.00    +0.004 C 
ENDBRANCH  38  40
ENDBRANCH  37  38
ENDBRANCH  16  36
TORSDOF 11
ENDMDL
MODEL 3
REMARK VINA RESULT:      -8.4      3.078      5.242
REMARK  Name = NuBBE_521
REMARK  17 active torsions:
REMARK  status: ('A' for Active; 'I' for Inactive)
REMARK    1  A    between atoms: C_4  and  C_6
REMARK    2  A    between atoms: C_8  and  C_9
REMARK    3  A    between atoms: C_9  and  C_10
REMARK    4  A    between atoms: C_10  and  C_12
REMARK    5  A    between atoms: C_10  and  C_13
REMARK    6  A    between atoms: C_13  and  O_15
REMARK    7  A    between atoms: C_13  and  C_28
REMARK    8  A    between atoms: O_15  and  C_16
REMARK    9  A    between atoms: C_16  and  C_17
REMARK   10  A    between atoms: C_17  and  O_19
REMARK   11  A    between atoms: C_17  and  C_21
REMARK   12  A    between atoms: O_19  and  C_20
REMARK   13  A    between atoms: C_37  and  C_38
REMARK   14  A    between atoms: C_39  and  C_40
REMARK   15  A    between atoms: C_40  and  C_42
REMARK   16  A    between atoms: C_40  and  C_43
REMARK   17  A    between atoms: C_43  and  C_44
REMARK                            x       y       z     vdW  Elec       q    Type
REMARK                         _______ _______ _______ _____ _____    ______ ____
ROOT
ATOM      1 CL   LIG A   1      -8.352   4.111 134.554  0.00  0.00    -0.079 Cl
ATOM      2  C   LIG A   1      -8.315   3.195 133.083  0.00  0.00    +0.096 C 
ATOM      3  C   LIG A   1      -7.474   1.929 133.116  0.00  0.00    +0.222 C 
ATOM      4  C   LIG A   1      -7.452   1.020 131.859  0.00  0.00    +0.200 C 
ATOM      5  O   LIG A   1      -6.171   0.446 131.607  0.00  0.00    -0.442 OA
ATOM      6  C   LIG A   1      -8.444  -0.131 132.029  0.00  0.00    +0.070 C 
ATOM      7  C   LIG A   1      -7.684   1.859 130.665  0.00  0.00    +0.031 C 
ATOM      8  C   LIG A   1      -6.633   1.856 129.836  0.00  0.00    +0.110 C 
ATOM      9  C   LIG A   1      -5.734   0.842 130.381  0.00  0.00    +0.344 C 
ATOM     10  O   LIG A   1      -4.749   0.381 129.818  0.00  0.00    -0.245 OA
ATOM     11  O   LIG A   1      -6.844   1.621 134.130  0.00  0.00    -0.286 OA
ATOM     12  C   LIG A   1      -8.972   3.571 131.964  0.00  0.00    +0.011 C 
ATOM     13  C   LIG A   1      -8.799   2.763 130.751  0.00  0.00    +0.027 C 
ATOM     14  C   LIG A   1      -9.708   2.927 129.776  0.00  0.00    +0.204 C 
ATOM     15  O   LIG A   1     -10.701   3.886 129.809  0.00  0.00    -0.463 OA
ATOM     16  C   LIG A   1     -10.615   4.885 130.782  0.00  0.00    +0.128 C 
ATOM     17  C   LIG A   1      -9.800   4.769 131.847  0.00  0.00    +0.056 C 
ENDROOT
BRANCH   8  18
ATOM     18  C   LIG A   1      -6.419   2.769 128.685  0.00  0.00    +0.177 C 
ATOM     19  O   LIG A   1      -5.956   3.889 128.901  0.00  0.00    -0.291 OA
BRANCH  18  20
ATOM     20  C   LIG A   1      -6.854   2.391 127.268  0.00  0.00    +0.098 C 
ATOM     21  C   LIG A   1      -6.923   3.720 126.516  0.00  0.00    +0.020 C 
BRANCH  20  22
ATOM     22  C   LIG A   1      -5.868   1.400 126.591  0.00  0.00    +0.184 C 
ATOM     23  C   LIG A   1      -4.456   1.972 126.404  0.00  0.00    +0.052 C 
BRANCH  22  24
ATOM     24  O   LIG A   1      -6.351   1.089 125.262  0.00  0.00    -0.459 OA
BRANCH  24  25
ATOM     25  C   LIG A   1      -6.839  -0.180 125.117  0.00  0.00    +0.341 C 
ATOM     26  O   LIG A   1      -6.252  -1.064 124.521  0.00  0.00    -0.247 OA
BRANCH  25  27
ATOM     27  C   LIG A   1      -8.233  -0.351 125.735  0.00  0.00    +0.256 C 
BRANCH  27  28
ATOM     28  C   LIG A   1      -8.260  -1.473 126.769  0.00  0.00    -0.008 A 
ATOM     29  C   LIG A   1      -8.785  -2.736 126.461  0.00  0.00    +0.007 A 
ATOM     30  C   LIG A   1      -8.870  -3.736 127.432  0.00  0.00    +0.000 A 
ATOM     31  C   LIG A   1      -8.386  -3.506 128.715  0.00  0.00    +0.000 A 
ATOM     32  C   LIG A   1      -7.811  -2.278 129.025  0.00  0.00    +0.000 A 
ATOM     33  C   LIG A   1      -7.752  -1.266 128.062  0.00  0.00    +0.007 A 
ENDBRANCH  27  28
BRANCH  27  34
ATOM     34  O   LIG A   1      -9.242  -0.623 124.747  0.00  0.00    -0.364 OA
ATOM     35  C   LIG A   1      -9.547   0.484 123.902  0.00  0.00    +0.195 C 
ENDBRANCH  27  34
ENDBRANCH  25  27
ENDBRANCH  24  25
ENDBRANCH  22  24
ENDBRANCH  20  22
ENDBRANCH  18  20
ENDBRANCH   8  18
BRANCH  16  36
ATOM     36  C   LIG A   1     -11.437   6.051 130.536  0.00  0.00    +0.042 C 
ATOM     37  C   LIG A   1     -12.370   6.125 129.572  0.00  0.00    -0.020 C 
BRANCH  37  38
ATOM     38  C   LIG A   1     -13.200   7.350 129.290  0.00  0.00    +0.008 C 
ATOM     39  C   LIG A   1     -12.373   8.589 129.643  0.00  0.00    +0.012 C 
BRANCH  38  40
ATOM     40  C   LIG A   1     -13.650   7.389 127.816  0.00  0.00    +0.004 C 
ATOM     41  C   LIG A   1     -12.528   7.052 126.839  0.00  0.00    +0.004 C 
ENDBRANCH  38  40
ENDBRANCH  37  38
ENDBRANCH  16  36
TORSDOF 11
ENDMDL
MODEL 4
REMARK VINA RESULT:      -8.1      6.385     10.419
REMARK  Name = NuBBE_521
REMARK  17 active torsions:
REMARK  status: ('A' for Active; 'I' for Inactive)
REMARK    1  A    between atoms: C_4  and  C_6
REMARK    2  A    between atoms: C_8  and  C_9
REMARK    3  A    between atoms: C_9  and  C_10
REMARK    4  A    between atoms: C_10  and  C_12
REMARK    5  A    between atoms: C_10  and  C_13
REMARK    6  A    between atoms: C_13  and  O_15
REMARK    7  A    between atoms: C_13  and  C_28
REMARK    8  A    between atoms: O_15  and  C_16
REMARK    9  A    between atoms: C_16  and  C_17
REMARK   10  A    between atoms: C_17  and  O_19
REMARK   11  A    between atoms: C_17  and  C_21
REMARK   12  A    between atoms: O_19  and  C_20
REMARK   13  A    between atoms: C_37  and  C_38
REMARK   14  A    between atoms: C_39  and  C_40
REMARK   15  A    between atoms: C_40  and  C_42
REMARK   16  A    between atoms: C_40  and  C_43
REMARK   17  A    between atoms: C_43  and  C_44
REMARK                            x       y       z     vdW  Elec       q    Type
REMARK                         _______ _______ _______ _____ _____    ______ ____
ROOT
ATOM      1 CL   LIG A   1      -4.388  -2.612 124.187  0.00  0.00    -0.079 Cl
ATOM      2  C   LIG A   1      -6.073  -2.305 124.457  0.00  0.00    +0.096 C 
ATOM      3  C   LIG A   1      -6.918  -2.126 123.206  0.00  0.00    +0.222 C 
ATOM      4  C   LIG A   1      -8.447  -1.922 123.369  0.00  0.00    +0.200 C 
ATOM      5  O   LIG A   1      -8.990  -0.993 122.432  0.00  0.00    -0.442 OA
ATOM      6  C   LIG A   1      -9.177  -3.250 123.170  0.00  0.00    +0.070 C 
ATOM      7  C   LIG A   1      -8.702  -1.270 124.671  0.00  0.00    +0.031 C 
ATOM      8  C   LIG A   1      -9.252  -0.058 124.528  0.00  0.00    +0.110 C 
ATOM      9  C   LIG A   1      -9.558   0.045 123.104  0.00  0.00    +0.344 C 
ATOM     10  O   LIG A   1     -10.247   0.910 122.580  0.00  0.00    -0.245 OA
ATOM     11  O   LIG A   1      -6.401  -2.169 122.088  0.00  0.00    -0.286 OA
ATOM     12  C   LIG A   1      -6.616  -2.212 125.690  0.00  0.00    +0.011 C 
ATOM     13  C   LIG A   1      -8.038  -1.864 125.800  0.00  0.00    +0.027 C 
ATOM     14  C   LIG A   1      -8.639  -2.121 126.972  0.00  0.00    +0.204 C 
ATOM     15  O   LIG A   1      -7.969  -2.570 128.093  0.00  0.00    -0.463 OA
ATOM     16  C   LIG A   1      -6.573  -2.531 128.082  0.00  0.00    +0.128 C 
ATOM     17  C   LIG A   1      -5.876  -2.370 126.940  0.00  0.00    +0.056 C 
ENDROOT
BRANCH   8  18
ATOM     18  C   LIG A   1      -9.408   0.967 125.591  0.00  0.00    +0.177 C 
ATOM     19  O   LIG A   1     -10.510   1.099 126.123  0.00  0.00    -0.291 OA
BRANCH  18  20
ATOM     20  C   LIG A   1      -8.271   1.922 125.959  0.00  0.00    +0.098 C 
ATOM     21  C   LIG A   1      -7.904   1.552 127.396  0.00  0.00    +0.020 C 
BRANCH  20  22
ATOM     22  C   LIG A   1      -7.054   1.788 125.004  0.00  0.00    +0.184 C 
ATOM     23  C   LIG A   1      -5.700   1.886 125.719  0.00  0.00    +0.052 C 
BRANCH  22  24
ATOM     24  O   LIG A   1      -7.081   2.878 124.051  0.00  0.00    -0.459 OA
BRANCH  24  25
ATOM     25  C   LIG A   1      -6.631   2.553 122.801  0.00  0.00    +0.341 C 
ATOM     26  O   LIG A   1      -6.482   1.410 122.415  0.00  0.00    -0.247 OA
BRANCH  25  27
ATOM     27  C   LIG A   1      -6.280   3.789 121.961  0.00  0.00    +0.256 C 
BRANCH  27  28
ATOM     28  C   LIG A   1      -7.223   3.951 120.772  0.00  0.00    -0.008 A 
ATOM     29  C   LIG A   1      -6.739   4.287 119.499  0.00  0.00    +0.007 A 
ATOM     30  C   LIG A   1      -7.614   4.502 118.432  0.00  0.00    +0.000 A 
ATOM     31  C   LIG A   1      -8.983   4.336 118.607  0.00  0.00    +0.000 A 
ATOM     32  C   LIG A   1      -9.478   3.948 119.848  0.00  0.00    +0.000 A 
ATOM     33  C   LIG A   1      -8.606   3.761 120.925  0.00  0.00    +0.007 A 
ENDBRANCH  27  28
BRANCH  27  34
ATOM     34  O   LIG A   1      -4.930   3.749 121.466  0.00  0.00    -0.364 OA
ATOM     35  C   LIG A   1      -4.159   4.906 121.778  0.00  0.00    +0.195 C 
ENDBRANCH  27  34
ENDBRANCH  25  27
ENDBRANCH  24  25
ENDBRANCH  22  24
ENDBRANCH  20  22
ENDBRANCH  18  20
ENDBRANCH   8  18
BRANCH  16  36
ATOM     36  C   LIG A   1      -5.946  -2.642 129.383  0.00  0.00    +0.042 C 
ATOM     37  C   LIG A   1      -6.382  -3.453 130.362  0.00  0.00    -0.020 C 
BRANCH  37  38
ATOM     38  C   LIG A   1      -5.755  -3.542 131.729  0.00  0.00    +0.008 C 
ATOM     39  C   LIG A   1      -6.793  -3.111 132.768  0.00  0.00    +0.012 C 
BRANCH  38  40
ATOM     40  C   LIG A   1      -5.247  -4.968 132.015  0.00  0.00    +0.004 C 
ATOM     41  C   LIG A   1      -5.605  -5.462 133.413  0.00  0.00    +0.004 C 
ENDBRANCH  38  40
ENDBRANCH  37  38
ENDBRANCH  16  36
TORSDOF 11
ENDMDL
MODEL 5
REMARK VINA RESULT:      -7.9      3.492      7.720
REMARK  Name = NuBBE_521
REMARK  17 active torsions:
REMARK  status: ('A' for Active; 'I' for Inactive)
REMARK    1  A    between atoms: C_4  and  C_6
REMARK    2  A    between atoms: C_8  and  C_9
REMARK    3  A    between atoms: C_9  and  C_10
REMARK    4  A    between atoms: C_10  and  C_12
REMARK    5  A    between atoms: C_10  and  C_13
REMARK    6  A    between atoms: C_13  and  O_15
REMARK    7  A    between atoms: C_13  and  C_28
REMARK    8  A    between atoms: O_15  and  C_16
REMARK    9  A    between atoms: C_16  and  C_17
REMARK   10  A    between atoms: C_17  and  O_19
REMARK   11  A    between atoms: C_17  and  C_21
REMARK   12  A    between atoms: O_19  and  C_20
REMARK   13  A    between atoms: C_37  and  C_38
REMARK   14  A    between atoms: C_39  and  C_40
REMARK   15  A    between atoms: C_40  and  C_42
REMARK   16  A    between atoms: C_40  and  C_43
REMARK   17  A    between atoms: C_43  and  C_44
REMARK                            x       y       z     vdW  Elec       q    Type
REMARK                         _______ _______ _______ _____ _____    ______ ____
ROOT
ATOM      1 CL   LIG A   1      -9.482  -2.795 125.976  0.00  0.00    -0.079 Cl
ATOM      2  C   LIG A   1      -8.315  -2.097 127.050  0.00  0.00    +0.096 C 
ATOM      3  C   LIG A   1      -7.927  -2.952 128.246  0.00  0.00    +0.222 C 
ATOM      4  C   LIG A   1      -6.834  -2.423 129.211  0.00  0.00    +0.200 C 
ATOM      5  O   LIG A   1      -7.098  -2.731 130.579  0.00  0.00    -0.442 OA
ATOM      6  C   LIG A   1      -5.481  -3.041 128.857  0.00  0.00    +0.070 C 
ATOM      7  C   LIG A   1      -6.858  -0.946 129.191  0.00  0.00    +0.031 C 
ATOM      8  C   LIG A   1      -7.184  -0.431 130.383  0.00  0.00    +0.110 C 
ATOM      9  C   LIG A   1      -7.196  -1.576 131.290  0.00  0.00    +0.344 C 
ATOM     10  O   LIG A   1      -7.252  -1.521 132.512  0.00  0.00    -0.245 OA
ATOM     11  O   LIG A   1      -8.454  -4.051 128.428  0.00  0.00    -0.286 OA
ATOM     12  C   LIG A   1      -7.783  -0.870 126.864  0.00  0.00    +0.011 C 
ATOM     13  C   LIG A   1      -6.867  -0.345 127.884  0.00  0.00    +0.027 C 
ATOM     14  C   LIG A   1      -6.085   0.686 127.528  0.00  0.00    +0.204 C 
ATOM     15  O   LIG A   1      -6.188   1.342 126.316  0.00  0.00    -0.463 OA
ATOM     16  C   LIG A   1      -7.306   1.079 125.522  0.00  0.00    +0.128 C 
ATOM     17  C   LIG A   1      -8.100   0.014 125.743  0.00  0.00    +0.056 C 
ENDROOT
BRANCH   8  18
ATOM     18  C   LIG A   1      -7.544   0.982 130.661  0.00  0.00    +0.177 C 
ATOM     19  O   LIG A   1      -6.641   1.815 130.739  0.00  0.00    -0.291 OA
BRANCH  18  20
ATOM     20  C   LIG A   1      -8.986   1.400 130.956  0.00  0.00    +0.098 C 
ATOM     21  C   LIG A   1      -8.971   1.842 132.418  0.00  0.00    +0.020 C 
BRANCH  20  22
ATOM     22  C   LIG A   1      -9.474   2.538 130.018  0.00  0.00    +0.184 C 
ATOM     23  C   LIG A   1      -8.661   2.656 128.722  0.00  0.00    +0.052 C 
BRANCH  22  24
ATOM     24  O   LIG A   1      -9.325   3.807 130.700  0.00  0.00    -0.459 OA
BRANCH  24  25
ATOM     25  C   LIG A   1     -10.303   4.721 130.421  0.00  0.00    +0.341 C 
ATOM     26  O   LIG A   1     -11.422   4.420 130.052  0.00  0.00    -0.247 OA
BRANCH  25  27
ATOM     27  C   LIG A   1      -9.816   6.169 130.569  0.00  0.00    +0.256 C 
BRANCH  27  28
ATOM     28  C   LIG A   1     -10.739   7.153 129.858  0.00  0.00    -0.008 A 
ATOM     29  C   LIG A   1     -11.852   7.708 130.506  0.00  0.00    +0.007 A 
ATOM     30  C   LIG A   1     -12.732   8.554 129.827  0.00  0.00    +0.000 A 
ATOM     31  C   LIG A   1     -12.487   8.899 128.502  0.00  0.00    +0.000 A 
ATOM     32  C   LIG A   1     -11.357   8.402 127.859  0.00  0.00    +0.000 A 
ATOM     33  C   LIG A   1     -10.492   7.533 128.528  0.00  0.00    +0.007 A 
ENDBRANCH  27  28
BRANCH  27  34
ATOM     34  O   LIG A   1      -8.482   6.353 130.063  0.00  0.00    -0.364 OA
ATOM     35  C   LIG A   1      -7.581   6.952 130.991  0.00  0.00    +0.195 C 
ENDBRANCH  27  34
ENDBRANCH  25  27
ENDBRANCH  24  25
ENDBRANCH  22  24
ENDBRANCH  20  22
ENDBRANCH  18  20
ENDBRANCH   8  18
BRANCH  16  36
ATOM     36  C   LIG A   1      -7.556   2.049 124.477  0.00  0.00    +0.042 C 
ATOM     37  C   LIG A   1      -6.707   2.307 123.469  0.00  0.00    -0.020 C 
BRANCH  37  38
ATOM     38  C   LIG A   1      -6.948   3.344 122.402  0.00  0.00    +0.008 C 
ATOM     39  C   LIG A   1      -5.938   3.122 121.273  0.00  0.00    +0.012 C 
BRANCH  38  40
ATOM     40  C   LIG A   1      -8.393   3.268 121.872  0.00  0.00    +0.004 C 
ATOM     41  C   LIG A   1      -8.553   3.874 120.481  0.00  0.00    +0.004 C 
ENDBRANCH  38  40
ENDBRANCH  37  38
ENDBRANCH  16  36
TORSDOF 11
ENDMDL
MODEL 6
REMARK VINA RESULT:      -7.9      4.157      8.369
REMARK  Name = NuBBE_521
REMARK  17 active torsions:
REMARK  status: ('A' for Active; 'I' for Inactive)
REMARK    1  A    between atoms: C_4  and  C_6
REMARK    2  A    between atoms: C_8  and  C_9
REMARK    3  A    between atoms: C_9  and  C_10
REMARK    4  A    between atoms: C_10  and  C_12
REMARK    5  A    between atoms: C_10  and  C_13
REMARK    6  A    between atoms: C_13  and  O_15
REMARK    7  A    between atoms: C_13  and  C_28
REMARK    8  A    between atoms: O_15  and  C_16
REMARK    9  A    between atoms: C_16  and  C_17
REMARK   10  A    between atoms: C_17  and  O_19
REMARK   11  A    between atoms: C_17  and  C_21
REMARK   12  A    between atoms: O_19  and  C_20
REMARK   13  A    between atoms: C_37  and  C_38
REMARK   14  A    between atoms: C_39  and  C_40
REMARK   15  A    between atoms: C_40  and  C_42
REMARK   16  A    between atoms: C_40  and  C_43
REMARK   17  A    between atoms: C_43  and  C_44
REMARK                            x       y       z     vdW  Elec       q    Type
REMARK                         _______ _______ _______ _____ _____    ______ ____
ROOT
ATOM      1 CL   LIG A   1      -5.749  -4.810 130.614  0.00  0.00    -0.079 Cl
ATOM      2  C   LIG A   1      -5.528  -3.101 130.796  0.00  0.00    +0.096 C 
ATOM      3  C   LIG A   1      -5.144  -2.631 132.190  0.00  0.00    +0.222 C 
ATOM      4  C   LIG A   1      -4.859  -1.123 132.412  0.00  0.00    +0.200 C 
ATOM      5  O   LIG A   1      -5.331  -0.643 133.669  0.00  0.00    -0.442 OA
ATOM      6  C   LIG A   1      -3.353  -0.863 132.359  0.00  0.00    +0.070 C 
ATOM      7  C   LIG A   1      -5.651  -0.343 131.437  0.00  0.00    +0.031 C 
ATOM      8  C   LIG A   1      -6.550   0.446 132.036  0.00  0.00    +0.110 C 
ATOM      9  C   LIG A   1      -6.239   0.349 133.460  0.00  0.00    +0.344 C 
ATOM     10  O   LIG A   1      -6.693   1.065 134.344  0.00  0.00    -0.245 OA
ATOM     11  O   LIG A   1      -5.038  -3.438 133.116  0.00  0.00    -0.286 OA
ATOM     12  C   LIG A   1      -5.697  -2.223 129.783  0.00  0.00    +0.011 C 
ATOM     13  C   LIG A   1      -5.567  -0.791 130.073  0.00  0.00    +0.027 C 
ATOM     14  C   LIG A   1      -5.382   0.028 129.026  0.00  0.00    +0.204 C 
ATOM     15  O   LIG A   1      -5.431  -0.389 127.710  0.00  0.00    -0.463 OA
ATOM     16  C   LIG A   1      -5.929  -1.667 127.446  0.00  0.00    +0.128 C 
ATOM     17  C   LIG A   1      -6.064  -2.591 128.417  0.00  0.00    +0.056 C 
ENDROOT
BRANCH   8  18
ATOM     18  C   LIG A   1      -7.667   1.166 131.375  0.00  0.00    +0.177 C 
ATOM     19  O   LIG A   1      -8.586   0.508 130.889  0.00  0.00    -0.291 OA
BRANCH  18  20
ATOM     20  C   LIG A   1      -7.647   2.686 131.193  0.00  0.00    +0.098 C 
ATOM     21  C   LIG A   1      -6.165   3.046 131.099  0.00  0.00    +0.020 C 
BRANCH  20  22
ATOM     22  C   LIG A   1      -8.428   3.140 129.930  0.00  0.00    +0.184 C 
ATOM     23  C   LIG A   1      -7.584   3.125 128.648  0.00  0.00    +0.052 C 
BRANCH  22  24
ATOM     24  O   LIG A   1      -8.857   4.512 130.109  0.00  0.00    -0.459 OA
BRANCH  24  25
ATOM     25  C   LIG A   1     -10.180   4.660 130.419  0.00  0.00    +0.341 C 
ATOM     26  O   LIG A   1     -11.046   3.883 130.064  0.00  0.00    -0.247 OA
BRANCH  25  27
ATOM     27  C   LIG A   1     -10.460   5.943 131.213  0.00  0.00    +0.256 C 
BRANCH  27  28
ATOM     28  C   LIG A   1     -11.059   7.035 130.331  0.00  0.00    -0.008 A 
ATOM     29  C   LIG A   1     -12.291   7.629 130.642  0.00  0.00    +0.007 A 
ATOM     30  C   LIG A   1     -12.865   8.578 129.793  0.00  0.00    +0.000 A 
ATOM     31  C   LIG A   1     -12.194   8.986 128.645  0.00  0.00    +0.000 A 
ATOM     32  C   LIG A   1     -10.945   8.448 128.349  0.00  0.00    +0.000 A 
ATOM     33  C   LIG A   1     -10.382   7.477 129.182  0.00  0.00    +0.007 A 
ENDBRANCH  27  28
BRANCH  27  34
ATOM     34  O   LIG A   1      -9.278   6.467 131.842  0.00  0.00    -0.364 OA
ATOM     35  C   LIG A   1      -8.990   5.895 133.115  0.00  0.00    +0.195 C 
ENDBRANCH  27  34
ENDBRANCH  25  27
ENDBRANCH  24  25
ENDBRANCH  22  24
ENDBRANCH  20  22
ENDBRANCH  18  20
ENDBRANCH   8  18
BRANCH  16  36
ATOM     36  C   LIG A   1      -6.313  -1.902 126.070  0.00  0.00    +0.042 C 
ATOM     37  C   LIG A   1      -5.573  -2.595 125.189  0.00  0.00    -0.020 C 
BRANCH  37  38
ATOM     38  C   LIG A   1      -5.953  -2.809 123.747  0.00  0.00    +0.008 C 
ATOM     39  C   LIG A   1      -6.381  -1.464 123.153  0.00  0.00    +0.012 C 
BRANCH  38  40
ATOM     40  C   LIG A   1      -4.783  -3.416 122.948  0.00  0.00    +0.004 C 
ATOM     41  C   LIG A   1      -4.146  -4.618 123.640  0.00  0.00    +0.004 C 
ENDBRANCH  38  40
ENDBRANCH  37  38
ENDBRANCH  16  36
TORSDOF 11
ENDMDL
MODEL 7
REMARK VINA RESULT:      -7.9      3.660      6.842
REMARK  Name = NuBBE_521
REMARK  17 active torsions:
REMARK  status: ('A' for Active; 'I' for Inactive)
REMARK    1  A    between atoms: C_4  and  C_6
REMARK    2  A    between atoms: C_8  and  C_9
REMARK    3  A    between atoms: C_9  and  C_10
REMARK    4  A    between atoms: C_10  and  C_12
REMARK    5  A    between atoms: C_10  and  C_13
REMARK    6  A    between atoms: C_13  and  O_15
REMARK    7  A    between atoms: C_13  and  C_28
REMARK    8  A    between atoms: O_15  and  C_16
REMARK    9  A    between atoms: C_16  and  C_17
REMARK   10  A    between atoms: C_17  and  O_19
REMARK   11  A    between atoms: C_17  and  C_21
REMARK   12  A    between atoms: O_19  and  C_20
REMARK   13  A    between atoms: C_37  and  C_38
REMARK   14  A    between atoms: C_39  and  C_40
REMARK   15  A    between atoms: C_40  and  C_42
REMARK   16  A    between atoms: C_40  and  C_43
REMARK   17  A    between atoms: C_43  and  C_44
REMARK                            x       y       z     vdW  Elec       q    Type
REMARK                         _______ _______ _______ _____ _____    ______ ____
ROOT
ATOM      1 CL   LIG A   1      -9.868   1.731 132.211  0.00  0.00    -0.079 Cl
ATOM      2  C   LIG A   1      -8.159   1.897 131.975  0.00  0.00    +0.096 C 
ATOM      3  C   LIG A   1      -7.502   3.055 132.709  0.00  0.00    +0.222 C 
ATOM      4  C   LIG A   1      -5.963   3.221 132.604  0.00  0.00    +0.200 C 
ATOM      5  O   LIG A   1      -5.552   4.585 132.531  0.00  0.00    -0.442 OA
ATOM      6  C   LIG A   1      -5.286   2.604 133.828  0.00  0.00    +0.070 C 
ATOM      7  C   LIG A   1      -5.514   2.667 131.309  0.00  0.00    +0.031 C 
ATOM      8  C   LIG A   1      -4.977   3.605 130.520  0.00  0.00    +0.110 C 
ATOM      9  C   LIG A   1      -4.880   4.791 131.366  0.00  0.00    +0.344 C 
ATOM     10  O   LIG A   1      -4.264   5.815 131.098  0.00  0.00    -0.245 OA
ATOM     11  O   LIG A   1      -8.177   3.828 133.392  0.00  0.00    -0.286 OA
ATOM     12  C   LIG A   1      -7.441   1.070 131.184  0.00  0.00    +0.011 C 
ATOM     13  C   LIG A   1      -6.014   1.357 130.991  0.00  0.00    +0.027 C 
ATOM     14  C   LIG A   1      -5.253   0.360 130.514  0.00  0.00    +0.204 C 
ATOM     15  O   LIG A   1      -5.758  -0.853 130.088  0.00  0.00    -0.463 OA
ATOM     16  C   LIG A   1      -7.140  -0.966 129.923  0.00  0.00    +0.128 C 
ATOM     17  C   LIG A   1      -7.993  -0.064 130.446  0.00  0.00    +0.056 C 
ENDROOT
BRANCH   8  18
ATOM     18  C   LIG A   1      -4.656   3.461 129.078  0.00  0.00    +0.177 C 
ATOM     19  O   LIG A   1      -3.740   2.707 128.751  0.00  0.00    -0.291 OA
BRANCH  18  20
ATOM     20  C   LIG A   1      -5.361   4.300 128.010  0.00  0.00    +0.098 C 
ATOM     21  C   LIG A   1      -4.257   4.680 127.024  0.00  0.00    +0.020 C 
BRANCH  20  22
ATOM     22  C   LIG A   1      -6.511   3.524 127.312  0.00  0.00    +0.184 C 
ATOM     23  C   LIG A   1      -7.698   3.225 128.237  0.00  0.00    +0.052 C 
BRANCH  22  24
ATOM     24  O   LIG A   1      -6.013   2.237 126.874  0.00  0.00    -0.459 OA
BRANCH  24  25
ATOM     25  C   LIG A   1      -6.258   1.948 125.560  0.00  0.00    +0.341 C 
ATOM     26  O   LIG A   1      -5.775   2.568 124.633  0.00  0.00    -0.247 OA
BRANCH  25  27
ATOM     27  C   LIG A   1      -7.255   0.794 125.386  0.00  0.00    +0.256 C 
BRANCH  27  28
ATOM     28  C   LIG A   1      -6.644  -0.370 124.611  0.00  0.00    -0.008 A 
ATOM     29  C   LIG A   1      -6.965  -0.598 123.265  0.00  0.00    +0.007 A 
ATOM     30  C   LIG A   1      -6.456  -1.706 122.583  0.00  0.00    +0.000 A 
ATOM     31  C   LIG A   1      -5.577  -2.575 123.220  0.00  0.00    +0.000 A 
ATOM     32  C   LIG A   1      -5.203  -2.334 124.538  0.00  0.00    +0.000 A 
ATOM     33  C   LIG A   1      -5.734  -1.242 125.231  0.00  0.00    +0.007 A 
ENDBRANCH  27  28
BRANCH  27  34
ATOM     34  O   LIG A   1      -8.456   1.206 124.711  0.00  0.00    -0.364 OA
ATOM     35  C   LIG A   1      -9.658   0.877 125.403  0.00  0.00    +0.195 C 
ENDBRANCH  27  34
ENDBRANCH  25  27
ENDBRANCH  24  25
ENDBRANCH  22  24
ENDBRANCH  20  22
ENDBRANCH  18  20
ENDBRANCH   8  18
BRANCH  16  36
ATOM     36  C   LIG A   1      -7.572  -2.096 129.128  0.00  0.00    +0.042 C 
ATOM     37  C   LIG A   1      -7.952  -2.010 127.842  0.00  0.00    -0.020 C 
BRANCH  37  38
ATOM     38  C   LIG A   1      -8.437  -3.178 127.023  0.00  0.00    +0.008 C 
ATOM     39  C   LIG A   1      -9.206  -4.130 127.944  0.00  0.00    +0.012 C 
BRANCH  38  40
ATOM     40  C   LIG A   1      -9.324  -2.706 125.854  0.00  0.00    +0.004 C 
ATOM     41  C   LIG A   1      -9.032  -3.439 124.548  0.00  0.00    +0.004 C 
ENDBRANCH  38  40
ENDBRANCH  37  38
ENDBRANCH  16  36
TORSDOF 11
ENDMDL
MODEL 8
REMARK VINA RESULT:      -7.9      3.144      4.964
REMARK  Name = NuBBE_521
REMARK  17 active torsions:
REMARK  status: ('A' for Active; 'I' for Inactive)
REMARK    1  A    between atoms: C_4  and  C_6
REMARK    2  A    between atoms: C_8  and  C_9
REMARK    3  A    between atoms: C_9  and  C_10
REMARK    4  A    between atoms: C_10  and  C_12
REMARK    5  A    between atoms: C_10  and  C_13
REMARK    6  A    between atoms: C_13  and  O_15
REMARK    7  A    between atoms: C_13  and  C_28
REMARK    8  A    between atoms: O_15  and  C_16
REMARK    9  A    between atoms: C_16  and  C_17
REMARK   10  A    between atoms: C_17  and  O_19
REMARK   11  A    between atoms: C_17  and  C_21
REMARK   12  A    between atoms: O_19  and  C_20
REMARK   13  A    between atoms: C_37  and  C_38
REMARK   14  A    between atoms: C_39  and  C_40
REMARK   15  A    between atoms: C_40  and  C_42
REMARK   16  A    between atoms: C_40  and  C_43
REMARK   17  A    between atoms: C_43  and  C_44
REMARK                            x       y       z     vdW  Elec       q    Type
REMARK                         _______ _______ _______ _____ _____    ______ ____
ROOT
ATOM      1 CL   LIG A   1      -7.074   4.110 126.961  0.00  0.00    -0.079 Cl
ATOM      2  C   LIG A   1      -6.714   4.135 128.656  0.00  0.00    +0.096 C 
ATOM      3  C   LIG A   1      -5.323   3.660 129.041  0.00  0.00    +0.222 C 
ATOM      4  C   LIG A   1      -4.905   3.723 130.533  0.00  0.00    +0.200 C 
ATOM      5  O   LIG A   1      -4.104   2.613 130.937  0.00  0.00    -0.442 OA
ATOM      6  C   LIG A   1      -4.094   4.992 130.796  0.00  0.00    +0.070 C 
ATOM      7  C   LIG A   1      -6.115   3.584 131.370  0.00  0.00    +0.031 C 
ATOM      8  C   LIG A   1      -6.083   2.478 132.122  0.00  0.00    +0.110 C 
ATOM      9  C   LIG A   1      -4.735   1.944 131.940  0.00  0.00    +0.344 C 
ATOM     10  O   LIG A   1      -4.222   1.052 132.602  0.00  0.00    -0.245 OA
ATOM     11  O   LIG A   1      -4.537   3.258 128.180  0.00  0.00    -0.286 OA
ATOM     12  C   LIG A   1      -7.604   4.532 129.592  0.00  0.00    +0.011 C 
ATOM     13  C   LIG A   1      -7.220   4.429 131.005  0.00  0.00    +0.027 C 
ATOM     14  C   LIG A   1      -7.942   5.141 131.885  0.00  0.00    +0.204 C 
ATOM     15  O   LIG A   1      -9.080   5.848 131.548  0.00  0.00    -0.463 OA
ATOM     16  C   LIG A   1      -9.640   5.625 130.288  0.00  0.00    +0.128 C 
ATOM     17  C   LIG A   1      -8.958   5.001 129.308  0.00  0.00    +0.056 C 
ENDROOT
BRANCH   8  18
ATOM     18  C   LIG A   1      -7.219   1.897 132.881  0.00  0.00    +0.177 C 
ATOM     19  O   LIG A   1      -7.328   2.170 134.076  0.00  0.00    -0.291 OA
BRANCH  18  20
ATOM     20  C   LIG A   1      -8.184   0.896 132.243  0.00  0.00    +0.098 C 
ATOM     21  C   LIG A   1      -9.464   1.693 131.997  0.00  0.00    +0.020 C 
BRANCH  20  22
ATOM     22  C   LIG A   1      -7.623   0.291 130.927  0.00  0.00    +0.184 C 
ATOM     23  C   LIG A   1      -8.220   0.918 129.660  0.00  0.00    +0.052 C 
BRANCH  22  24
ATOM     24  O   LIG A   1      -7.961  -1.116 130.873  0.00  0.00    -0.459 OA
BRANCH  24  25
ATOM     25  C   LIG A   1      -6.897  -1.964 131.012  0.00  0.00    +0.341 C 
ATOM     26  O   LIG A   1      -6.494  -2.369 132.085  0.00  0.00    -0.247 OA
BRANCH  25  27
ATOM     27  C   LIG A   1      -6.232  -2.300 129.670  0.00  0.00    +0.256 C 
BRANCH  27  28
ATOM     28  C   LIG A   1      -7.262  -2.638 128.596  0.00  0.00    -0.008 A 
ATOM     29  C   LIG A   1      -8.183  -3.681 128.773  0.00  0.00    +0.007 A 
ATOM     30  C   LIG A   1      -9.077  -4.029 127.758  0.00  0.00    +0.000 A 
ATOM     31  C   LIG A   1      -9.099  -3.309 126.569  0.00  0.00    +0.000 A 
ATOM     32  C   LIG A   1      -8.231  -2.235 126.397  0.00  0.00    +0.000 A 
ATOM     33  C   LIG A   1      -7.316  -1.904 127.400  0.00  0.00    +0.007 A 
ENDBRANCH  27  28
BRANCH  27  34
ATOM     34  O   LIG A   1      -5.311  -3.399 129.775  0.00  0.00    -0.364 OA
ATOM     35  C   LIG A   1      -4.110  -3.230 129.027  0.00  0.00    +0.195 C 
ENDBRANCH  27  34
ENDBRANCH  25  27
ENDBRANCH  24  25
ENDBRANCH  22  24
ENDBRANCH  20  22
ENDBRANCH  18  20
ENDBRANCH   8  18
BRANCH  16  36
ATOM     36  C   LIG A   1     -11.005   6.081 130.136  0.00  0.00    +0.042 C 
ATOM     37  C   LIG A   1     -11.347   7.343 129.822  0.00  0.00    -0.020 C 
BRANCH  37  38
ATOM     38  C   LIG A   1     -12.768   7.829 129.701  0.00  0.00    +0.008 C 
ATOM     39  C   LIG A   1     -12.742   9.314 129.327  0.00  0.00    +0.012 C 
BRANCH  38  40
ATOM     40  C   LIG A   1     -13.548   7.010 128.653  0.00  0.00    +0.004 C 
ATOM     41  C   LIG A   1     -13.043   7.224 127.230  0.00  0.00    +0.004 C 
ENDBRANCH  38  40
ENDBRANCH  37  38
ENDBRANCH  16  36
TORSDOF 11
ENDMDL
MODEL 9
REMARK VINA RESULT:      -7.8      2.587      5.178
REMARK  Name = NuBBE_521
REMARK  17 active torsions:
REMARK  status: ('A' for Active; 'I' for Inactive)
REMARK    1  A    between atoms: C_4  and  C_6
REMARK    2  A    between atoms: C_8  and  C_9
REMARK    3  A    between atoms: C_9  and  C_10
REMARK    4  A    between atoms: C_10  and  C_12
REMARK    5  A    between atoms: C_10  and  C_13
REMARK    6  A    between atoms: C_13  and  O_15
REMARK    7  A    between atoms: C_13  and  C_28
REMARK    8  A    between atoms: O_15  and  C_16
REMARK    9  A    between atoms: C_16  and  C_17
REMARK   10  A    between atoms: C_17  and  O_19
REMARK   11  A    between atoms: C_17  and  C_21
REMARK   12  A    between atoms: O_19  and  C_20
REMARK   13  A    between atoms: C_37  and  C_38
REMARK   14  A    between atoms: C_39  and  C_40
REMARK   15  A    between atoms: C_40  and  C_42
REMARK   16  A    between atoms: C_40  and  C_43
REMARK   17  A    between atoms: C_43  and  C_44
REMARK                            x       y       z     vdW  Elec       q    Type
REMARK                         _______ _______ _______ _____ _____    ______ ____
ROOT
ATOM      1 CL   LIG A   1      -6.867   2.839 127.951  0.00  0.00    -0.079 Cl
ATOM      2  C   LIG A   1      -6.423   3.740 129.363  0.00  0.00    +0.096 C 
ATOM      3  C   LIG A   1      -5.029   3.471 129.904  0.00  0.00    +0.222 C 
ATOM      4  C   LIG A   1      -4.535   4.295 131.122  0.00  0.00    +0.200 C 
ATOM      5  O   LIG A   1      -3.749   3.529 132.034  0.00  0.00    -0.442 OA
ATOM      6  C   LIG A   1      -3.674   5.465 130.647  0.00  0.00    +0.070 C 
ATOM      7  C   LIG A   1      -5.705   4.684 131.937  0.00  0.00    +0.031 C 
ATOM      8  C   LIG A   1      -5.669   4.145 133.161  0.00  0.00    +0.110 C 
ATOM      9  C   LIG A   1      -4.349   3.527 133.255  0.00  0.00    +0.344 C 
ATOM     10  O   LIG A   1      -3.830   3.097 134.277  0.00  0.00    -0.245 OA
ATOM     11  O   LIG A   1      -4.299   2.633 129.369  0.00  0.00    -0.286 OA
ATOM     12  C   LIG A   1      -7.252   4.619 129.967  0.00  0.00    +0.011 C 
ATOM     13  C   LIG A   1      -6.801   5.262 131.207  0.00  0.00    +0.027 C 
ATOM     14  C   LIG A   1      -7.457   6.368 131.592  0.00  0.00    +0.204 C 
ATOM     15  O   LIG A   1      -8.589   6.847 130.960  0.00  0.00    -0.463 OA
ATOM     16  C   LIG A   1      -9.218   6.019 130.027  0.00  0.00    +0.128 C 
ATOM     17  C   LIG A   1      -8.605   4.936 129.512  0.00  0.00    +0.056 C 
ENDROOT
BRANCH   8  18
ATOM     18  C   LIG A   1      -6.782   4.116 134.142  0.00  0.00    +0.177 C 
ATOM     19  O   LIG A   1      -6.745   4.890 135.098  0.00  0.00    -0.291 OA
BRANCH  18  20
ATOM     20  C   LIG A   1      -7.909   3.084 134.049  0.00  0.00    +0.098 C 
ATOM     21  C   LIG A   1      -9.160   3.904 133.738  0.00  0.00    +0.020 C 
BRANCH  20  22
ATOM     22  C   LIG A   1      -7.639   2.012 132.958  0.00  0.00    +0.184 C 
ATOM     23  C   LIG A   1      -8.897   1.595 132.185  0.00  0.00    +0.052 C 
BRANCH  22  24
ATOM     24  O   LIG A   1      -7.144   0.808 133.593  0.00  0.00    -0.459 OA
BRANCH  24  25
ATOM     25  C   LIG A   1      -6.286   0.071 132.825  0.00  0.00    +0.341 C 
ATOM     26  O   LIG A   1      -5.496   0.559 132.040  0.00  0.00    -0.247 OA
BRANCH  25  27
ATOM     27  C   LIG A   1      -6.472  -1.440 133.018  0.00  0.00    +0.256 C 
BRANCH  27  28
ATOM     28  C   LIG A   1      -6.775  -2.147 131.701  0.00  0.00    -0.008 A 
ATOM     29  C   LIG A   1      -7.746  -1.654 130.816  0.00  0.00    +0.007 A 
ATOM     30  C   LIG A   1      -8.067  -2.345 129.645  0.00  0.00    +0.000 A 
ATOM     31  C   LIG A   1      -7.388  -3.512 129.314  0.00  0.00    +0.000 A 
ATOM     32  C   LIG A   1      -6.383  -3.987 130.151  0.00  0.00    +0.000 A 
ATOM     33  C   LIG A   1      -6.081  -3.313 131.338  0.00  0.00    +0.007 A 
ENDBRANCH  27  28
BRANCH  27  34
ATOM     34  O   LIG A   1      -7.524  -1.748 133.950  0.00  0.00    -0.364 OA
ATOM     35  C   LIG A   1      -7.131  -2.617 135.009  0.00  0.00    +0.195 C 
ENDBRANCH  27  34
ENDBRANCH  25  27
ENDBRANCH  24  25
ENDBRANCH  22  24
ENDBRANCH  20  22
ENDBRANCH  18  20
ENDBRANCH   8  18
BRANCH  16  36
ATOM     36  C   LIG A   1     -10.575   6.395 129.692  0.00  0.00    +0.042 C 
ATOM     37  C   LIG A   1     -11.285   7.322 130.356  0.00  0.00    -0.020 C 
BRANCH  37  38
ATOM     38  C   LIG A   1     -12.711   7.688 130.032  0.00  0.00    +0.008 C 
ATOM     39  C   LIG A   1     -12.757   9.172 129.658  0.00  0.00    +0.012 C 
BRANCH  38  40
ATOM     40  C   LIG A   1     -13.263   6.814 128.890  0.00  0.00    +0.004 C 
ATOM     41  C   LIG A   1     -13.760   7.628 127.699  0.00  0.00    +0.004 C 
ENDBRANCH  38  40
ENDBRANCH  37  38
ENDBRANCH  16  36
TORSDOF 11
ENDMDL
