MODEL 1
REMARK VINA RESULT:      -9.4      0.000      0.000
REMARK  Name = NuBBE_1483
REMARK  5 active torsions:
REMARK  status: ('A' for Active; 'I' for Inactive)
REMARK    1  A    between atoms: C_1  and  C_2
REMARK    2  A    between atoms: C_2  and  C_4
REMARK    3  A    between atoms: C_9  and  C_10
REMARK    4  A    between atoms: C_16  and  O_17
REMARK    5  A    between atoms: C_23  and  O_24
REMARK                            x       y       z     vdW  Elec       q    Type
REMARK                         _______ _______ _______ _____ _____    ______ ____
ROOT
ATOM      1  C   LIG A   1      -8.840  -1.440 122.780  0.00  0.00    +0.060 C 
ATOM      2  C   LIG A   1      -7.447  -1.137 123.345  0.00  0.00    +0.123 C 
ATOM      3  O   LIG A   1      -7.224   0.279 123.247  0.00  0.00    -0.481 OA
ATOM      4  C   LIG A   1      -6.380  -1.785 122.455  0.00  0.00    +0.060 C 
ATOM      5  C   LIG A   1      -7.322  -1.676 124.747  0.00  0.00    +0.020 C 
ATOM      6  C   LIG A   1      -7.376  -0.889 125.825  0.00  0.00    +0.013 C 
ATOM      7  C   LIG A   1      -7.598   0.547 125.637  0.00  0.00    +0.041 A 
ATOM      8  C   LIG A   1      -7.501   1.075 124.334  0.00  0.00    +0.142 A 
ATOM      9  C   LIG A   1      -7.617   2.462 124.082  0.00  0.00    +0.067 A 
ATOM     10  C   LIG A   1      -7.846   3.312 125.180  0.00  0.00    +0.141 A 
ATOM     11  C   LIG A   1      -7.965   2.795 126.481  0.00  0.00    +0.088 A 
ATOM     12  C   LIG A   1      -7.870   1.411 126.720  0.00  0.00    +0.065 A 
ATOM     13  N   LIG A   1      -7.945   0.922 128.051  0.00  0.00    -0.350 N 
ATOM     14  H   LIG A   1      -8.389   0.007 128.113  0.00  0.00    +0.166 HD
ATOM     15  C   LIG A   1      -8.264   1.749 129.147  0.00  0.00    +0.093 A 
ATOM     16  C   LIG A   1      -8.363   1.224 130.440  0.00  0.00    +0.141 A 
ATOM     17  C   LIG A   1      -8.678   2.030 131.530  0.00  0.00    +0.047 A 
ATOM     18  C   LIG A   1      -8.848   3.402 131.346  0.00  0.00    +0.004 A 
ATOM     19  C   LIG A   1      -8.694   3.959 130.076  0.00  0.00    +0.014 A 
ATOM     20  C   LIG A   1      -8.393   3.131 128.986  0.00  0.00    +0.049 A 
ATOM     21  C   LIG A   1      -8.227   3.699 127.633  0.00  0.00    +0.201 A 
ATOM     22  O   LIG A   1      -8.315   4.912 127.451  0.00  0.00    -0.286 OA
ENDROOT
BRANCH   9  23
ATOM     23  C   LIG A   1      -7.503   2.997 122.708  0.00  0.00    -0.011 A 
ATOM     24  C   LIG A   1      -8.643   3.196 121.912  0.00  0.00    +0.009 A 
ATOM     25  C   LIG A   1      -8.536   3.709 120.617  0.00  0.00    +0.001 A 
ATOM     26  C   LIG A   1      -7.285   4.033 120.097  0.00  0.00    +0.000 A 
ATOM     27  C   LIG A   1      -6.142   3.842 120.869  0.00  0.00    +0.001 A 
ATOM     28  C   LIG A   1      -6.251   3.328 122.164  0.00  0.00    +0.009 A 
ENDBRANCH   9  23
BRANCH  10  29
ATOM     29  O   LIG A   1      -7.962   4.662 124.936  0.00  0.00    -0.505 OA
ATOM     30  H   LIG A   1      -8.379   4.789 124.054  0.00  0.00    +0.292 HD
ENDBRANCH  10  29
BRANCH  16  31
ATOM     31  O   LIG A   1      -8.116  -0.100 130.675  0.00  0.00    -0.505 OA
ATOM     32  H   LIG A   1      -8.819  -0.403 131.278  0.00  0.00    +0.292 HD
ENDBRANCH  16  31
TORSDOF 3
ENDMDL
MODEL 2
REMARK VINA RESULT:      -9.3      2.581      2.639
REMARK  Name = NuBBE_1483
REMARK  5 active torsions:
REMARK  status: ('A' for Active; 'I' for Inactive)
REMARK    1  A    between atoms: C_1  and  C_2
REMARK    2  A    between atoms: C_2  and  C_4
REMARK    3  A    between atoms: C_9  and  C_10
REMARK    4  A    between atoms: C_16  and  O_17
REMARK    5  A    between atoms: C_23  and  O_24
REMARK                            x       y       z     vdW  Elec       q    Type
REMARK                         _______ _______ _______ _____ _____    ______ ____
ROOT
ATOM      1  C   LIG A   1      -8.582  -0.857 123.830  0.00  0.00    +0.060 C 
ATOM      2  C   LIG A   1      -7.065  -0.748 123.641  0.00  0.00    +0.123 C 
ATOM      3  O   LIG A   1      -6.762   0.594 123.225  0.00  0.00    -0.481 OA
ATOM      4  C   LIG A   1      -6.626  -1.648 122.480  0.00  0.00    +0.060 C 
ATOM      5  C   LIG A   1      -6.348  -1.170 124.898  0.00  0.00    +0.020 C 
ATOM      6  C   LIG A   1      -5.797  -0.291 125.740  0.00  0.00    +0.013 C 
ATOM      7  C   LIG A   1      -5.925   1.139 125.445  0.00  0.00    +0.041 A 
ATOM      8  C   LIG A   1      -6.401   1.521 124.175  0.00  0.00    +0.142 A 
ATOM      9  C   LIG A   1      -6.472   2.879 123.785  0.00  0.00    +0.067 A 
ATOM     10  C   LIG A   1      -6.057   3.851 124.713  0.00  0.00    +0.141 A 
ATOM     11  C   LIG A   1      -5.600   3.484 125.989  0.00  0.00    +0.088 A 
ATOM     12  C   LIG A   1      -5.554   2.131 126.379  0.00  0.00    +0.065 A 
ATOM     13  N   LIG A   1      -5.040   1.785 127.655  0.00  0.00    -0.350 N 
ATOM     14  H   LIG A   1      -5.498   0.970 128.060  0.00  0.00    +0.166 HD
ATOM     15  C   LIG A   1      -4.708   2.751 128.628  0.00  0.00    +0.093 A 
ATOM     16  C   LIG A   1      -4.237   2.371 129.889  0.00  0.00    +0.141 A 
ATOM     17  C   LIG A   1      -3.908   3.315 130.857  0.00  0.00    +0.047 A 
ATOM     18  C   LIG A   1      -3.994   4.673 130.553  0.00  0.00    +0.004 A 
ATOM     19  C   LIG A   1      -4.402   5.077 129.280  0.00  0.00    +0.014 A 
ATOM     20  C   LIG A   1      -4.747   4.114 128.323  0.00  0.00    +0.049 A 
ATOM     21  C   LIG A   1      -5.183   4.520 126.971  0.00  0.00    +0.201 A 
ATOM     22  O   LIG A   1      -5.215   5.709 126.657  0.00  0.00    -0.286 OA
ENDROOT
BRANCH   9  23
ATOM     23  C   LIG A   1      -6.966   3.259 122.444  0.00  0.00    -0.011 A 
ATOM     24  C   LIG A   1      -8.341   3.273 122.156  0.00  0.00    +0.009 A 
ATOM     25  C   LIG A   1      -8.809   3.640 120.893  0.00  0.00    +0.001 A 
ATOM     26  C   LIG A   1      -7.908   4.001 119.893  0.00  0.00    +0.000 A 
ATOM     27  C   LIG A   1      -6.540   3.992 120.156  0.00  0.00    +0.001 A 
ATOM     28  C   LIG A   1      -6.074   3.624 121.422  0.00  0.00    +0.009 A 
ENDBRANCH   9  23
BRANCH  10  29
ATOM     29  O   LIG A   1      -6.128   5.174 124.335  0.00  0.00    -0.505 OA
ATOM     30  H   LIG A   1      -5.263   5.603 124.526  0.00  0.00    +0.292 HD
ENDBRANCH  10  29
BRANCH  16  31
ATOM     31  O   LIG A   1      -4.054   1.051 130.195  0.00  0.00    -0.505 OA
ATOM     32  H   LIG A   1      -3.764   0.620 129.371  0.00  0.00    +0.292 HD
ENDBRANCH  16  31
TORSDOF 3
ENDMDL
MODEL 3
REMARK VINA RESULT:      -8.7      2.315      4.688
REMARK  Name = NuBBE_1483
REMARK  5 active torsions:
REMARK  status: ('A' for Active; 'I' for Inactive)
REMARK    1  A    between atoms: C_1  and  C_2
REMARK    2  A    between atoms: C_2  and  C_4
REMARK    3  A    between atoms: C_9  and  C_10
REMARK    4  A    between atoms: C_16  and  O_17
REMARK    5  A    between atoms: C_23  and  O_24
REMARK                            x       y       z     vdW  Elec       q    Type
REMARK                         _______ _______ _______ _____ _____    ______ ____
ROOT
ATOM      1  C   LIG A   1      -3.833   3.760 125.433  0.00  0.00    +0.060 C 
ATOM      2  C   LIG A   1      -5.239   4.059 125.968  0.00  0.00    +0.123 C 
ATOM      3  O   LIG A   1      -6.192   3.613 124.990  0.00  0.00    -0.481 OA
ATOM      4  C   LIG A   1      -5.436   5.576 126.074  0.00  0.00    +0.060 C 
ATOM      5  C   LIG A   1      -5.426   3.436 127.327  0.00  0.00    +0.020 C 
ATOM      6  C   LIG A   1      -6.142   2.323 127.514  0.00  0.00    +0.013 C 
ATOM      7  C   LIG A   1      -6.738   1.667 126.347  0.00  0.00    +0.041 A 
ATOM      8  C   LIG A   1      -6.744   2.359 125.120  0.00  0.00    +0.142 A 
ATOM      9  C   LIG A   1      -7.376   1.830 123.971  0.00  0.00    +0.067 A 
ATOM     10  C   LIG A   1      -7.999   0.574 124.083  0.00  0.00    +0.141 A 
ATOM     11  C   LIG A   1      -7.982  -0.135 125.296  0.00  0.00    +0.088 A 
ATOM     12  C   LIG A   1      -7.331   0.388 126.430  0.00  0.00    +0.065 A 
ATOM     13  N   LIG A   1      -7.373  -0.326 127.655  0.00  0.00    -0.350 N 
ATOM     14  H   LIG A   1      -6.526  -0.213 128.209  0.00  0.00    +0.166 HD
ATOM     15  C   LIG A   1      -7.912  -1.625 127.759  0.00  0.00    +0.093 A 
ATOM     16  C   LIG A   1      -7.904  -2.313 128.978  0.00  0.00    +0.141 A 
ATOM     17  C   LIG A   1      -8.432  -3.595 129.093  0.00  0.00    +0.047 A 
ATOM     18  C   LIG A   1      -9.034  -4.194 127.986  0.00  0.00    +0.004 A 
ATOM     19  C   LIG A   1      -9.110  -3.503 126.776  0.00  0.00    +0.014 A 
ATOM     20  C   LIG A   1      -8.558  -2.220 126.672  0.00  0.00    +0.049 A 
ATOM     21  C   LIG A   1      -8.625  -1.472 125.400  0.00  0.00    +0.201 A 
ATOM     22  O   LIG A   1      -9.200  -1.953 124.425  0.00  0.00    -0.286 OA
ENDROOT
BRANCH   9  23
ATOM     23  C   LIG A   1      -7.380   2.576 122.694  0.00  0.00    -0.011 A 
ATOM     24  C   LIG A   1      -6.186   2.816 121.992  0.00  0.00    +0.009 A 
ATOM     25  C   LIG A   1      -6.190   3.513 120.782  0.00  0.00    +0.001 A 
ATOM     26  C   LIG A   1      -7.389   3.984 120.252  0.00  0.00    +0.000 A 
ATOM     27  C   LIG A   1      -8.584   3.759 120.933  0.00  0.00    +0.001 A 
ATOM     28  C   LIG A   1      -8.578   3.061 122.144  0.00  0.00    +0.009 A 
ENDBRANCH   9  23
BRANCH  10  29
ATOM     29  O   LIG A   1      -8.613   0.056 122.964  0.00  0.00    -0.505 OA
ATOM     30  H   LIG A   1      -9.560   0.323 122.972  0.00  0.00    +0.292 HD
ENDBRANCH  10  29
BRANCH  16  31
ATOM     31  O   LIG A   1      -7.404  -1.724 130.106  0.00  0.00    -0.505 OA
ATOM     32  H   LIG A   1      -6.755  -2.352 130.473  0.00  0.00    +0.292 HD
ENDBRANCH  16  31
TORSDOF 3
ENDMDL
MODEL 4
REMARK VINA RESULT:      -8.5      2.802      7.779
REMARK  Name = NuBBE_1483
REMARK  5 active torsions:
REMARK  status: ('A' for Active; 'I' for Inactive)
REMARK    1  A    between atoms: C_1  and  C_2
REMARK    2  A    between atoms: C_2  and  C_4
REMARK    3  A    between atoms: C_9  and  C_10
REMARK    4  A    between atoms: C_16  and  O_17
REMARK    5  A    between atoms: C_23  and  O_24
REMARK                            x       y       z     vdW  Elec       q    Type
REMARK                         _______ _______ _______ _____ _____    ______ ____
ROOT
ATOM      1  C   LIG A   1      -4.877   5.780 129.718  0.00  0.00    +0.060 C 
ATOM      2  C   LIG A   1      -4.300   4.464 129.182  0.00  0.00    +0.123 C 
ATOM      3  O   LIG A   1      -5.390   3.555 128.962  0.00  0.00    -0.481 OA
ATOM      4  C   LIG A   1      -3.428   3.809 130.261  0.00  0.00    +0.060 C 
ATOM      5  C   LIG A   1      -3.464   4.720 127.955  0.00  0.00    +0.020 C 
ATOM      6  C   LIG A   1      -3.898   4.444 126.721  0.00  0.00    +0.013 C 
ATOM      7  C   LIG A   1      -5.250   3.903 126.557  0.00  0.00    +0.041 A 
ATOM      8  C   LIG A   1      -5.941   3.467 127.705  0.00  0.00    +0.142 A 
ATOM      9  C   LIG A   1      -7.214   2.855 127.619  0.00  0.00    +0.067 A 
ATOM     10  C   LIG A   1      -7.783   2.699 126.342  0.00  0.00    +0.141 A 
ATOM     11  C   LIG A   1      -7.113   3.148 125.192  0.00  0.00    +0.088 A 
ATOM     12  C   LIG A   1      -5.856   3.777 125.288  0.00  0.00    +0.065 A 
ATOM     13  N   LIG A   1      -5.179   4.175 124.106  0.00  0.00    -0.350 N 
ATOM     14  H   LIG A   1      -4.626   5.021 124.231  0.00  0.00    +0.166 HD
ATOM     15  C   LIG A   1      -5.776   4.109 122.830  0.00  0.00    +0.093 A 
ATOM     16  C   LIG A   1      -5.090   4.543 121.691  0.00  0.00    +0.141 A 
ATOM     17  C   LIG A   1      -5.668   4.484 120.426  0.00  0.00    +0.047 A 
ATOM     18  C   LIG A   1      -6.939   3.930 120.275  0.00  0.00    +0.004 A 
ATOM     19  C   LIG A   1      -7.618   3.433 121.389  0.00  0.00    +0.014 A 
ATOM     20  C   LIG A   1      -7.029   3.516 122.657  0.00  0.00    +0.049 A 
ATOM     21  C   LIG A   1      -7.732   2.998 123.848  0.00  0.00    +0.201 A 
ATOM     22  O   LIG A   1      -8.829   2.453 123.737  0.00  0.00    -0.286 OA
ENDROOT
BRANCH   9  23
ATOM     23  C   LIG A   1      -7.919   2.396 128.835  0.00  0.00    -0.011 A 
ATOM     24  C   LIG A   1      -7.729   1.097 129.336  0.00  0.00    +0.009 A 
ATOM     25  C   LIG A   1      -8.388   0.666 130.489  0.00  0.00    +0.001 A 
ATOM     26  C   LIG A   1      -9.251   1.528 131.162  0.00  0.00    +0.000 A 
ATOM     27  C   LIG A   1      -9.456   2.819 130.682  0.00  0.00    +0.001 A 
ATOM     28  C   LIG A   1      -8.795   3.249 129.528  0.00  0.00    +0.009 A 
ENDBRANCH   9  23
BRANCH  10  29
ATOM     29  O   LIG A   1      -9.023   2.106 126.258  0.00  0.00    -0.505 OA
ATOM     30  H   LIG A   1      -9.678   2.677 126.718  0.00  0.00    +0.292 HD
ENDBRANCH  10  29
BRANCH  16  31
ATOM     31  O   LIG A   1      -3.807   5.010 121.785  0.00  0.00    -0.505 OA
ATOM     32  H   LIG A   1      -3.243   4.336 121.365  0.00  0.00    +0.292 HD
ENDBRANCH  16  31
TORSDOF 3
ENDMDL
MODEL 5
REMARK VINA RESULT:      -8.4      5.596      8.962
REMARK  Name = NuBBE_1483
REMARK  5 active torsions:
REMARK  status: ('A' for Active; 'I' for Inactive)
REMARK    1  A    between atoms: C_1  and  C_2
REMARK    2  A    between atoms: C_2  and  C_4
REMARK    3  A    between atoms: C_9  and  C_10
REMARK    4  A    between atoms: C_16  and  O_17
REMARK    5  A    between atoms: C_23  and  O_24
REMARK                            x       y       z     vdW  Elec       q    Type
REMARK                         _______ _______ _______ _____ _____    ______ ____
ROOT
ATOM      1  C   LIG A   1      -4.063   5.103 129.766  0.00  0.00    +0.060 C 
ATOM      2  C   LIG A   1      -5.106   3.979 129.774  0.00  0.00    +0.123 C 
ATOM      3  O   LIG A   1      -5.846   4.066 131.002  0.00  0.00    -0.481 OA
ATOM      4  C   LIG A   1      -4.397   2.620 129.816  0.00  0.00    +0.060 C 
ATOM      5  C   LIG A   1      -5.967   4.054 128.539  0.00  0.00    +0.020 C 
ATOM      6  C   LIG A   1      -7.217   4.526 128.564  0.00  0.00    +0.013 C 
ATOM      7  C   LIG A   1      -7.757   5.021 129.834  0.00  0.00    +0.041 A 
ATOM      8  C   LIG A   1      -7.038   4.754 131.016  0.00  0.00    +0.142 A 
ATOM      9  C   LIG A   1      -7.535   5.123 132.288  0.00  0.00    +0.067 A 
ATOM     10  C   LIG A   1      -8.778   5.779 132.342  0.00  0.00    +0.141 A 
ATOM     11  C   LIG A   1      -9.495   6.068 131.169  0.00  0.00    +0.088 A 
ATOM     12  C   LIG A   1      -8.982   5.718 129.904  0.00  0.00    +0.065 A 
ATOM     13  N   LIG A   1      -9.750   5.978 128.740  0.00  0.00    -0.350 N 
ATOM     14  H   LIG A   1      -9.177   6.205 127.929  0.00  0.00    +0.166 HD
ATOM     15  C   LIG A   1     -10.952   6.715 128.771  0.00  0.00    +0.093 A 
ATOM     16  C   LIG A   1     -11.664   6.981 127.597  0.00  0.00    +0.141 A 
ATOM     17  C   LIG A   1     -12.851   7.708 127.614  0.00  0.00    +0.047 A 
ATOM     18  C   LIG A   1     -13.377   8.139 128.832  0.00  0.00    +0.004 A 
ATOM     19  C   LIG A   1     -12.716   7.832 130.023  0.00  0.00    +0.014 A 
ATOM     20  C   LIG A   1     -11.514   7.114 129.986  0.00  0.00    +0.049 A 
ATOM     21  C   LIG A   1     -10.798   6.781 131.235  0.00  0.00    +0.201 A 
ATOM     22  O   LIG A   1     -11.268   7.098 132.326  0.00  0.00    -0.286 OA
ENDROOT
BRANCH   9  23
ATOM     23  C   LIG A   1      -6.770   4.826 133.518  0.00  0.00    -0.011 A 
ATOM     24  C   LIG A   1      -6.876   3.577 134.153  0.00  0.00    +0.009 A 
ATOM     25  C   LIG A   1      -6.147   3.293 135.310  0.00  0.00    +0.001 A 
ATOM     26  C   LIG A   1      -5.298   4.255 135.852  0.00  0.00    +0.000 A 
ATOM     27  C   LIG A   1      -5.179   5.500 135.240  0.00  0.00    +0.001 A 
ATOM     28  C   LIG A   1      -5.910   5.782 134.082  0.00  0.00    +0.009 A 
ENDBRANCH   9  23
BRANCH  10  29
ATOM     29  O   LIG A   1      -9.262   6.140 133.580  0.00  0.00    -0.505 OA
ATOM     30  H   LIG A   1      -8.571   5.956 134.255  0.00  0.00    +0.292 HD
ENDBRANCH  10  29
BRANCH  16  31
ATOM     31  O   LIG A   1     -11.228   6.499 126.393  0.00  0.00    -0.505 OA
ATOM     32  H   LIG A   1     -10.680   5.720 126.596  0.00  0.00    +0.292 HD
ENDBRANCH  16  31
TORSDOF 3
ENDMDL
MODEL 6
REMARK VINA RESULT:      -8.3      8.019     10.380
REMARK  Name = NuBBE_1483
REMARK  5 active torsions:
REMARK  status: ('A' for Active; 'I' for Inactive)
REMARK    1  A    between atoms: C_1  and  C_2
REMARK    2  A    between atoms: C_2  and  C_4
REMARK    3  A    between atoms: C_9  and  C_10
REMARK    4  A    between atoms: C_16  and  O_17
REMARK    5  A    between atoms: C_23  and  O_24
REMARK                            x       y       z     vdW  Elec       q    Type
REMARK                         _______ _______ _______ _____ _____    ______ ____
ROOT
ATOM      1  C   LIG A   1      -2.918   8.123 132.788  0.00  0.00    +0.060 C 
ATOM      2  C   LIG A   1      -3.229   6.954 131.846  0.00  0.00    +0.123 C 
ATOM      3  O   LIG A   1      -3.926   5.948 132.599  0.00  0.00    -0.481 OA
ATOM      4  C   LIG A   1      -1.919   6.296 131.395  0.00  0.00    +0.060 C 
ATOM      5  C   LIG A   1      -3.984   7.441 130.637  0.00  0.00    +0.020 C 
ATOM      6  C   LIG A   1      -5.298   7.249 130.486  0.00  0.00    +0.013 C 
ATOM      7  C   LIG A   1      -6.036   6.570 131.554  0.00  0.00    +0.041 A 
ATOM      8  C   LIG A   1      -5.302   5.931 132.574  0.00  0.00    +0.142 A 
ATOM      9  C   LIG A   1      -5.938   5.183 133.591  0.00  0.00    +0.067 A 
ATOM     10  C   LIG A   1      -7.342   5.098 133.564  0.00  0.00    +0.141 A 
ATOM     11  C   LIG A   1      -8.086   5.747 132.565  0.00  0.00    +0.088 A 
ATOM     12  C   LIG A   1      -7.446   6.510 131.568  0.00  0.00    +0.065 A 
ATOM     13  N   LIG A   1      -8.219   7.113 130.542  0.00  0.00    -0.350 N 
ATOM     14  H   LIG A   1      -7.834   8.001 130.225  0.00  0.00    +0.166 HD
ATOM     15  C   LIG A   1      -9.629   7.114 130.554  0.00  0.00    +0.093 A 
ATOM     16  C   LIG A   1     -10.357   7.750 129.542  0.00  0.00    +0.141 A 
ATOM     17  C   LIG A   1     -11.749   7.759 129.543  0.00  0.00    +0.047 A 
ATOM     18  C   LIG A   1     -12.441   7.075 130.542  0.00  0.00    +0.004 A 
ATOM     19  C   LIG A   1     -11.737   6.381 131.527  0.00  0.00    +0.014 A 
ATOM     20  C   LIG A   1     -10.336   6.396 131.522  0.00  0.00    +0.049 A 
ATOM     21  C   LIG A   1      -9.571   5.670 132.556  0.00  0.00    +0.201 A 
ATOM     22  O   LIG A   1     -10.155   5.012 133.415  0.00  0.00    -0.286 OA
ENDROOT
BRANCH   9  23
ATOM     23  C   LIG A   1      -5.150   4.512 134.647  0.00  0.00    -0.011 A 
ATOM     24  C   LIG A   1      -4.840   5.172 135.848  0.00  0.00    +0.009 A 
ATOM     25  C   LIG A   1      -4.102   4.536 136.850  0.00  0.00    +0.001 A 
ATOM     26  C   LIG A   1      -3.662   3.227 136.667  0.00  0.00    +0.000 A 
ATOM     27  C   LIG A   1      -3.956   2.555 135.483  0.00  0.00    +0.001 A 
ATOM     28  C   LIG A   1      -4.695   3.194 134.482  0.00  0.00    +0.009 A 
ENDBRANCH   9  23
BRANCH  10  29
ATOM     29  O   LIG A   1      -7.964   4.371 134.555  0.00  0.00    -0.505 OA
ATOM     30  H   LIG A   1      -7.913   4.878 135.397  0.00  0.00    +0.292 HD
ENDBRANCH  10  29
BRANCH  16  31
ATOM     31  O   LIG A   1      -9.715   8.356 128.497  0.00  0.00    -0.505 OA
ATOM     32  H   LIG A   1      -9.617   7.674 127.808  0.00  0.00    +0.292 HD
ENDBRANCH  16  31
TORSDOF 3
ENDMDL
MODEL 7
REMARK VINA RESULT:      -8.2      3.033      7.761
REMARK  Name = NuBBE_1483
REMARK  5 active torsions:
REMARK  status: ('A' for Active; 'I' for Inactive)
REMARK    1  A    between atoms: C_1  and  C_2
REMARK    2  A    between atoms: C_2  and  C_4
REMARK    3  A    between atoms: C_9  and  C_10
REMARK    4  A    between atoms: C_16  and  O_17
REMARK    5  A    between atoms: C_23  and  O_24
REMARK                            x       y       z     vdW  Elec       q    Type
REMARK                         _______ _______ _______ _____ _____    ______ ____
ROOT
ATOM      1  C   LIG A   1      -5.042  -2.206 131.866  0.00  0.00    +0.060 C 
ATOM      2  C   LIG A   1      -6.541  -2.517 131.771  0.00  0.00    +0.123 C 
ATOM      3  O   LIG A   1      -7.241  -1.280 131.563  0.00  0.00    -0.481 OA
ATOM      4  C   LIG A   1      -7.041  -3.052 133.118  0.00  0.00    +0.060 C 
ATOM      5  C   LIG A   1      -6.795  -3.547 130.701  0.00  0.00    +0.020 C 
ATOM      6  C   LIG A   1      -7.301  -3.229 129.505  0.00  0.00    +0.013 C 
ATOM      7  C   LIG A   1      -7.587  -1.821 129.215  0.00  0.00    +0.041 A 
ATOM      8  C   LIG A   1      -7.552  -0.897 130.278  0.00  0.00    +0.142 A 
ATOM      9  C   LIG A   1      -7.900   0.461 130.095  0.00  0.00    +0.067 A 
ATOM     10  C   LIG A   1      -8.277   0.875 128.804  0.00  0.00    +0.141 A 
ATOM     11  C   LIG A   1      -8.296  -0.032 127.732  0.00  0.00    +0.088 A 
ATOM     12  C   LIG A   1      -7.927  -1.379 127.918  0.00  0.00    +0.065 A 
ATOM     13  N   LIG A   1      -8.004  -2.285 126.828  0.00  0.00    -0.350 N 
ATOM     14  H   LIG A   1      -7.282  -3.003 126.857  0.00  0.00    +0.166 HD
ATOM     15  C   LIG A   1      -8.291  -1.867 125.512  0.00  0.00    +0.093 A 
ATOM     16  C   LIG A   1      -8.323  -2.784 124.456  0.00  0.00    +0.141 A 
ATOM     17  C   LIG A   1      -8.604  -2.384 123.153  0.00  0.00    +0.047 A 
ATOM     18  C   LIG A   1      -8.915  -1.049 122.894  0.00  0.00    +0.004 A 
ATOM     19  C   LIG A   1      -8.950  -0.127 123.941  0.00  0.00    +0.014 A 
ATOM     20  C   LIG A   1      -8.647  -0.542 125.244  0.00  0.00    +0.049 A 
ATOM     21  C   LIG A   1      -8.676   0.418 126.366  0.00  0.00    +0.201 A 
ATOM     22  O   LIG A   1      -9.002   1.588 126.177  0.00  0.00    -0.286 OA
ENDROOT
BRANCH   9  23
ATOM     23  C   LIG A   1      -7.865   1.414 131.226  0.00  0.00    -0.011 A 
ATOM     24  C   LIG A   1      -9.015   1.667 131.994  0.00  0.00    +0.009 A 
ATOM     25  C   LIG A   1      -8.981   2.559 133.068  0.00  0.00    +0.001 A 
ATOM     26  C   LIG A   1      -7.795   3.215 133.392  0.00  0.00    +0.000 A 
ATOM     27  C   LIG A   1      -6.645   2.981 132.642  0.00  0.00    +0.001 A 
ATOM     28  C   LIG A   1      -6.681   2.087 131.568  0.00  0.00    +0.009 A 
ENDBRANCH   9  23
BRANCH  10  29
ATOM     29  O   LIG A   1      -8.613   2.198 128.624  0.00  0.00    -0.505 OA
ATOM     30  H   LIG A   1      -8.040   2.751 129.202  0.00  0.00    +0.292 HD
ENDBRANCH  10  29
BRANCH  16  31
ATOM     31  O   LIG A   1      -8.112  -4.116 124.684  0.00  0.00    -0.505 OA
ATOM     32  H   LIG A   1      -7.955  -4.518 123.810  0.00  0.00    +0.292 HD
ENDBRANCH  16  31
TORSDOF 3
ENDMDL
MODEL 8
REMARK VINA RESULT:      -8.1      3.372      5.826
REMARK  Name = NuBBE_1483
REMARK  5 active torsions:
REMARK  status: ('A' for Active; 'I' for Inactive)
REMARK    1  A    between atoms: C_1  and  C_2
REMARK    2  A    between atoms: C_2  and  C_4
REMARK    3  A    between atoms: C_9  and  C_10
REMARK    4  A    between atoms: C_16  and  O_17
REMARK    5  A    between atoms: C_23  and  O_24
REMARK                            x       y       z     vdW  Elec       q    Type
REMARK                         _______ _______ _______ _____ _____    ______ ____
ROOT
ATOM      1  C   LIG A   1      -7.419   4.518 124.304  0.00  0.00    +0.060 C 
ATOM      2  C   LIG A   1      -6.528   3.390 123.770  0.00  0.00    +0.123 C 
ATOM      3  O   LIG A   1      -5.596   3.031 124.803  0.00  0.00    -0.481 OA
ATOM      4  C   LIG A   1      -5.674   3.916 122.610  0.00  0.00    +0.060 C 
ATOM      5  C   LIG A   1      -7.371   2.239 123.286  0.00  0.00    +0.020 C 
ATOM      6  C   LIG A   1      -7.513   1.110 123.986  0.00  0.00    +0.013 C 
ATOM      7  C   LIG A   1      -6.850   1.002 125.288  0.00  0.00    +0.041 A 
ATOM      8  C   LIG A   1      -5.898   1.980 125.638  0.00  0.00    +0.142 A 
ATOM      9  C   LIG A   1      -5.154   1.898 126.838  0.00  0.00    +0.067 A 
ATOM     10  C   LIG A   1      -5.398   0.805 127.689  0.00  0.00    +0.141 A 
ATOM     11  C   LIG A   1      -6.359  -0.166 127.361  0.00  0.00    +0.088 A 
ATOM     12  C   LIG A   1      -7.112  -0.065 126.175  0.00  0.00    +0.065 A 
ATOM     13  N   LIG A   1      -8.040  -1.086 125.844  0.00  0.00    -0.350 N 
ATOM     14  H   LIG A   1      -8.857  -0.734 125.348  0.00  0.00    +0.166 HD
ATOM     15  C   LIG A   1      -8.361  -2.136 126.729  0.00  0.00    +0.093 A 
ATOM     16  C   LIG A   1      -9.308  -3.106 126.382  0.00  0.00    +0.141 A 
ATOM     17  C   LIG A   1      -9.634  -4.147 127.247  0.00  0.00    +0.047 A 
ATOM     18  C   LIG A   1      -8.967  -4.264 128.467  0.00  0.00    +0.004 A 
ATOM     19  C   LIG A   1      -7.975  -3.344 128.808  0.00  0.00    +0.014 A 
ATOM     20  C   LIG A   1      -7.671  -2.292 127.934  0.00  0.00    +0.049 A 
ATOM     21  C   LIG A   1      -6.625  -1.306 128.277  0.00  0.00    +0.201 A 
ATOM     22  O   LIG A   1      -5.982  -1.417 129.320  0.00  0.00    -0.286 OA
ENDROOT
BRANCH   9  23
ATOM     23  C   LIG A   1      -4.152   2.931 127.183  0.00  0.00    -0.011 A 
ATOM     24  C   LIG A   1      -2.820   2.819 126.753  0.00  0.00    +0.009 A 
ATOM     25  C   LIG A   1      -1.875   3.797 127.071  0.00  0.00    +0.001 A 
ATOM     26  C   LIG A   1      -2.249   4.907 127.826  0.00  0.00    +0.000 A 
ATOM     27  C   LIG A   1      -3.565   5.037 128.265  0.00  0.00    +0.001 A 
ATOM     28  C   LIG A   1      -4.508   4.056 127.945  0.00  0.00    +0.009 A 
ENDBRANCH   9  23
BRANCH  10  29
ATOM     29  O   LIG A   1      -4.676   0.726 128.859  0.00  0.00    -0.505 OA
ATOM     30  H   LIG A   1      -4.580   1.631 129.233  0.00  0.00    +0.292 HD
ENDBRANCH  10  29
BRANCH  16  31
ATOM     31  O   LIG A   1      -9.918  -3.078 125.159  0.00  0.00    -0.505 OA
ATOM     32  H   LIG A   1     -10.870  -3.200 125.329  0.00  0.00    +0.292 HD
ENDBRANCH  16  31
TORSDOF 3
ENDMDL
MODEL 9
REMARK VINA RESULT:      -8.1      3.045      8.121
REMARK  Name = NuBBE_1483
REMARK  5 active torsions:
REMARK  status: ('A' for Active; 'I' for Inactive)
REMARK    1  A    between atoms: C_1  and  C_2
REMARK    2  A    between atoms: C_2  and  C_4
REMARK    3  A    between atoms: C_9  and  C_10
REMARK    4  A    between atoms: C_16  and  O_17
REMARK    5  A    between atoms: C_23  and  O_24
REMARK                            x       y       z     vdW  Elec       q    Type
REMARK                         _______ _______ _______ _____ _____    ______ ____
ROOT
ATOM      1  C   LIG A   1      -4.332   6.998 130.122  0.00  0.00    +0.060 C 
ATOM      2  C   LIG A   1      -3.807   5.596 129.788  0.00  0.00    +0.123 C 
ATOM      3  O   LIG A   1      -4.898   4.670 129.914  0.00  0.00    -0.481 OA
ATOM      4  C   LIG A   1      -2.780   5.168 130.843  0.00  0.00    +0.060 C 
ATOM      5  C   LIG A   1      -3.157   5.589 128.429  0.00  0.00    +0.020 C 
ATOM      6  C   LIG A   1      -3.754   5.070 127.351  0.00  0.00    +0.013 C 
ATOM      7  C   LIG A   1      -5.104   4.518 127.493  0.00  0.00    +0.041 A 
ATOM      8  C   LIG A   1      -5.618   4.332 128.792  0.00  0.00    +0.142 A 
ATOM      9  C   LIG A   1      -6.877   3.725 129.013  0.00  0.00    +0.067 A 
ATOM     10  C   LIG A   1      -7.616   3.317 127.889  0.00  0.00    +0.141 A 
ATOM     11  C   LIG A   1      -7.123   3.516 126.588  0.00  0.00    +0.088 A 
ATOM     12  C   LIG A   1      -5.879   4.141 126.375  0.00  0.00    +0.065 A 
ATOM     13  N   LIG A   1      -5.383   4.284 125.053  0.00  0.00    -0.350 N 
ATOM     14  H   LIG A   1      -4.836   5.133 124.925  0.00  0.00    +0.166 HD
ATOM     15  C   LIG A   1      -6.151   3.963 123.915  0.00  0.00    +0.093 A 
ATOM     16  C   LIG A   1      -5.641   4.151 122.626  0.00  0.00    +0.141 A 
ATOM     17  C   LIG A   1      -6.390   3.839 121.494  0.00  0.00    +0.047 A 
ATOM     18  C   LIG A   1      -7.657   3.276 121.641  0.00  0.00    +0.004 A 
ATOM     19  C   LIG A   1      -8.163   3.022 122.917  0.00  0.00    +0.014 A 
ATOM     20  C   LIG A   1      -7.404   3.358 124.045  0.00  0.00    +0.049 A 
ATOM     21  C   LIG A   1      -7.921   3.099 125.404  0.00  0.00    +0.201 A 
ATOM     22  O   LIG A   1      -9.011   2.552 125.563  0.00  0.00    -0.286 OA
ENDROOT
BRANCH   9  23
ATOM     23  C   LIG A   1      -7.395   3.530 130.385  0.00  0.00    -0.011 A 
ATOM     24  C   LIG A   1      -8.181   4.514 131.009  0.00  0.00    +0.009 A 
ATOM     25  C   LIG A   1      -8.678   4.326 132.300  0.00  0.00    +0.001 A 
ATOM     26  C   LIG A   1      -8.397   3.149 132.991  0.00  0.00    +0.000 A 
ATOM     27  C   LIG A   1      -7.618   2.162 132.392  0.00  0.00    +0.001 A 
ATOM     28  C   LIG A   1      -7.122   2.352 131.099  0.00  0.00    +0.009 A 
ENDBRANCH   9  23
BRANCH  10  29
ATOM     29  O   LIG A   1      -8.843   2.728 128.103  0.00  0.00    -0.505 OA
ATOM     30  H   LIG A   1      -9.276   3.171 128.867  0.00  0.00    +0.292 HD
ENDBRANCH  10  29
BRANCH  16  31
ATOM     31  O   LIG A   1      -4.368   4.617 122.441  0.00  0.00    -0.505 OA
ATOM     32  H   LIG A   1      -4.360   5.526 122.791  0.00  0.00    +0.292 HD
ENDBRANCH  16  31
TORSDOF 3
ENDMDL
