MODEL 1
REMARK VINA RESULT:      -6.2      0.000      0.000
REMARK  Name = NuBBE_1007
REMARK  3 active torsions:
REMARK  status: ('A' for Active; 'I' for Inactive)
REMARK    1  A    between atoms: C_4  and  O_5
REMARK    2  A    between atoms: C_8  and  O_9
REMARK    3  A    between atoms: C_14  and  C_16
REMARK                            x       y       z     vdW  Elec       q    Type
REMARK                         _______ _______ _______ _____ _____    ______ ____
ROOT
ATOM      1  O   LIG A   1     -13.130   8.250 131.617  0.00  0.00    -0.245 OA
ATOM      2  C   LIG A   1     -12.619   8.165 130.507  0.00  0.00    +0.343 C 
ATOM      3  C   LIG A   1     -11.628   7.099 130.213  0.00  0.00    +0.107 A 
ATOM      4  C   LIG A   1     -11.323   6.140 131.191  0.00  0.00    +0.131 A 
ATOM      5  C   LIG A   1     -10.350   5.173 130.955  0.00  0.00    +0.050 A 
ATOM      6  C   LIG A   1      -9.666   5.156 129.741  0.00  0.00    +0.049 A 
ATOM      7  C   LIG A   1      -9.976   6.099 128.764  0.00  0.00    +0.121 A 
ATOM      8  C   LIG A   1     -10.966   7.066 128.976  0.00  0.00    +0.015 A 
ATOM      9  C   LIG A   1     -11.288   8.098 127.934  0.00  0.00    +0.084 C 
ATOM     10  C   LIG A   1     -12.691   8.659 128.144  0.00  0.00    +0.178 C 
ATOM     11  C   LIG A   1     -13.815   7.715 127.719  0.00  0.00    +0.052 C 
ATOM     12  O   LIG A   1     -12.894   9.047 129.514  0.00  0.00    -0.458 OA
ENDROOT
BRANCH   4  13
ATOM     13  O   LIG A   1     -11.936   6.087 132.415  0.00  0.00    -0.506 OA
ATOM     14  H   LIG A   1     -12.290   5.179 132.549  0.00  0.00    +0.292 HD
ENDBRANCH   4  13
BRANCH   7  15
ATOM     15  O   LIG A   1      -9.308   6.100 127.573  0.00  0.00    -0.506 OA
ATOM     16  H   LIG A   1      -9.775   5.521 126.947  0.00  0.00    +0.292 HD
ENDBRANCH   7  15
TORSDOF 2
ENDMDL
MODEL 2
REMARK VINA RESULT:      -6.2      0.992      3.509
REMARK  Name = NuBBE_1007
REMARK  3 active torsions:
REMARK  status: ('A' for Active; 'I' for Inactive)
REMARK    1  A    between atoms: C_4  and  O_5
REMARK    2  A    between atoms: C_8  and  O_9
REMARK    3  A    between atoms: C_14  and  C_16
REMARK                            x       y       z     vdW  Elec       q    Type
REMARK                         _______ _______ _______ _____ _____    ______ ____
ROOT
ATOM      1  O   LIG A   1     -12.993   7.522 131.960  0.00  0.00    -0.245 OA
ATOM      2  C   LIG A   1     -12.117   6.889 131.383  0.00  0.00    +0.343 C 
ATOM      3  C   LIG A   1     -11.635   7.318 130.045  0.00  0.00    +0.107 A 
ATOM      4  C   LIG A   1     -12.137   8.493 129.466  0.00  0.00    +0.131 A 
ATOM      5  C   LIG A   1     -11.743   8.875 128.186  0.00  0.00    +0.050 A 
ATOM      6  C   LIG A   1     -10.848   8.084 127.468  0.00  0.00    +0.049 A 
ATOM      7  C   LIG A   1     -10.339   6.924 128.047  0.00  0.00    +0.121 A 
ATOM      8  C   LIG A   1     -10.707   6.536 129.340  0.00  0.00    +0.015 A 
ATOM      9  C   LIG A   1     -10.178   5.274 129.960  0.00  0.00    +0.084 C 
ATOM     10  C   LIG A   1     -10.267   5.339 131.481  0.00  0.00    +0.178 C 
ATOM     11  C   LIG A   1      -9.216   6.235 132.135  0.00  0.00    +0.052 C 
ATOM     12  O   LIG A   1     -11.576   5.761 131.906  0.00  0.00    -0.458 OA
ENDROOT
BRANCH   4  13
ATOM     13  O   LIG A   1     -13.027   9.325 130.092  0.00  0.00    -0.506 OA
ATOM     14  H   LIG A   1     -13.005   9.137 131.058  0.00  0.00    +0.292 HD
ENDBRANCH   4  13
BRANCH   7  15
ATOM     15  O   LIG A   1      -9.467   6.135 127.352  0.00  0.00    -0.506 OA
ATOM     16  H   LIG A   1      -8.817   5.760 127.970  0.00  0.00    +0.292 HD
ENDBRANCH   7  15
TORSDOF 2
ENDMDL
MODEL 3
REMARK VINA RESULT:      -6.1      1.495      3.273
REMARK  Name = NuBBE_1007
REMARK  3 active torsions:
REMARK  status: ('A' for Active; 'I' for Inactive)
REMARK    1  A    between atoms: C_4  and  O_5
REMARK    2  A    between atoms: C_8  and  O_9
REMARK    3  A    between atoms: C_14  and  C_16
REMARK                            x       y       z     vdW  Elec       q    Type
REMARK                         _______ _______ _______ _____ _____    ______ ____
ROOT
ATOM      1  O   LIG A   1     -11.916   6.564 127.213  0.00  0.00    -0.245 OA
ATOM      2  C   LIG A   1     -12.089   6.785 128.405  0.00  0.00    +0.343 C 
ATOM      3  C   LIG A   1     -10.998   6.539 129.383  0.00  0.00    +0.107 A 
ATOM      4  C   LIG A   1      -9.740   6.113 128.932  0.00  0.00    +0.131 A 
ATOM      5  C   LIG A   1      -8.726   5.816 129.839  0.00  0.00    +0.050 A 
ATOM      6  C   LIG A   1      -8.961   5.935 131.208  0.00  0.00    +0.049 A 
ATOM      7  C   LIG A   1     -10.206   6.370 131.657  0.00  0.00    +0.121 A 
ATOM      8  C   LIG A   1     -11.229   6.694 130.758  0.00  0.00    +0.015 A 
ATOM      9  C   LIG A   1     -12.580   7.141 131.238  0.00  0.00    +0.084 C 
ATOM     10  C   LIG A   1     -13.308   7.926 130.151  0.00  0.00    +0.178 C 
ATOM     11  C   LIG A   1     -12.785   9.346 129.943  0.00  0.00    +0.052 C 
ATOM     12  O   LIG A   1     -13.275   7.223 128.895  0.00  0.00    -0.458 OA
ENDROOT
BRANCH   4  13
ATOM     13  O   LIG A   1      -9.423   5.957 127.608  0.00  0.00    -0.506 OA
ATOM     14  H   LIG A   1      -9.929   6.620 127.085  0.00  0.00    +0.292 HD
ENDBRANCH   4  13
BRANCH   7  15
ATOM     15  O   LIG A   1     -10.453   6.484 132.995  0.00  0.00    -0.506 OA
ATOM     16  H   LIG A   1      -9.780   7.062 133.393  0.00  0.00    +0.292 HD
ENDBRANCH   7  15
TORSDOF 2
ENDMDL
MODEL 4
REMARK VINA RESULT:      -6.1     11.096     12.197
REMARK  Name = NuBBE_1007
REMARK  3 active torsions:
REMARK  status: ('A' for Active; 'I' for Inactive)
REMARK    1  A    between atoms: C_4  and  O_5
REMARK    2  A    between atoms: C_8  and  O_9
REMARK    3  A    between atoms: C_14  and  C_16
REMARK                            x       y       z     vdW  Elec       q    Type
REMARK                         _______ _______ _______ _____ _____    ______ ____
ROOT
ATOM      1  O   LIG A   1      -8.138  -2.233 122.194  0.00  0.00    -0.245 OA
ATOM      2  C   LIG A   1      -7.363  -2.222 123.143  0.00  0.00    +0.343 C 
ATOM      3  C   LIG A   1      -7.837  -2.570 124.507  0.00  0.00    +0.107 A 
ATOM      4  C   LIG A   1      -9.165  -2.978 124.702  0.00  0.00    +0.131 A 
ATOM      5  C   LIG A   1      -9.642  -3.246 125.982  0.00  0.00    +0.050 A 
ATOM      6  C   LIG A   1      -8.800  -3.102 127.083  0.00  0.00    +0.049 A 
ATOM      7  C   LIG A   1      -7.478  -2.709 126.890  0.00  0.00    +0.121 A 
ATOM      8  C   LIG A   1      -6.975  -2.456 125.608  0.00  0.00    +0.015 A 
ATOM      9  C   LIG A   1      -5.557  -2.010 125.397  0.00  0.00    +0.084 C 
ATOM     10  C   LIG A   1      -5.098  -2.317 123.975  0.00  0.00    +0.178 C 
ATOM     11  C   LIG A   1      -4.792  -3.792 123.719  0.00  0.00    +0.052 C 
ATOM     12  O   LIG A   1      -6.063  -1.861 123.010  0.00  0.00    -0.458 OA
ENDROOT
BRANCH   4  13
ATOM     13  O   LIG A   1     -10.065  -3.136 123.682  0.00  0.00    -0.506 OA
ATOM     14  H   LIG A   1     -10.822  -2.524 123.833  0.00  0.00    +0.292 HD
ENDBRANCH   4  13
BRANCH   7  15
ATOM     15  O   LIG A   1      -6.643  -2.555 127.960  0.00  0.00    -0.506 OA
ATOM     16  H   LIG A   1      -6.731  -3.329 128.543  0.00  0.00    +0.292 HD
ENDBRANCH   7  15
TORSDOF 2
ENDMDL
MODEL 5
REMARK VINA RESULT:      -5.9      1.102      4.625
REMARK  Name = NuBBE_1007
REMARK  3 active torsions:
REMARK  status: ('A' for Active; 'I' for Inactive)
REMARK    1  A    between atoms: C_4  and  O_5
REMARK    2  A    between atoms: C_8  and  O_9
REMARK    3  A    between atoms: C_14  and  C_16
REMARK                            x       y       z     vdW  Elec       q    Type
REMARK                         _______ _______ _______ _____ _____    ______ ____
ROOT
ATOM      1  O   LIG A   1      -9.244   6.012 127.664  0.00  0.00    -0.245 OA
ATOM      2  C   LIG A   1      -9.792   6.018 128.759  0.00  0.00    +0.343 C 
ATOM      3  C   LIG A   1     -10.939   6.925 129.022  0.00  0.00    +0.107 A 
ATOM      4  C   LIG A   1     -11.441   7.734 127.991  0.00  0.00    +0.131 A 
ATOM      5  C   LIG A   1     -12.473   8.635 128.238  0.00  0.00    +0.050 A 
ATOM      6  C   LIG A   1     -13.009   8.745 129.519  0.00  0.00    +0.049 A 
ATOM      7  C   LIG A   1     -12.520   7.935 130.541  0.00  0.00    +0.121 A 
ATOM      8  C   LIG A   1     -11.498   7.008 130.307  0.00  0.00    +0.015 A 
ATOM      9  C   LIG A   1     -10.953   6.148 131.410  0.00  0.00    +0.084 C 
ATOM     10  C   LIG A   1     -10.281   4.901 130.844  0.00  0.00    +0.178 C 
ATOM     11  C   LIG A   1     -11.255   3.836 130.342  0.00  0.00    +0.052 C 
ATOM     12  O   LIG A   1      -9.367   5.241 129.785  0.00  0.00    -0.458 OA
ENDROOT
BRANCH   4  13
ATOM     13  O   LIG A   1     -10.968   7.701 126.706  0.00  0.00    -0.506 OA
ATOM     14  H   LIG A   1     -11.332   6.904 126.258  0.00  0.00    +0.292 HD
ENDBRANCH   4  13
BRANCH   7  15
ATOM     15  O   LIG A   1     -13.031   8.038 131.803  0.00  0.00    -0.506 OA
ATOM     16  H   LIG A   1     -13.290   8.961 131.966  0.00  0.00    +0.292 HD
ENDBRANCH   7  15
TORSDOF 2
ENDMDL
MODEL 6
REMARK VINA RESULT:      -5.7      8.578     10.311
REMARK  Name = NuBBE_1007
REMARK  3 active torsions:
REMARK  status: ('A' for Active; 'I' for Inactive)
REMARK    1  A    between atoms: C_4  and  O_5
REMARK    2  A    between atoms: C_8  and  O_9
REMARK    3  A    between atoms: C_14  and  C_16
REMARK                            x       y       z     vdW  Elec       q    Type
REMARK                         _______ _______ _______ _____ _____    ______ ____
ROOT
ATOM      1  O   LIG A   1      -4.979   3.981 124.046  0.00  0.00    -0.245 OA
ATOM      2  C   LIG A   1      -6.063   3.620 123.606  0.00  0.00    +0.343 C 
ATOM      3  C   LIG A   1      -6.411   3.848 122.180  0.00  0.00    +0.107 A 
ATOM      4  C   LIG A   1      -5.467   4.423 121.314  0.00  0.00    +0.131 A 
ATOM      5  C   LIG A   1      -5.799   4.702 119.992  0.00  0.00    +0.050 A 
ATOM      6  C   LIG A   1      -7.079   4.418 119.520  0.00  0.00    +0.049 A 
ATOM      7  C   LIG A   1      -8.013   3.837 120.375  0.00  0.00    +0.121 A 
ATOM      8  C   LIG A   1      -7.691   3.529 121.701  0.00  0.00    +0.015 A 
ATOM      9  C   LIG A   1      -8.701   2.923 122.632  0.00  0.00    +0.084 C 
ATOM     10  C   LIG A   1      -8.010   2.202 123.786  0.00  0.00    +0.178 C 
ATOM     11  C   LIG A   1      -7.387   0.860 123.406  0.00  0.00    +0.052 C 
ATOM     12  O   LIG A   1      -7.004   3.036 124.389  0.00  0.00    -0.458 OA
ENDROOT
BRANCH   4  13
ATOM     13  O   LIG A   1      -4.191   4.745 121.693  0.00  0.00    -0.506 OA
ATOM     14  H   LIG A   1      -4.220   5.130 122.599  0.00  0.00    +0.292 HD
ENDBRANCH   4  13
BRANCH   7  15
ATOM     15  O   LIG A   1      -9.274   3.561 119.928  0.00  0.00    -0.506 OA
ATOM     16  H   LIG A   1      -9.557   2.704 120.290  0.00  0.00    +0.292 HD
ENDBRANCH   7  15
TORSDOF 2
ENDMDL
MODEL 7
REMARK VINA RESULT:      -5.5      3.595      5.204
REMARK  Name = NuBBE_1007
REMARK  3 active torsions:
REMARK  status: ('A' for Active; 'I' for Inactive)
REMARK    1  A    between atoms: C_4  and  O_5
REMARK    2  A    between atoms: C_8  and  O_9
REMARK    3  A    between atoms: C_14  and  C_16
REMARK                            x       y       z     vdW  Elec       q    Type
REMARK                         _______ _______ _______ _____ _____    ______ ____
ROOT
ATOM      1  O   LIG A   1      -8.899   4.972 128.189  0.00  0.00    -0.245 OA
ATOM      2  C   LIG A   1      -8.947   5.291 129.371  0.00  0.00    +0.343 C 
ATOM      3  C   LIG A   1      -9.109   4.257 130.424  0.00  0.00    +0.107 A 
ATOM      4  C   LIG A   1      -9.141   2.899 130.071  0.00  0.00    +0.131 A 
ATOM      5  C   LIG A   1      -9.356   1.921 131.038  0.00  0.00    +0.050 A 
ATOM      6  C   LIG A   1      -9.549   2.289 132.368  0.00  0.00    +0.049 A 
ATOM      7  C   LIG A   1      -9.504   3.635 132.723  0.00  0.00    +0.121 A 
ATOM      8  C   LIG A   1      -9.268   4.630 131.768  0.00  0.00    +0.015 A 
ATOM      9  C   LIG A   1      -9.242   6.084 132.142  0.00  0.00    +0.084 C 
ATOM     10  C   LIG A   1      -8.461   6.894 131.111  0.00  0.00    +0.178 C 
ATOM     11  C   LIG A   1      -6.945   6.728 131.198  0.00  0.00    +0.052 C 
ATOM     12  O   LIG A   1      -8.894   6.585 129.774  0.00  0.00    -0.458 OA
ENDROOT
BRANCH   4  13
ATOM     13  O   LIG A   1      -8.973   2.448 128.789  0.00  0.00    -0.506 OA
ATOM     14  H   LIG A   1      -9.605   1.710 128.630  0.00  0.00    +0.292 HD
ENDBRANCH   4  13
BRANCH   7  15
ATOM     15  O   LIG A   1      -9.699   4.010 134.022  0.00  0.00    -0.506 OA
ATOM     16  H   LIG A   1      -9.854   4.969 134.055  0.00  0.00    +0.292 HD
ENDBRANCH   7  15
TORSDOF 2
ENDMDL
MODEL 8
REMARK VINA RESULT:      -5.5      9.907     11.447
REMARK  Name = NuBBE_1007
REMARK  3 active torsions:
REMARK  status: ('A' for Active; 'I' for Inactive)
REMARK    1  A    between atoms: C_4  and  O_5
REMARK    2  A    between atoms: C_8  and  O_9
REMARK    3  A    between atoms: C_14  and  C_16
REMARK                            x       y       z     vdW  Elec       q    Type
REMARK                         _______ _______ _______ _____ _____    ______ ____
ROOT
ATOM      1  O   LIG A   1      -8.406  -2.780 127.604  0.00  0.00    -0.245 OA
ATOM      2  C   LIG A   1      -7.549  -2.404 126.814  0.00  0.00    +0.343 C 
ATOM      3  C   LIG A   1      -7.827  -2.384 125.355  0.00  0.00    +0.107 A 
ATOM      4  C   LIG A   1      -9.100  -2.736 124.881  0.00  0.00    +0.131 A 
ATOM      5  C   LIG A   1      -9.358  -2.785 123.514  0.00  0.00    +0.050 A 
ATOM      6  C   LIG A   1      -8.344  -2.490 122.604  0.00  0.00    +0.049 A 
ATOM      7  C   LIG A   1      -7.083  -2.128 123.073  0.00  0.00    +0.121 A 
ATOM      8  C   LIG A   1      -6.812  -2.053 124.444  0.00  0.00    +0.015 A 
ATOM      9  C   LIG A   1      -5.448  -1.685 124.953  0.00  0.00    +0.084 C 
ATOM     10  C   LIG A   1      -5.529  -1.153 126.381  0.00  0.00    +0.178 C 
ATOM     11  C   LIG A   1      -6.078   0.268 126.492  0.00  0.00    +0.052 C 
ATOM     12  O   LIG A   1      -6.310  -2.028 127.216  0.00  0.00    -0.458 OA
ENDROOT
BRANCH   4  13
ATOM     13  O   LIG A   1     -10.151  -3.052 125.701  0.00  0.00    -0.506 OA
ATOM     14  H   LIG A   1     -10.978  -3.048 125.167  0.00  0.00    +0.292 HD
ENDBRANCH   4  13
BRANCH   7  15
ATOM     15  O   LIG A   1      -6.079  -1.844 122.192  0.00  0.00    -0.506 OA
ATOM     16  H   LIG A   1      -5.876  -2.642 121.675  0.00  0.00    +0.292 HD
ENDBRANCH   7  15
TORSDOF 2
ENDMDL
MODEL 9
REMARK VINA RESULT:      -5.3      8.745     10.507
REMARK  Name = NuBBE_1007
REMARK  3 active torsions:
REMARK  status: ('A' for Active; 'I' for Inactive)
REMARK    1  A    between atoms: C_4  and  O_5
REMARK    2  A    between atoms: C_8  and  O_9
REMARK    3  A    between atoms: C_14  and  C_16
REMARK                            x       y       z     vdW  Elec       q    Type
REMARK                         _______ _______ _______ _____ _____    ______ ____
ROOT
ATOM      1  O   LIG A   1      -6.297   0.844 124.893  0.00  0.00    -0.245 OA
ATOM      2  C   LIG A   1      -7.282   0.403 124.312  0.00  0.00    +0.343 C 
ATOM      3  C   LIG A   1      -7.743  -0.987 124.560  0.00  0.00    +0.107 A 
ATOM      4  C   LIG A   1      -7.088  -1.780 125.514  0.00  0.00    +0.131 A 
ATOM      5  C   LIG A   1      -7.466  -3.105 125.713  0.00  0.00    +0.050 A 
ATOM      6  C   LIG A   1      -8.499  -3.655 124.955  0.00  0.00    +0.049 A 
ATOM      7  C   LIG A   1      -9.159  -2.865 124.017  0.00  0.00    +0.121 A 
ATOM      8  C   LIG A   1      -8.806  -1.525 123.819  0.00  0.00    +0.015 A 
ATOM      9  C   LIG A   1      -9.499  -0.676 122.793  0.00  0.00    +0.084 C 
ATOM     10  C   LIG A   1      -9.343   0.806 123.121  0.00  0.00    +0.178 C 
ATOM     11  C   LIG A   1     -10.218   1.289 124.276  0.00  0.00    +0.052 C 
ATOM     12  O   LIG A   1      -7.970   1.132 123.400  0.00  0.00    -0.458 OA
ENDROOT
BRANCH   4  13
ATOM     13  O   LIG A   1      -6.057  -1.328 126.295  0.00  0.00    -0.506 OA
ATOM     14  H   LIG A   1      -6.430  -0.975 127.134  0.00  0.00    +0.292 HD
ENDBRANCH   4  13
BRANCH   7  15
ATOM     15  O   LIG A   1     -10.167  -3.393 123.262  0.00  0.00    -0.506 OA
ATOM     16  H   LIG A   1     -10.824  -2.699 123.080  0.00  0.00    +0.292 HD
ENDBRANCH   7  15
TORSDOF 2
ENDMDL
