MODEL 1
REMARK VINA RESULT:      -7.1      0.000      0.000
REMARK  Name = NuBBE_2261
REMARK  6 active torsions:
REMARK  status: ('A' for Active; 'I' for Inactive)
REMARK    1  A    between atoms: C_1  and  C_2
REMARK    2  A    between atoms: C_9  and  C_11
REMARK    3  A    between atoms: C_11  and  C_12
REMARK    4  A    between atoms: C_11  and  C_13
REMARK    5  A    between atoms: C_11  and  O_14
REMARK    6  A    between atoms: C_15  and  C_18
REMARK                            x       y       z     vdW  Elec       q    Type
REMARK                         _______ _______ _______ _____ _____    ______ ____
ROOT
ATOM      1  C   LIG A   1      -4.914  -1.054 125.498  0.00  0.00    +0.044 C 
ATOM      2  C   LIG A   1      -6.194  -1.582 124.901  0.00  0.00    -0.043 A 
ATOM      3  C   LIG A   1      -7.166  -0.745 124.304  0.00  0.00    -0.011 A 
ATOM      4  C   LIG A   1      -8.337  -1.324 123.767  0.00  0.00    +0.036 A 
ATOM      5  C   LIG A   1      -9.321  -0.413 123.131  0.00  0.00    +0.234 C 
ATOM      6  O   LIG A   1     -10.214  -0.807 122.395  0.00  0.00    -0.283 OA
ATOM      7  C   LIG A   1      -9.197   1.074 123.396  0.00  0.00    +0.232 C 
ATOM      8  O   LIG A   1     -10.157   1.815 123.217  0.00  0.00    -0.283 OA
ATOM      9  C   LIG A   1      -7.878   1.605 123.829  0.00  0.00    +0.034 C 
ATOM     10  C   LIG A   1      -6.955   0.712 124.226  0.00  0.00    +0.019 C 
ATOM     11  C   LIG A   1      -8.552  -2.719 123.824  0.00  0.00    -0.039 A 
ATOM     12  C   LIG A   1      -7.571  -3.526 124.413  0.00  0.00    +0.004 A 
ATOM     13  C   LIG A   1      -6.411  -2.966 124.942  0.00  0.00    +0.004 A 
ATOM     14  C   LIG A   1      -9.784  -3.387 123.276  0.00  0.00    +0.044 C 
ENDROOT
BRANCH   9  15
ATOM     15  C   LIG A   1      -7.700   3.117 123.783  0.00  0.00    +0.089 C 
ATOM     16  C   LIG A   1      -8.265   3.781 125.046  0.00  0.00    +0.046 C 
ATOM     17  C   LIG A   1      -6.244   3.572 123.601  0.00  0.00    +0.046 C 
BRANCH  15  18
ATOM     18  O   LIG A   1      -8.394   3.639 122.643  0.00  0.00    -0.384 OA
ATOM     19  H   LIG A   1      -8.989   2.931 122.317  0.00  0.00    +0.211 HD
ENDBRANCH  15  18
ENDBRANCH   9  15
TORSDOF 2
ENDMDL
MODEL 2
REMARK VINA RESULT:      -7.0      1.642      4.870
REMARK  Name = NuBBE_2261
REMARK  6 active torsions:
REMARK  status: ('A' for Active; 'I' for Inactive)
REMARK    1  A    between atoms: C_1  and  C_2
REMARK    2  A    between atoms: C_9  and  C_11
REMARK    3  A    between atoms: C_11  and  C_12
REMARK    4  A    between atoms: C_11  and  C_13
REMARK    5  A    between atoms: C_11  and  O_14
REMARK    6  A    between atoms: C_15  and  C_18
REMARK                            x       y       z     vdW  Elec       q    Type
REMARK                         _______ _______ _______ _____ _____    ______ ____
ROOT
ATOM      1  C   LIG A   1      -5.363   1.345 126.321  0.00  0.00    +0.044 C 
ATOM      2  C   LIG A   1      -6.258   1.735 125.172  0.00  0.00    -0.043 A 
ATOM      3  C   LIG A   1      -7.310   0.913 124.704  0.00  0.00    -0.011 A 
ATOM      4  C   LIG A   1      -8.102   1.356 123.623  0.00  0.00    +0.036 A 
ATOM      5  C   LIG A   1      -9.208   0.473 123.176  0.00  0.00    +0.234 C 
ATOM      6  O   LIG A   1     -10.120   0.859 122.459  0.00  0.00    -0.283 OA
ATOM      7  C   LIG A   1      -9.211  -0.967 123.649  0.00  0.00    +0.232 C 
ATOM      8  O   LIG A   1      -9.857  -1.814 123.043  0.00  0.00    -0.283 OA
ATOM      9  C   LIG A   1      -8.453  -1.305 124.881  0.00  0.00    +0.034 C 
ATOM     10  C   LIG A   1      -7.590  -0.384 125.347  0.00  0.00    +0.019 C 
ATOM     11  C   LIG A   1      -7.855   2.601 123.001  0.00  0.00    -0.039 A 
ATOM     12  C   LIG A   1      -6.813   3.400 123.488  0.00  0.00    +0.004 A 
ATOM     13  C   LIG A   1      -6.028   2.973 124.556  0.00  0.00    +0.004 A 
ATOM     14  C   LIG A   1      -8.661   3.118 121.840  0.00  0.00    +0.044 C 
ENDROOT
BRANCH   9  15
ATOM     15  C   LIG A   1      -8.726  -2.670 125.500  0.00  0.00    +0.089 C 
ATOM     16  C   LIG A   1      -8.028  -3.786 124.712  0.00  0.00    +0.046 C 
ATOM     17  C   LIG A   1      -8.314  -2.783 126.976  0.00  0.00    +0.046 C 
BRANCH  15  18
ATOM     18  O   LIG A   1     -10.137  -2.917 125.492  0.00  0.00    -0.384 OA
ATOM     19  H   LIG A   1     -10.358  -3.364 126.337  0.00  0.00    +0.211 HD
ENDBRANCH  15  18
ENDBRANCH   9  15
TORSDOF 2
ENDMDL
MODEL 3
REMARK VINA RESULT:      -6.7      1.945      1.985
REMARK  Name = NuBBE_2261
REMARK  6 active torsions:
REMARK  status: ('A' for Active; 'I' for Inactive)
REMARK    1  A    between atoms: C_1  and  C_2
REMARK    2  A    between atoms: C_9  and  C_11
REMARK    3  A    between atoms: C_11  and  C_12
REMARK    4  A    between atoms: C_11  and  C_13
REMARK    5  A    between atoms: C_11  and  O_14
REMARK    6  A    between atoms: C_15  and  C_18
REMARK                            x       y       z     vdW  Elec       q    Type
REMARK                         _______ _______ _______ _____ _____    ______ ____
ROOT
ATOM      1  C   LIG A   1      -7.485  -1.155 128.608  0.00  0.00    +0.044 C 
ATOM      2  C   LIG A   1      -8.017  -1.649 127.286  0.00  0.00    -0.043 A 
ATOM      3  C   LIG A   1      -8.228  -0.797 126.177  0.00  0.00    -0.011 A 
ATOM      4  C   LIG A   1      -8.728  -1.343 124.974  0.00  0.00    +0.036 A 
ATOM      5  C   LIG A   1      -8.916  -0.419 123.828  0.00  0.00    +0.234 C 
ATOM      6  O   LIG A   1      -9.066  -0.806 122.678  0.00  0.00    -0.283 OA
ATOM      7  C   LIG A   1      -8.902   1.072 124.100  0.00  0.00    +0.232 C 
ATOM      8  O   LIG A   1      -9.405   1.850 123.297  0.00  0.00    -0.283 OA
ATOM      9  C   LIG A   1      -8.228   1.557 125.332  0.00  0.00    +0.034 C 
ATOM     10  C   LIG A   1      -7.915   0.641 126.265  0.00  0.00    +0.019 C 
ATOM     11  C   LIG A   1      -9.024  -2.720 124.868  0.00  0.00    -0.039 A 
ATOM     12  C   LIG A   1      -8.799  -3.544 125.978  0.00  0.00    +0.004 A 
ATOM     13  C   LIG A   1      -8.303  -3.016 127.167  0.00  0.00    +0.004 A 
ATOM     14  C   LIG A   1      -9.567  -3.353 123.614  0.00  0.00    +0.044 C 
ENDROOT
BRANCH   9  15
ATOM     15  C   LIG A   1      -7.957   3.054 125.420  0.00  0.00    +0.089 C 
ATOM     16  C   LIG A   1      -7.445   3.444 126.813  0.00  0.00    +0.046 C 
ATOM     17  C   LIG A   1      -6.962   3.573 124.370  0.00  0.00    +0.046 C 
BRANCH  15  18
ATOM     18  O   LIG A   1      -9.171   3.769 125.161  0.00  0.00    -0.384 OA
ATOM     19  H   LIG A   1      -9.460   4.165 126.011  0.00  0.00    +0.211 HD
ENDBRANCH  15  18
ENDBRANCH   9  15
TORSDOF 2
ENDMDL
MODEL 4
REMARK VINA RESULT:      -6.6      2.968      5.814
REMARK  Name = NuBBE_2261
REMARK  6 active torsions:
REMARK  status: ('A' for Active; 'I' for Inactive)
REMARK    1  A    between atoms: C_1  and  C_2
REMARK    2  A    between atoms: C_9  and  C_11
REMARK    3  A    between atoms: C_11  and  C_12
REMARK    4  A    between atoms: C_11  and  C_13
REMARK    5  A    between atoms: C_11  and  O_14
REMARK    6  A    between atoms: C_15  and  C_18
REMARK                            x       y       z     vdW  Elec       q    Type
REMARK                         _______ _______ _______ _____ _____    ______ ____
ROOT
ATOM      1  C   LIG A   1      -3.814   5.005 121.673  0.00  0.00    +0.044 C 
ATOM      2  C   LIG A   1      -5.121   4.741 120.967  0.00  0.00    -0.043 A 
ATOM      3  C   LIG A   1      -6.185   4.026 121.562  0.00  0.00    -0.011 A 
ATOM      4  C   LIG A   1      -7.376   3.826 120.830  0.00  0.00    +0.036 A 
ATOM      5  C   LIG A   1      -8.476   3.088 121.499  0.00  0.00    +0.234 C 
ATOM      6  O   LIG A   1      -9.628   3.097 121.091  0.00  0.00    -0.283 OA
ATOM      7  C   LIG A   1      -8.153   2.305 122.755  0.00  0.00    +0.232 C 
ATOM      8  O   LIG A   1      -8.898   1.407 123.131  0.00  0.00    -0.283 OA
ATOM      9  C   LIG A   1      -6.946   2.686 123.533  0.00  0.00    +0.034 C 
ATOM     10  C   LIG A   1      -6.065   3.510 122.938  0.00  0.00    +0.019 C 
ATOM     11  C   LIG A   1      -7.513   4.322 119.514  0.00  0.00    -0.039 A 
ATOM     12  C   LIG A   1      -6.447   5.034 118.949  0.00  0.00    +0.004 A 
ATOM     13  C   LIG A   1      -5.271   5.240 119.665  0.00  0.00    +0.004 A 
ATOM     14  C   LIG A   1      -8.755   4.129 118.685  0.00  0.00    +0.044 C 
ENDROOT
BRANCH   9  15
ATOM     15  C   LIG A   1      -6.821   2.102 124.934  0.00  0.00    +0.089 C 
ATOM     16  C   LIG A   1      -6.424   0.621 124.885  0.00  0.00    +0.046 C 
ATOM     17  C   LIG A   1      -5.824   2.846 125.837  0.00  0.00    +0.046 C 
BRANCH  15  18
ATOM     18  O   LIG A   1      -8.081   2.216 125.606  0.00  0.00    -0.384 OA
ATOM     19  H   LIG A   1      -8.662   2.768 125.040  0.00  0.00    +0.211 HD
ENDBRANCH  15  18
ENDBRANCH   9  15
TORSDOF 2
ENDMDL
MODEL 5
REMARK VINA RESULT:      -6.6      2.685      3.560
REMARK  Name = NuBBE_2261
REMARK  6 active torsions:
REMARK  status: ('A' for Active; 'I' for Inactive)
REMARK    1  A    between atoms: C_1  and  C_2
REMARK    2  A    between atoms: C_9  and  C_11
REMARK    3  A    between atoms: C_11  and  C_12
REMARK    4  A    between atoms: C_11  and  C_13
REMARK    5  A    between atoms: C_11  and  O_14
REMARK    6  A    between atoms: C_15  and  C_18
REMARK                            x       y       z     vdW  Elec       q    Type
REMARK                         _______ _______ _______ _____ _____    ______ ____
ROOT
ATOM      1  C   LIG A   1      -9.224  -2.667 123.256  0.00  0.00    +0.044 C 
ATOM      2  C   LIG A   1      -8.862  -2.493 124.709  0.00  0.00    -0.043 A 
ATOM      3  C   LIG A   1      -8.599  -1.231 125.289  0.00  0.00    -0.011 A 
ATOM      4  C   LIG A   1      -8.268  -1.158 126.661  0.00  0.00    +0.036 A 
ATOM      5  C   LIG A   1      -8.019   0.187 127.235  0.00  0.00    +0.234 C 
ATOM      6  O   LIG A   1      -8.006   0.405 128.438  0.00  0.00    -0.283 OA
ATOM      7  C   LIG A   1      -7.791   1.343 126.282  0.00  0.00    +0.232 C 
ATOM      8  O   LIG A   1      -7.231   2.362 126.670  0.00  0.00    -0.283 OA
ATOM      9  C   LIG A   1      -8.301   1.220 124.892  0.00  0.00    +0.034 C 
ATOM     10  C   LIG A   1      -8.686  -0.001 124.481  0.00  0.00    +0.019 C 
ATOM     11  C   LIG A   1      -8.189  -2.325 127.454  0.00  0.00    -0.039 A 
ATOM     12  C   LIG A   1      -8.462  -3.563 126.857  0.00  0.00    +0.004 A 
ATOM     13  C   LIG A   1      -8.793  -3.645 125.507  0.00  0.00    +0.004 A 
ATOM     14  C   LIG A   1      -7.832  -2.307 128.916  0.00  0.00    +0.044 C 
ENDROOT
BRANCH   9  15
ATOM     15  C   LIG A   1      -8.338   2.497 124.061  0.00  0.00    +0.089 C 
ATOM     16  C   LIG A   1      -6.922   2.965 123.700  0.00  0.00    +0.046 C 
ATOM     17  C   LIG A   1      -9.159   2.380 122.767  0.00  0.00    +0.046 C 
BRANCH  15  18
ATOM     18  O   LIG A   1      -8.983   3.531 124.814  0.00  0.00    -0.384 OA
ATOM     19  H   LIG A   1      -9.940   3.489 124.602  0.00  0.00    +0.211 HD
ENDBRANCH  15  18
ENDBRANCH   9  15
TORSDOF 2
ENDMDL
MODEL 6
REMARK VINA RESULT:      -6.5      3.284      5.107
REMARK  Name = NuBBE_2261
REMARK  6 active torsions:
REMARK  status: ('A' for Active; 'I' for Inactive)
REMARK    1  A    between atoms: C_1  and  C_2
REMARK    2  A    between atoms: C_9  and  C_11
REMARK    3  A    between atoms: C_11  and  C_12
REMARK    4  A    between atoms: C_11  and  C_13
REMARK    5  A    between atoms: C_11  and  O_14
REMARK    6  A    between atoms: C_15  and  C_18
REMARK                            x       y       z     vdW  Elec       q    Type
REMARK                         _______ _______ _______ _____ _____    ______ ____
ROOT
ATOM      1  C   LIG A   1      -8.688  -4.289 128.192  0.00  0.00    +0.044 C 
ATOM      2  C   LIG A   1      -8.311  -2.844 128.399  0.00  0.00    -0.043 A 
ATOM      3  C   LIG A   1      -8.290  -1.898 127.347  0.00  0.00    -0.011 A 
ATOM      4  C   LIG A   1      -7.926  -0.563 127.629  0.00  0.00    +0.036 A 
ATOM      5  C   LIG A   1      -7.937   0.402 126.502  0.00  0.00    +0.234 C 
ATOM      6  O   LIG A   1      -7.921   1.614 126.663  0.00  0.00    -0.283 OA
ATOM      7  C   LIG A   1      -7.989  -0.145 125.090  0.00  0.00    +0.232 C 
ATOM      8  O   LIG A   1      -7.636   0.551 124.145  0.00  0.00    -0.283 OA
ATOM      9  C   LIG A   1      -8.519  -1.518 124.886  0.00  0.00    +0.034 C 
ATOM     10  C   LIG A   1      -8.660  -2.293 125.976  0.00  0.00    +0.019 C 
ATOM     11  C   LIG A   1      -7.578  -0.164 128.939  0.00  0.00    -0.039 A 
ATOM     12  C   LIG A   1      -7.614  -1.118 129.964  0.00  0.00    +0.004 A 
ATOM     13  C   LIG A   1      -7.975  -2.436 129.697  0.00  0.00    +0.004 A 
ATOM     14  C   LIG A   1      -7.174   1.242 129.293  0.00  0.00    +0.044 C 
ENDROOT
BRANCH   9  15
ATOM     15  C   LIG A   1      -8.850  -1.919 123.454  0.00  0.00    +0.089 C 
ATOM     16  C   LIG A   1      -7.581  -2.012 122.596  0.00  0.00    +0.046 C 
ATOM     17  C   LIG A   1      -9.620  -3.244 123.335  0.00  0.00    +0.046 C 
BRANCH  15  18
ATOM     18  O   LIG A   1      -9.720  -0.936 122.879  0.00  0.00    -0.384 OA
ATOM     19  H   LIG A   1     -10.261  -1.390 122.199  0.00  0.00    +0.211 HD
ENDBRANCH  15  18
ENDBRANCH   9  15
TORSDOF 2
ENDMDL
MODEL 7
REMARK VINA RESULT:      -6.3      3.636      5.529
REMARK  Name = NuBBE_2261
REMARK  6 active torsions:
REMARK  status: ('A' for Active; 'I' for Inactive)
REMARK    1  A    between atoms: C_1  and  C_2
REMARK    2  A    between atoms: C_9  and  C_11
REMARK    3  A    between atoms: C_11  and  C_12
REMARK    4  A    between atoms: C_11  and  C_13
REMARK    5  A    between atoms: C_11  and  O_14
REMARK    6  A    between atoms: C_15  and  C_18
REMARK                            x       y       z     vdW  Elec       q    Type
REMARK                         _______ _______ _______ _____ _____    ______ ____
ROOT
ATOM      1  C   LIG A   1      -4.710  -4.006 123.928  0.00  0.00    +0.044 C 
ATOM      2  C   LIG A   1      -5.490  -2.716 123.939  0.00  0.00    -0.043 A 
ATOM      3  C   LIG A   1      -5.789  -2.009 125.127  0.00  0.00    -0.011 A 
ATOM      4  C   LIG A   1      -6.523  -0.806 125.047  0.00  0.00    +0.036 A 
ATOM      5  C   LIG A   1      -6.798  -0.085 126.314  0.00  0.00    +0.234 C 
ATOM      6  O   LIG A   1      -7.164   1.081 126.352  0.00  0.00    -0.283 OA
ATOM      7  C   LIG A   1      -6.594  -0.827 127.620  0.00  0.00    +0.232 C 
ATOM      8  O   LIG A   1      -7.137  -0.433 128.645  0.00  0.00    -0.283 OA
ATOM      9  C   LIG A   1      -5.689  -2.006 127.626  0.00  0.00    +0.034 C 
ATOM     10  C   LIG A   1      -5.325  -2.510 126.434  0.00  0.00    +0.019 C 
ATOM     11  C   LIG A   1      -6.967  -0.305 123.802  0.00  0.00    -0.039 A 
ATOM     12  C   LIG A   1      -6.652  -1.020 122.640  0.00  0.00    +0.004 A 
ATOM     13  C   LIG A   1      -5.925  -2.205 122.708  0.00  0.00    +0.004 A 
ATOM     14  C   LIG A   1      -7.761   0.966 123.660  0.00  0.00    +0.044 C 
ENDROOT
BRANCH   9  15
ATOM     15  C   LIG A   1      -5.261  -2.533 128.990  0.00  0.00    +0.089 C 
ATOM     16  C   LIG A   1      -6.376  -3.366 129.638  0.00  0.00    +0.046 C 
ATOM     17  C   LIG A   1      -3.976  -3.375 128.961  0.00  0.00    +0.046 C 
BRANCH  15  18
ATOM     18  O   LIG A   1      -4.958  -1.428 129.849  0.00  0.00    -0.384 OA
ATOM     19  H   LIG A   1      -5.771  -1.228 130.361  0.00  0.00    +0.211 HD
ENDBRANCH  15  18
ENDBRANCH   9  15
TORSDOF 2
ENDMDL
MODEL 8
REMARK VINA RESULT:      -6.2      2.844      3.213
REMARK  Name = NuBBE_2261
REMARK  6 active torsions:
REMARK  status: ('A' for Active; 'I' for Inactive)
REMARK    1  A    between atoms: C_1  and  C_2
REMARK    2  A    between atoms: C_9  and  C_11
REMARK    3  A    between atoms: C_11  and  C_12
REMARK    4  A    between atoms: C_11  and  C_13
REMARK    5  A    between atoms: C_11  and  O_14
REMARK    6  A    between atoms: C_15  and  C_18
REMARK                            x       y       z     vdW  Elec       q    Type
REMARK                         _______ _______ _______ _____ _____    ______ ____
ROOT
ATOM      1  C   LIG A   1      -5.240   0.173 128.850  0.00  0.00    +0.044 C 
ATOM      2  C   LIG A   1      -6.272  -0.866 128.491  0.00  0.00    -0.043 A 
ATOM      3  C   LIG A   1      -7.185  -0.704 127.423  0.00  0.00    -0.011 A 
ATOM      4  C   LIG A   1      -8.118  -1.729 127.154  0.00  0.00    +0.036 A 
ATOM      5  C   LIG A   1      -9.045  -1.529 126.012  0.00  0.00    +0.234 C 
ATOM      6  O   LIG A   1      -9.690  -2.439 125.510  0.00  0.00    -0.283 OA
ATOM      7  C   LIG A   1      -9.179  -0.135 125.433  0.00  0.00    +0.232 C 
ATOM      8  O   LIG A   1     -10.162   0.164 124.765  0.00  0.00    -0.283 OA
ATOM      9  C   LIG A   1      -8.073   0.831 125.659  0.00  0.00    +0.034 C 
ATOM     10  C   LIG A   1      -7.154   0.510 126.587  0.00  0.00    +0.019 C 
ATOM     11  C   LIG A   1      -8.157  -2.904 127.938  0.00  0.00    -0.039 A 
ATOM     12  C   LIG A   1      -7.237  -3.043 128.985  0.00  0.00    +0.004 A 
ATOM     13  C   LIG A   1      -6.310  -2.040 129.256  0.00  0.00    +0.004 A 
ATOM     14  C   LIG A   1      -9.136  -4.022 127.701  0.00  0.00    +0.044 C 
ENDROOT
BRANCH   9  15
ATOM     15  C   LIG A   1      -8.088   2.100 124.816  0.00  0.00    +0.089 C 
ATOM     16  C   LIG A   1      -7.006   3.086 125.277  0.00  0.00    +0.046 C 
ATOM     17  C   LIG A   1      -7.915   1.853 123.309  0.00  0.00    +0.046 C 
BRANCH  15  18
ATOM     18  O   LIG A   1      -9.367   2.733 124.941  0.00  0.00    -0.384 OA
ATOM     19  H   LIG A   1      -9.405   3.445 124.267  0.00  0.00    +0.211 HD
ENDBRANCH  15  18
ENDBRANCH   9  15
TORSDOF 2
ENDMDL
MODEL 9
REMARK VINA RESULT:      -6.2      3.673      5.459
REMARK  Name = NuBBE_2261
REMARK  6 active torsions:
REMARK  status: ('A' for Active; 'I' for Inactive)
REMARK    1  A    between atoms: C_1  and  C_2
REMARK    2  A    between atoms: C_9  and  C_11
REMARK    3  A    between atoms: C_11  and  C_12
REMARK    4  A    between atoms: C_11  and  C_13
REMARK    5  A    between atoms: C_11  and  O_14
REMARK    6  A    between atoms: C_15  and  C_18
REMARK                            x       y       z     vdW  Elec       q    Type
REMARK                         _______ _______ _______ _____ _____    ______ ____
ROOT
ATOM      1  C   LIG A   1      -4.751   4.507 121.970  0.00  0.00    +0.044 C 
ATOM      2  C   LIG A   1      -6.008   3.845 122.479  0.00  0.00    -0.043 A 
ATOM      3  C   LIG A   1      -6.168   3.431 123.821  0.00  0.00    -0.011 A 
ATOM      4  C   LIG A   1      -7.379   2.821 124.214  0.00  0.00    +0.036 A 
ATOM      5  C   LIG A   1      -7.515   2.419 125.636  0.00  0.00    +0.234 C 
ATOM      6  O   LIG A   1      -8.590   2.151 126.153  0.00  0.00    -0.283 OA
ATOM      7  C   LIG A   1      -6.262   2.360 126.487  0.00  0.00    +0.232 C 
ATOM      8  O   LIG A   1      -6.249   1.704 127.521  0.00  0.00    -0.283 OA
ATOM      9  C   LIG A   1      -5.081   3.152 126.056  0.00  0.00    +0.034 C 
ATOM     10  C   LIG A   1      -5.093   3.648 124.806  0.00  0.00    +0.019 C 
ATOM     11  C   LIG A   1      -8.425   2.613 123.286  0.00  0.00    -0.039 A 
ATOM     12  C   LIG A   1      -8.244   3.039 121.964  0.00  0.00    +0.004 A 
ATOM     13  C   LIG A   1      -7.055   3.645 121.568  0.00  0.00    +0.004 A 
ATOM     14  C   LIG A   1      -9.731   1.960 123.647  0.00  0.00    +0.044 C 
ENDROOT
BRANCH   9  15
ATOM     15  C   LIG A   1      -3.962   3.323 127.077  0.00  0.00    +0.089 C 
ATOM     16  C   LIG A   1      -2.672   3.815 126.408  0.00  0.00    +0.046 C 
ATOM     17  C   LIG A   1      -4.308   4.276 128.232  0.00  0.00    +0.046 C 
BRANCH  15  18
ATOM     18  O   LIG A   1      -3.700   2.063 127.705  0.00  0.00    -0.384 OA
ATOM     19  H   LIG A   1      -4.534   1.773 128.132  0.00  0.00    +0.211 HD
ENDBRANCH  15  18
ENDBRANCH   9  15
TORSDOF 2
ENDMDL
