MODEL 1
REMARK VINA RESULT:      -6.9      0.000      0.000
REMARK  Name = NuBBE_1612
REMARK  2 active torsions:
REMARK  status: ('A' for Active; 'I' for Inactive)
REMARK    1  A    between atoms: C_11  and  O_12
REMARK    2  A    between atoms: O_12  and  C_13
REMARK                            x       y       z     vdW  Elec       q    Type
REMARK                         _______ _______ _______ _____ _____    ______ ____
ROOT
ATOM      1  O   LIG A   1     -10.552   8.659 127.678  0.00  0.00    -0.241 OA
ATOM      2  C   LIG A   1     -10.539   8.044 128.738  0.00  0.00    +0.380 A 
ATOM      3  O   LIG A   1      -9.328   7.711 129.343  0.00  0.00    -0.419 OA
ATOM      4  C   LIG A   1      -9.254   7.037 130.580  0.00  0.00    +0.150 A 
ATOM      5  C   LIG A   1      -8.001   6.746 131.144  0.00  0.00    +0.063 A 
ATOM      6  C   LIG A   1      -7.977   6.085 132.367  0.00  0.00    +0.138 A 
ATOM      7  C   LIG A   1      -9.118   5.696 133.065  0.00  0.00    +0.048 A 
ATOM      8  C   LIG A   1     -10.353   6.001 132.475  0.00  0.00    +0.015 A 
ATOM      9  C   LIG A   1     -10.426   6.665 131.245  0.00  0.00    +0.022 A 
ATOM     10  C   LIG A   1     -11.704   6.981 130.630  0.00  0.00    +0.064 A 
ATOM     11  C   LIG A   1     -11.786   7.611 129.450  0.00  0.00    +0.205 A 
ATOM     12  O   LIG A   1      -6.692   5.881 132.768  0.00  0.00    -0.463 OA
ATOM     13  C   LIG A   1      -5.889   6.410 131.808  0.00  0.00    +0.196 A 
ATOM     14  C   LIG A   1      -6.641   6.953 130.791  0.00  0.00    +0.053 A 
ENDROOT
BRANCH  11  15
ATOM     15  O   LIG A   1     -13.062   7.871 128.957  0.00  0.00    -0.489 OA
ATOM     16  C   LIG A   1     -13.591   6.897 128.064  0.00  0.00    +0.277 C 
ENDBRANCH  11  15
TORSDOF 1
ENDMDL
MODEL 2
REMARK VINA RESULT:      -6.8      1.166      5.118
REMARK  Name = NuBBE_1612
REMARK  2 active torsions:
REMARK  status: ('A' for Active; 'I' for Inactive)
REMARK    1  A    between atoms: C_11  and  O_12
REMARK    2  A    between atoms: O_12  and  C_13
REMARK                            x       y       z     vdW  Elec       q    Type
REMARK                         _______ _______ _______ _____ _____    ______ ____
ROOT
ATOM      1  O   LIG A   1      -6.177   6.846 130.817  0.00  0.00    -0.241 OA
ATOM      2  C   LIG A   1      -7.368   6.738 131.088  0.00  0.00    +0.380 A 
ATOM      3  O   LIG A   1      -8.334   7.246 130.221  0.00  0.00    -0.419 OA
ATOM      4  C   LIG A   1      -9.718   7.117 130.463  0.00  0.00    +0.150 A 
ATOM      5  C   LIG A   1     -10.641   7.638 129.540  0.00  0.00    +0.063 A 
ATOM      6  C   LIG A   1     -11.994   7.482 129.818  0.00  0.00    +0.138 A 
ATOM      7  C   LIG A   1     -12.489   6.845 130.953  0.00  0.00    +0.048 A 
ATOM      8  C   LIG A   1     -11.542   6.337 131.855  0.00  0.00    +0.015 A 
ATOM      9  C   LIG A   1     -10.169   6.470 131.616  0.00  0.00    +0.022 A 
ATOM     10  C   LIG A   1      -9.185   5.947 132.550  0.00  0.00    +0.064 A 
ATOM     11  C   LIG A   1      -7.868   6.073 132.336  0.00  0.00    +0.205 A 
ATOM     12  O   LIG A   1     -12.746   8.040 128.830  0.00  0.00    -0.463 OA
ATOM     13  C   LIG A   1     -11.880   8.551 127.915  0.00  0.00    +0.196 A 
ATOM     14  C   LIG A   1     -10.578   8.332 128.303  0.00  0.00    +0.053 A 
ENDROOT
BRANCH  11  15
ATOM     15  O   LIG A   1      -7.015   5.527 133.291  0.00  0.00    -0.489 OA
ATOM     16  C   LIG A   1      -7.645   4.797 134.337  0.00  0.00    +0.277 C 
ENDBRANCH  11  15
TORSDOF 1
ENDMDL
MODEL 3
REMARK VINA RESULT:      -6.7      8.777     10.616
REMARK  Name = NuBBE_1612
REMARK  2 active torsions:
REMARK  status: ('A' for Active; 'I' for Inactive)
REMARK    1  A    between atoms: C_11  and  O_12
REMARK    2  A    between atoms: O_12  and  C_13
REMARK                            x       y       z     vdW  Elec       q    Type
REMARK                         _______ _______ _______ _____ _____    ______ ____
ROOT
ATOM      1  O   LIG A   1      -9.392   2.412 125.047  0.00  0.00    -0.241 OA
ATOM      2  C   LIG A   1      -8.469   2.727 124.304  0.00  0.00    +0.380 A 
ATOM      3  O   LIG A   1      -8.721   3.066 122.976  0.00  0.00    -0.419 OA
ATOM      4  C   LIG A   1      -7.703   3.472 122.087  0.00  0.00    +0.150 A 
ATOM      5  C   LIG A   1      -8.026   3.818 120.764  0.00  0.00    +0.063 A 
ATOM      6  C   LIG A   1      -6.991   4.216 119.926  0.00  0.00    +0.138 A 
ATOM      7  C   LIG A   1      -5.656   4.293 120.318  0.00  0.00    +0.048 A 
ATOM      8  C   LIG A   1      -5.367   3.941 121.644  0.00  0.00    +0.015 A 
ATOM      9  C   LIG A   1      -6.377   3.534 122.524  0.00  0.00    +0.022 A 
ATOM     10  C   LIG A   1      -6.080   3.166 123.899  0.00  0.00    +0.064 A 
ATOM     11  C   LIG A   1      -7.037   2.769 124.748  0.00  0.00    +0.205 A 
ATOM     12  O   LIG A   1      -7.474   4.513 118.688  0.00  0.00    -0.463 OA
ATOM     13  C   LIG A   1      -8.817   4.308 118.728  0.00  0.00    +0.196 A 
ATOM     14  C   LIG A   1      -9.207   3.882 119.977  0.00  0.00    +0.053 A 
ENDROOT
BRANCH  11  15
ATOM     15  O   LIG A   1      -6.642   2.449 126.044  0.00  0.00    -0.489 OA
ATOM     16  C   LIG A   1      -5.591   1.496 126.153  0.00  0.00    +0.277 C 
ENDBRANCH  11  15
TORSDOF 1
ENDMDL
MODEL 4
REMARK VINA RESULT:      -6.5      1.795      3.140
REMARK  Name = NuBBE_1612
REMARK  2 active torsions:
REMARK  status: ('A' for Active; 'I' for Inactive)
REMARK    1  A    between atoms: C_11  and  O_12
REMARK    2  A    between atoms: O_12  and  C_13
REMARK                            x       y       z     vdW  Elec       q    Type
REMARK                         _______ _______ _______ _____ _____    ______ ____
ROOT
ATOM      1  O   LIG A   1     -12.352   6.356 131.730  0.00  0.00    -0.241 OA
ATOM      2  C   LIG A   1     -11.141   6.480 131.585  0.00  0.00    +0.380 A 
ATOM      3  O   LIG A   1     -10.262   5.971 132.539  0.00  0.00    -0.419 OA
ATOM      4  C   LIG A   1      -8.860   6.053 132.404  0.00  0.00    +0.150 A 
ATOM      5  C   LIG A   1      -8.029   5.504 133.395  0.00  0.00    +0.063 A 
ATOM      6  C   LIG A   1      -6.654   5.604 133.217  0.00  0.00    +0.138 A 
ATOM      7  C   LIG A   1      -6.052   6.214 132.119  0.00  0.00    +0.048 A 
ATOM      8  C   LIG A   1      -6.909   6.752 131.149  0.00  0.00    +0.015 A 
ATOM      9  C   LIG A   1      -8.300   6.675 131.285  0.00  0.00    +0.022 A 
ATOM     10  C   LIG A   1      -9.191   7.235 130.282  0.00  0.00    +0.064 A 
ATOM     11  C   LIG A   1     -10.524   7.172 130.405  0.00  0.00    +0.205 A 
ATOM     12  O   LIG A   1      -6.000   5.025 134.262  0.00  0.00    -0.463 OA
ATOM     13  C   LIG A   1      -6.950   4.551 135.110  0.00  0.00    +0.196 A 
ATOM     14  C   LIG A   1      -8.211   4.819 134.626  0.00  0.00    +0.053 A 
ENDROOT
BRANCH  11  15
ATOM     15  O   LIG A   1     -11.282   7.732 129.381  0.00  0.00    -0.489 OA
ATOM     16  C   LIG A   1     -10.545   8.359 128.337  0.00  0.00    +0.277 C 
ENDBRANCH  11  15
TORSDOF 1
ENDMDL
MODEL 5
REMARK VINA RESULT:      -6.2      2.054      3.012
REMARK  Name = NuBBE_1612
REMARK  2 active torsions:
REMARK  status: ('A' for Active; 'I' for Inactive)
REMARK    1  A    between atoms: C_11  and  O_12
REMARK    2  A    between atoms: O_12  and  C_13
REMARK                            x       y       z     vdW  Elec       q    Type
REMARK                         _______ _______ _______ _____ _____    ______ ____
ROOT
ATOM      1  O   LIG A   1     -13.740   6.405 128.361  0.00  0.00    -0.241 OA
ATOM      2  C   LIG A   1     -12.640   6.581 128.873  0.00  0.00    +0.380 A 
ATOM      3  O   LIG A   1     -11.967   5.519 129.475  0.00  0.00    -0.419 OA
ATOM      4  C   LIG A   1     -10.684   5.655 130.046  0.00  0.00    +0.150 A 
ATOM      5  C   LIG A   1     -10.053   4.541 130.623  0.00  0.00    +0.063 A 
ATOM      6  C   LIG A   1      -8.788   4.722 131.169  0.00  0.00    +0.138 A 
ATOM      7  C   LIG A   1      -8.109   5.938 131.179  0.00  0.00    +0.048 A 
ATOM      8  C   LIG A   1      -8.767   7.031 130.596  0.00  0.00    +0.015 A 
ATOM      9  C   LIG A   1     -10.042   6.896 130.033  0.00  0.00    +0.022 A 
ATOM     10  C   LIG A   1     -10.727   8.028 129.431  0.00  0.00    +0.064 A 
ATOM     11  C   LIG A   1     -11.949   7.912 128.895  0.00  0.00    +0.205 A 
ATOM     12  O   LIG A   1      -8.323   3.550 131.683  0.00  0.00    -0.463 OA
ATOM     13  C   LIG A   1      -9.286   2.614 131.467  0.00  0.00    +0.196 A 
ATOM     14  C   LIG A   1     -10.367   3.170 130.821  0.00  0.00    +0.053 A 
ENDROOT
BRANCH  11  15
ATOM     15  O   LIG A   1     -12.508   9.059 128.337  0.00  0.00    -0.489 OA
ATOM     16  C   LIG A   1     -13.212   9.906 129.238  0.00  0.00    +0.277 C 
ENDBRANCH  11  15
TORSDOF 1
ENDMDL
MODEL 6
REMARK VINA RESULT:      -6.1      8.652      9.491
REMARK  Name = NuBBE_1612
REMARK  2 active torsions:
REMARK  status: ('A' for Active; 'I' for Inactive)
REMARK    1  A    between atoms: C_11  and  O_12
REMARK    2  A    between atoms: O_12  and  C_13
REMARK                            x       y       z     vdW  Elec       q    Type
REMARK                         _______ _______ _______ _____ _____    ______ ____
ROOT
ATOM      1  O   LIG A   1      -4.231   6.130 120.857  0.00  0.00    -0.241 OA
ATOM      2  C   LIG A   1      -4.955   5.245 121.300  0.00  0.00    +0.380 A 
ATOM      3  O   LIG A   1      -4.858   4.861 122.635  0.00  0.00    -0.419 OA
ATOM      4  C   LIG A   1      -5.690   3.875 123.208  0.00  0.00    +0.150 A 
ATOM      5  C   LIG A   1      -5.552   3.545 124.566  0.00  0.00    +0.063 A 
ATOM      6  C   LIG A   1      -6.397   2.572 125.086  0.00  0.00    +0.138 A 
ATOM      7  C   LIG A   1      -7.370   1.906 124.345  0.00  0.00    +0.048 A 
ATOM      8  C   LIG A   1      -7.481   2.258 122.992  0.00  0.00    +0.015 A 
ATOM      9  C   LIG A   1      -6.652   3.232 122.424  0.00  0.00    +0.022 A 
ATOM     10  C   LIG A   1      -6.764   3.597 121.021  0.00  0.00    +0.064 A 
ATOM     11  C   LIG A   1      -5.972   4.524 120.465  0.00  0.00    +0.205 A 
ATOM     12  O   LIG A   1      -6.131   2.374 126.407  0.00  0.00    -0.463 OA
ATOM     13  C   LIG A   1      -5.119   3.219 126.738  0.00  0.00    +0.196 A 
ATOM     14  C   LIG A   1      -4.727   3.959 125.646  0.00  0.00    +0.053 A 
ENDROOT
BRANCH  11  15
ATOM     15  O   LIG A   1      -6.172   4.802 119.116  0.00  0.00    -0.489 OA
ATOM     16  C   LIG A   1      -7.474   4.524 118.613  0.00  0.00    +0.277 C 
ENDBRANCH  11  15
TORSDOF 1
ENDMDL
MODEL 7
REMARK VINA RESULT:      -6.1      2.312      4.999
REMARK  Name = NuBBE_1612
REMARK  2 active torsions:
REMARK  status: ('A' for Active; 'I' for Inactive)
REMARK    1  A    between atoms: C_11  and  O_12
REMARK    2  A    between atoms: O_12  and  C_13
REMARK                            x       y       z     vdW  Elec       q    Type
REMARK                         _______ _______ _______ _____ _____    ______ ____
ROOT
ATOM      1  O   LIG A   1      -7.792   4.593 128.120  0.00  0.00    -0.241 OA
ATOM      2  C   LIG A   1      -8.610   4.942 128.964  0.00  0.00    +0.380 A 
ATOM      3  O   LIG A   1      -9.495   5.984 128.695  0.00  0.00    -0.419 OA
ATOM      4  C   LIG A   1     -10.481   6.403 129.614  0.00  0.00    +0.150 A 
ATOM      5  C   LIG A   1     -11.355   7.450 129.275  0.00  0.00    +0.063 A 
ATOM      6  C   LIG A   1     -12.312   7.824 130.210  0.00  0.00    +0.138 A 
ATOM      7  C   LIG A   1     -12.458   7.228 131.460  0.00  0.00    +0.048 A 
ATOM      8  C   LIG A   1     -11.570   6.187 131.768  0.00  0.00    +0.015 A 
ATOM      9  C   LIG A   1     -10.589   5.775 130.858  0.00  0.00    +0.022 A 
ATOM     10  C   LIG A   1      -9.666   4.698 131.176  0.00  0.00    +0.064 A 
ATOM     11  C   LIG A   1      -8.719   4.300 130.315  0.00  0.00    +0.205 A 
ATOM     12  O   LIG A   1     -13.071   8.846 129.725  0.00  0.00    -0.463 OA
ATOM     13  C   LIG A   1     -12.605   9.127 128.479  0.00  0.00    +0.196 A 
ATOM     14  C   LIG A   1     -11.554   8.300 128.155  0.00  0.00    +0.053 A 
ENDROOT
BRANCH  11  15
ATOM     15  O   LIG A   1      -7.895   3.253 130.719  0.00  0.00    -0.489 OA
ATOM     16  C   LIG A   1      -8.558   2.042 131.065  0.00  0.00    +0.277 C 
ENDBRANCH  11  15
TORSDOF 1
ENDMDL
MODEL 8
REMARK VINA RESULT:      -5.9      1.742      5.452
REMARK  Name = NuBBE_1612
REMARK  2 active torsions:
REMARK  status: ('A' for Active; 'I' for Inactive)
REMARK    1  A    between atoms: C_11  and  O_12
REMARK    2  A    between atoms: O_12  and  C_13
REMARK                            x       y       z     vdW  Elec       q    Type
REMARK                         _______ _______ _______ _____ _____    ______ ____
ROOT
ATOM      1  O   LIG A   1      -4.805   7.666 130.028  0.00  0.00    -0.241 OA
ATOM      2  C   LIG A   1      -5.690   7.198 130.736  0.00  0.00    +0.380 A 
ATOM      3  O   LIG A   1      -7.028   7.347 130.377  0.00  0.00    -0.419 OA
ATOM      4  C   LIG A   1      -8.085   6.797 131.133  0.00  0.00    +0.150 A 
ATOM      5  C   LIG A   1      -9.413   6.969 130.708  0.00  0.00    +0.063 A 
ATOM      6  C   LIG A   1     -10.421   6.406 131.482  0.00  0.00    +0.138 A 
ATOM      7  C   LIG A   1     -10.194   5.683 132.651  0.00  0.00    +0.048 A 
ATOM      8  C   LIG A   1      -8.858   5.530 133.049  0.00  0.00    +0.015 A 
ATOM      9  C   LIG A   1      -7.810   6.080 132.301  0.00  0.00    +0.022 A 
ATOM     10  C   LIG A   1      -6.425   5.925 132.712  0.00  0.00    +0.064 A 
ATOM     11  C   LIG A   1      -5.414   6.452 132.007  0.00  0.00    +0.205 A 
ATOM     12  O   LIG A   1     -11.639   6.665 130.933  0.00  0.00    -0.463 OA
ATOM     13  C   LIG A   1     -11.418   7.392 129.805  0.00  0.00    +0.196 A 
ATOM     14  C   LIG A   1     -10.070   7.606 129.622  0.00  0.00    +0.053 A 
ENDROOT
BRANCH  11  15
ATOM     15  O   LIG A   1      -4.125   6.234 132.487  0.00  0.00    -0.489 OA
ATOM     16  C   LIG A   1      -3.965   5.107 133.342  0.00  0.00    +0.277 C 
ENDBRANCH  11  15
TORSDOF 1
ENDMDL
MODEL 9
REMARK VINA RESULT:      -5.9     10.618     11.777
REMARK  Name = NuBBE_1612
REMARK  2 active torsions:
REMARK  status: ('A' for Active; 'I' for Inactive)
REMARK    1  A    between atoms: C_11  and  O_12
REMARK    2  A    between atoms: O_12  and  C_13
REMARK                            x       y       z     vdW  Elec       q    Type
REMARK                         _______ _______ _______ _____ _____    ______ ____
ROOT
ATOM      1  O   LIG A   1      -4.462  -2.133 128.839  0.00  0.00    -0.241 OA
ATOM      2  C   LIG A   1      -5.530  -2.353 128.279  0.00  0.00    +0.380 A 
ATOM      3  O   LIG A   1      -5.655  -2.163 126.904  0.00  0.00    -0.419 OA
ATOM      4  C   LIG A   1      -6.848  -2.435 126.202  0.00  0.00    +0.150 A 
ATOM      5  C   LIG A   1      -6.903  -2.237 124.812  0.00  0.00    +0.063 A 
ATOM      6  C   LIG A   1      -8.097  -2.524 124.162  0.00  0.00    +0.138 A 
ATOM      7  C   LIG A   1      -9.241  -2.993 124.804  0.00  0.00    +0.048 A 
ATOM      8  C   LIG A   1      -9.154  -3.179 126.191  0.00  0.00    +0.015 A 
ATOM      9  C   LIG A   1      -7.971  -2.904 126.888  0.00  0.00    +0.022 A 
ATOM     10  C   LIG A   1      -7.879  -3.093 128.326  0.00  0.00    +0.064 A 
ATOM     11  C   LIG A   1      -6.754  -2.828 129.005  0.00  0.00    +0.205 A 
ATOM     12  O   LIG A   1      -7.980  -2.279 122.828  0.00  0.00    -0.463 OA
ATOM     13  C   LIG A   1      -6.711  -1.838 122.618  0.00  0.00    +0.196 A 
ATOM     14  C   LIG A   1      -6.009  -1.794 123.801  0.00  0.00    +0.053 A 
ENDROOT
BRANCH  11  15
ATOM     15  O   LIG A   1      -6.774  -3.054 130.378  0.00  0.00    -0.489 OA
ATOM     16  C   LIG A   1      -6.094  -4.223 130.822  0.00  0.00    +0.277 C 
ENDBRANCH  11  15
TORSDOF 1
ENDMDL
