MODEL 1
REMARK VINA RESULT:      -4.7      0.000      0.000
REMARK  Name = NuBBE_1907
REMARK  10 active torsions:
REMARK  status: ('A' for Active; 'I' for Inactive)
REMARK    1  A    between atoms: C_1  and  C_2
REMARK    2  A    between atoms: C_1  and  C_8
REMARK    3  A    between atoms: C_2  and  C_3
REMARK    4  A    between atoms: C_3  and  C_4
REMARK    5  A    between atoms: C_4  and  C_5
REMARK    6  A    between atoms: C_5  and  C_6
REMARK    7  A    between atoms: C_6  and  C_7
REMARK    8  A    between atoms: C_8  and  C_9
REMARK    9  A    between atoms: C_9  and  C_10
REMARK   10  A    between atoms: C_10  and  C_12
REMARK                            x       y       z     vdW  Elec       q    Type
REMARK                         _______ _______ _______ _____ _____    ______ ____
ROOT
ATOM      1  C   LIG A   1      -9.402  -2.851 125.161  0.00  0.00    +0.000 C 
ENDROOT
BRANCH   1   2
ATOM      2  C   LIG A   1      -8.152  -3.320 125.931  0.00  0.00    +0.000 C 
BRANCH   2   3
ATOM      3  C   LIG A   1      -7.203  -2.144 126.244  0.00  0.00    -0.000 C 
BRANCH   3   4
ATOM      4  C   LIG A   1      -5.728  -2.439 125.909  0.00  0.00    -0.000 C 
BRANCH   4   5
ATOM      5  C   LIG A   1      -5.349  -1.940 124.501  0.00  0.00    -0.000 C 
BRANCH   5   6
ATOM      6  C   LIG A   1      -5.342  -3.057 123.448  0.00  0.00    -0.003 C 
ATOM      7  C   LIG A   1      -4.433  -4.214 123.854  0.00  0.00    +0.004 C 
ENDBRANCH   5   6
ENDBRANCH   4   5
ENDBRANCH   3   4
ENDBRANCH   2   3
ENDBRANCH   1   2
BRANCH   1   8
ATOM      8  C   LIG A   1      -9.436  -3.303 123.689  0.00  0.00    +0.007 C 
BRANCH   8   9
ATOM      9  C   LIG A   1      -8.707  -2.301 122.784  0.00  0.00    +0.074 C 
BRANCH   9  10
ATOM     10  C   LIG A   1      -9.214  -0.871 122.924  0.00  0.00    +0.130 C 
ATOM     11  O   LIG A   1     -10.358  -0.540 122.638  0.00  0.00    -0.298 OA
ATOM     12  C   LIG A   1      -8.213   0.148 123.426  0.00  0.00    +0.086 C 
ENDBRANCH   9  10
ENDBRANCH   8   9
ENDBRANCH   1   8
TORSDOF 8
ENDMDL
MODEL 2
REMARK VINA RESULT:      -4.6      1.650      2.859
REMARK  Name = NuBBE_1907
REMARK  10 active torsions:
REMARK  status: ('A' for Active; 'I' for Inactive)
REMARK    1  A    between atoms: C_1  and  C_2
REMARK    2  A    between atoms: C_1  and  C_8
REMARK    3  A    between atoms: C_2  and  C_3
REMARK    4  A    between atoms: C_3  and  C_4
REMARK    5  A    between atoms: C_4  and  C_5
REMARK    6  A    between atoms: C_5  and  C_6
REMARK    7  A    between atoms: C_6  and  C_7
REMARK    8  A    between atoms: C_8  and  C_9
REMARK    9  A    between atoms: C_9  and  C_10
REMARK   10  A    between atoms: C_10  and  C_12
REMARK                            x       y       z     vdW  Elec       q    Type
REMARK                         _______ _______ _______ _____ _____    ______ ____
ROOT
ATOM      1  C   LIG A   1      -6.782  -2.282 127.753  0.00  0.00    +0.000 C 
ENDROOT
BRANCH   1   2
ATOM      2  C   LIG A   1      -6.466  -1.124 126.786  0.00  0.00    +0.000 C 
BRANCH   2   3
ATOM      3  C   LIG A   1      -5.482  -1.559 125.680  0.00  0.00    -0.000 C 
BRANCH   3   4
ATOM      4  C   LIG A   1      -6.030  -1.349 124.254  0.00  0.00    -0.000 C 
BRANCH   4   5
ATOM      5  C   LIG A   1      -5.654  -2.515 123.319  0.00  0.00    -0.000 C 
BRANCH   5   6
ATOM      6  C   LIG A   1      -5.404  -3.831 124.069  0.00  0.00    -0.003 C 
ATOM      7  C   LIG A   1      -4.184  -4.570 123.525  0.00  0.00    +0.004 C 
ENDBRANCH   5   6
ENDBRANCH   4   5
ENDBRANCH   3   4
ENDBRANCH   2   3
ENDBRANCH   1   2
BRANCH   1   8
ATOM      8  C   LIG A   1      -8.224  -2.812 127.643  0.00  0.00    +0.007 C 
BRANCH   8   9
ATOM      9  C   LIG A   1      -8.435  -3.579 126.331  0.00  0.00    +0.074 C 
BRANCH   9  10
ATOM     10  C   LIG A   1      -9.247  -2.808 125.297  0.00  0.00    +0.130 C 
ATOM     11  O   LIG A   1      -9.888  -1.801 125.571  0.00  0.00    -0.298 OA
ATOM     12  C   LIG A   1      -9.239  -3.366 123.889  0.00  0.00    +0.086 C 
ENDBRANCH   9  10
ENDBRANCH   8   9
ENDBRANCH   1   8
TORSDOF 8
ENDMDL
MODEL 3
REMARK VINA RESULT:      -4.5      2.503      3.813
REMARK  Name = NuBBE_1907
REMARK  10 active torsions:
REMARK  status: ('A' for Active; 'I' for Inactive)
REMARK    1  A    between atoms: C_1  and  C_2
REMARK    2  A    between atoms: C_1  and  C_8
REMARK    3  A    between atoms: C_2  and  C_3
REMARK    4  A    between atoms: C_3  and  C_4
REMARK    5  A    between atoms: C_4  and  C_5
REMARK    6  A    between atoms: C_5  and  C_6
REMARK    7  A    between atoms: C_6  and  C_7
REMARK    8  A    between atoms: C_8  and  C_9
REMARK    9  A    between atoms: C_9  and  C_10
REMARK   10  A    between atoms: C_10  and  C_12
REMARK                            x       y       z     vdW  Elec       q    Type
REMARK                         _______ _______ _______ _____ _____    ______ ____
ROOT
ATOM      1  C   LIG A   1      -8.521  -3.774 124.786  0.00  0.00    +0.000 C 
ENDROOT
BRANCH   1   2
ATOM      2  C   LIG A   1      -8.769  -3.073 123.436  0.00  0.00    +0.000 C 
BRANCH   2   3
ATOM      3  C   LIG A   1      -7.918  -1.794 123.295  0.00  0.00    -0.000 C 
BRANCH   3   4
ATOM      4  C   LIG A   1      -6.502  -2.056 122.746  0.00  0.00    -0.000 C 
BRANCH   4   5
ATOM      5  C   LIG A   1      -5.547  -2.568 123.842  0.00  0.00    -0.000 C 
BRANCH   5   6
ATOM      6  C   LIG A   1      -4.340  -3.330 123.279  0.00  0.00    -0.003 C 
ATOM      7  C   LIG A   1      -4.389  -4.813 123.636  0.00  0.00    +0.004 C 
ENDBRANCH   5   6
ENDBRANCH   4   5
ENDBRANCH   3   4
ENDBRANCH   2   3
ENDBRANCH   1   2
BRANCH   1   8
ATOM      8  C   LIG A   1      -9.234  -3.108 125.977  0.00  0.00    +0.007 C 
BRANCH   8   9
ATOM      9  C   LIG A   1      -8.905  -3.825 127.293  0.00  0.00    +0.074 C 
BRANCH   9  10
ATOM     10  C   LIG A   1      -8.064  -2.989 128.251  0.00  0.00    +0.130 C 
ATOM     11  O   LIG A   1      -8.316  -2.893 129.446  0.00  0.00    -0.298 OA
ATOM     12  C   LIG A   1      -6.888  -2.256 127.643  0.00  0.00    +0.086 C 
ENDBRANCH   9  10
ENDBRANCH   8   9
ENDBRANCH   1   8
TORSDOF 8
ENDMDL
MODEL 4
REMARK VINA RESULT:      -4.3      1.702      2.415
REMARK  Name = NuBBE_1907
REMARK  10 active torsions:
REMARK  status: ('A' for Active; 'I' for Inactive)
REMARK    1  A    between atoms: C_1  and  C_2
REMARK    2  A    between atoms: C_1  and  C_8
REMARK    3  A    between atoms: C_2  and  C_3
REMARK    4  A    between atoms: C_3  and  C_4
REMARK    5  A    between atoms: C_4  and  C_5
REMARK    6  A    between atoms: C_5  and  C_6
REMARK    7  A    between atoms: C_6  and  C_7
REMARK    8  A    between atoms: C_8  and  C_9
REMARK    9  A    between atoms: C_9  and  C_10
REMARK   10  A    between atoms: C_10  and  C_12
REMARK                            x       y       z     vdW  Elec       q    Type
REMARK                         _______ _______ _______ _____ _____    ______ ____
ROOT
ATOM      1  C   LIG A   1      -9.209  -2.694 125.261  0.00  0.00    +0.000 C 
ENDROOT
BRANCH   1   2
ATOM      2  C   LIG A   1      -8.187  -3.413 124.359  0.00  0.00    +0.000 C 
BRANCH   2   3
ATOM      3  C   LIG A   1      -7.981  -2.665 123.025  0.00  0.00    -0.000 C 
BRANCH   3   4
ATOM      4  C   LIG A   1      -6.599  -1.994 122.904  0.00  0.00    -0.000 C 
BRANCH   4   5
ATOM      5  C   LIG A   1      -5.616  -2.508 123.974  0.00  0.00    -0.000 C 
BRANCH   5   6
ATOM      6  C   LIG A   1      -4.435  -3.288 123.380  0.00  0.00    -0.003 C 
ATOM      7  C   LIG A   1      -4.547  -4.785 123.658  0.00  0.00    +0.004 C 
ENDBRANCH   5   6
ENDBRANCH   4   5
ENDBRANCH   3   4
ENDBRANCH   2   3
ENDBRANCH   1   2
BRANCH   1   8
ATOM      8  C   LIG A   1      -8.615  -1.528 126.074  0.00  0.00    +0.007 C 
BRANCH   8   9
ATOM      9  C   LIG A   1      -9.306  -0.202 125.729  0.00  0.00    +0.074 C 
BRANCH   9  10
ATOM     10  C   LIG A   1      -8.658   0.540 124.567  0.00  0.00    +0.130 C 
ATOM     11  O   LIG A   1      -7.504   0.948 124.599  0.00  0.00    -0.298 OA
ATOM     12  C   LIG A   1      -9.531   0.771 123.351  0.00  0.00    +0.086 C 
ENDBRANCH   9  10
ENDBRANCH   8   9
ENDBRANCH   1   8
TORSDOF 8
ENDMDL
MODEL 5
REMARK VINA RESULT:      -4.3      2.341      4.578
REMARK  Name = NuBBE_1907
REMARK  10 active torsions:
REMARK  status: ('A' for Active; 'I' for Inactive)
REMARK    1  A    between atoms: C_1  and  C_2
REMARK    2  A    between atoms: C_1  and  C_8
REMARK    3  A    between atoms: C_2  and  C_3
REMARK    4  A    between atoms: C_3  and  C_4
REMARK    5  A    between atoms: C_4  and  C_5
REMARK    6  A    between atoms: C_5  and  C_6
REMARK    7  A    between atoms: C_6  and  C_7
REMARK    8  A    between atoms: C_8  and  C_9
REMARK    9  A    between atoms: C_9  and  C_10
REMARK   10  A    between atoms: C_10  and  C_12
REMARK                            x       y       z     vdW  Elec       q    Type
REMARK                         _______ _______ _______ _____ _____    ______ ____
ROOT
ATOM      1  C   LIG A   1      -8.067  -1.486 123.056  0.00  0.00    +0.000 C 
ENDROOT
BRANCH   1   2
ATOM      2  C   LIG A   1      -8.703  -2.888 123.143  0.00  0.00    +0.000 C 
BRANCH   2   3
ATOM      3  C   LIG A   1      -8.653  -3.446 124.581  0.00  0.00    -0.000 C 
BRANCH   3   4
ATOM      4  C   LIG A   1      -9.280  -2.504 125.628  0.00  0.00    -0.000 C 
BRANCH   4   5
ATOM      5  C   LIG A   1      -8.434  -2.432 126.914  0.00  0.00    -0.000 C 
BRANCH   5   6
ATOM      6  C   LIG A   1      -8.656  -3.631 127.847  0.00  0.00    -0.003 C 
ATOM      7  C   LIG A   1      -8.296  -3.299 129.292  0.00  0.00    +0.004 C 
ENDBRANCH   5   6
ENDBRANCH   4   5
ENDBRANCH   3   4
ENDBRANCH   2   3
ENDBRANCH   1   2
BRANCH   1   8
ATOM      8  C   LIG A   1      -6.611  -1.427 123.556  0.00  0.00    +0.007 C 
BRANCH   8   9
ATOM      9  C   LIG A   1      -5.773  -2.566 122.960  0.00  0.00    +0.074 C 
BRANCH   9  10
ATOM     10  C   LIG A   1      -5.056  -3.409 124.008  0.00  0.00    +0.130 C 
ATOM     11  O   LIG A   1      -5.100  -3.160 125.206  0.00  0.00    -0.298 OA
ATOM     12  C   LIG A   1      -4.255  -4.584 123.487  0.00  0.00    +0.086 C 
ENDBRANCH   9  10
ENDBRANCH   8   9
ENDBRANCH   1   8
TORSDOF 8
ENDMDL
MODEL 6
REMARK VINA RESULT:      -4.3      3.010      4.007
REMARK  Name = NuBBE_1907
REMARK  10 active torsions:
REMARK  status: ('A' for Active; 'I' for Inactive)
REMARK    1  A    between atoms: C_1  and  C_2
REMARK    2  A    between atoms: C_1  and  C_8
REMARK    3  A    between atoms: C_2  and  C_3
REMARK    4  A    between atoms: C_3  and  C_4
REMARK    5  A    between atoms: C_4  and  C_5
REMARK    6  A    between atoms: C_5  and  C_6
REMARK    7  A    between atoms: C_6  and  C_7
REMARK    8  A    between atoms: C_8  and  C_9
REMARK    9  A    between atoms: C_9  and  C_10
REMARK   10  A    between atoms: C_10  and  C_12
REMARK                            x       y       z     vdW  Elec       q    Type
REMARK                         _______ _______ _______ _____ _____    ______ ____
ROOT
ATOM      1  C   LIG A   1      -9.263  -2.976 125.898  0.00  0.00    +0.000 C 
ENDROOT
BRANCH   1   2
ATOM      2  C   LIG A   1      -8.286  -2.802 127.077  0.00  0.00    +0.000 C 
BRANCH   2   3
ATOM      3  C   LIG A   1      -8.669  -3.703 128.271  0.00  0.00    -0.000 C 
BRANCH   3   4
ATOM      4  C   LIG A   1      -8.021  -3.270 129.600  0.00  0.00    -0.000 C 
BRANCH   4   5
ATOM      5  C   LIG A   1      -6.580  -3.800 129.736  0.00  0.00    -0.000 C 
BRANCH   5   6
ATOM      6  C   LIG A   1      -6.040  -3.712 131.170  0.00  0.00    -0.003 C 
ATOM      7  C   LIG A   1      -5.382  -5.018 131.609  0.00  0.00    +0.004 C 
ENDBRANCH   5   6
ENDBRANCH   4   5
ENDBRANCH   3   4
ENDBRANCH   2   3
ENDBRANCH   1   2
BRANCH   1   8
ATOM      8  C   LIG A   1      -8.658  -3.714 124.689  0.00  0.00    +0.007 C 
BRANCH   8   9
ATOM      9  C   LIG A   1      -9.295  -3.242 123.375  0.00  0.00    +0.074 C 
BRANCH   9  10
ATOM     10  C   LIG A   1      -8.993  -1.787 123.039  0.00  0.00    +0.130 C 
ATOM     11  O   LIG A   1      -9.864  -0.981 122.734  0.00  0.00    -0.298 OA
ATOM     12  C   LIG A   1      -7.536  -1.378 123.082  0.00  0.00    +0.086 C 
ENDBRANCH   9  10
ENDBRANCH   8   9
ENDBRANCH   1   8
TORSDOF 8
ENDMDL
MODEL 7
REMARK VINA RESULT:      -4.3     10.634     12.296
REMARK  Name = NuBBE_1907
REMARK  10 active torsions:
REMARK  status: ('A' for Active; 'I' for Inactive)
REMARK    1  A    between atoms: C_1  and  C_2
REMARK    2  A    between atoms: C_1  and  C_8
REMARK    3  A    between atoms: C_2  and  C_3
REMARK    4  A    between atoms: C_3  and  C_4
REMARK    5  A    between atoms: C_4  and  C_5
REMARK    6  A    between atoms: C_5  and  C_6
REMARK    7  A    between atoms: C_6  and  C_7
REMARK    8  A    between atoms: C_8  and  C_9
REMARK    9  A    between atoms: C_9  and  C_10
REMARK   10  A    between atoms: C_10  and  C_12
REMARK                            x       y       z     vdW  Elec       q    Type
REMARK                         _______ _______ _______ _____ _____    ______ ____
ROOT
ATOM      1  C   LIG A   1      -9.846   5.711 130.083  0.00  0.00    +0.000 C 
ENDROOT
BRANCH   1   2
ATOM      2  C   LIG A   1     -11.257   5.404 130.623  0.00  0.00    +0.000 C 
BRANCH   2   3
ATOM      3  C   LIG A   1     -11.865   6.621 131.351  0.00  0.00    -0.000 C 
BRANCH   3   4
ATOM      4  C   LIG A   1     -12.962   7.338 130.539  0.00  0.00    -0.000 C 
BRANCH   4   5
ATOM      5  C   LIG A   1     -12.410   8.565 129.788  0.00  0.00    -0.000 C 
BRANCH   5   6
ATOM      6  C   LIG A   1     -12.292   8.342 128.275  0.00  0.00    -0.003 C 
ATOM      7  C   LIG A   1     -10.843   8.415 127.801  0.00  0.00    +0.004 C 
ENDBRANCH   5   6
ENDBRANCH   4   5
ENDBRANCH   3   4
ENDBRANCH   2   3
ENDBRANCH   1   2
BRANCH   1   8
ATOM      8  C   LIG A   1      -9.153   6.895 130.783  0.00  0.00    +0.007 C 
BRANCH   8   9
ATOM      9  C   LIG A   1      -8.089   6.408 131.776  0.00  0.00    +0.074 C 
BRANCH   9  10
ATOM     10  C   LIG A   1      -6.665   6.773 131.374  0.00  0.00    +0.130 C 
ATOM     11  O   LIG A   1      -6.410   7.525 130.441  0.00  0.00    -0.298 OA
ATOM     12  C   LIG A   1      -5.557   6.137 132.186  0.00  0.00    +0.086 C 
ENDBRANCH   9  10
ENDBRANCH   8   9
ENDBRANCH   1   8
TORSDOF 8
ENDMDL
MODEL 8
REMARK VINA RESULT:      -4.3      1.941      2.953
REMARK  Name = NuBBE_1907
REMARK  10 active torsions:
REMARK  status: ('A' for Active; 'I' for Inactive)
REMARK    1  A    between atoms: C_1  and  C_2
REMARK    2  A    between atoms: C_1  and  C_8
REMARK    3  A    between atoms: C_2  and  C_3
REMARK    4  A    between atoms: C_3  and  C_4
REMARK    5  A    between atoms: C_4  and  C_5
REMARK    6  A    between atoms: C_5  and  C_6
REMARK    7  A    between atoms: C_6  and  C_7
REMARK    8  A    between atoms: C_8  and  C_9
REMARK    9  A    between atoms: C_9  and  C_10
REMARK   10  A    between atoms: C_10  and  C_12
REMARK                            x       y       z     vdW  Elec       q    Type
REMARK                         _______ _______ _______ _____ _____    ______ ____
ROOT
ATOM      1  C   LIG A   1      -8.902  -2.960 126.392  0.00  0.00    +0.000 C 
ENDROOT
BRANCH   1   2
ATOM      2  C   LIG A   1      -8.874  -3.880 127.628  0.00  0.00    +0.000 C 
BRANCH   2   3
ATOM      3  C   LIG A   1      -8.445  -3.115 128.897  0.00  0.00    -0.000 C 
BRANCH   3   4
ATOM      4  C   LIG A   1      -7.031  -3.484 129.389  0.00  0.00    -0.000 C 
BRANCH   4   5
ATOM      5  C   LIG A   1      -6.034  -2.328 129.185  0.00  0.00    -0.000 C 
BRANCH   5   6
ATOM      6  C   LIG A   1      -5.253  -2.432 127.868  0.00  0.00    -0.003 C 
ATOM      7  C   LIG A   1      -5.635  -1.322 126.892  0.00  0.00    +0.004 C 
ENDBRANCH   5   6
ENDBRANCH   4   5
ENDBRANCH   3   4
ENDBRANCH   2   3
ENDBRANCH   1   2
BRANCH   1   8
ATOM      8  C   LIG A   1      -8.402  -3.632 125.099  0.00  0.00    +0.007 C 
BRANCH   8   9
ATOM      9  C   LIG A   1      -9.334  -3.328 123.919  0.00  0.00    +0.074 C 
BRANCH   9  10
ATOM     10  C   LIG A   1      -8.975  -2.049 123.171  0.00  0.00    +0.130 C 
ATOM     11  O   LIG A   1      -9.805  -1.200 122.871  0.00  0.00    -0.298 OA
ATOM     12  C   LIG A   1      -7.519  -1.882 122.793  0.00  0.00    +0.086 C 
ENDBRANCH   9  10
ENDBRANCH   8   9
ENDBRANCH   1   8
TORSDOF 8
ENDMDL
MODEL 9
REMARK VINA RESULT:      -4.3      1.906      3.094
REMARK  Name = NuBBE_1907
REMARK  10 active torsions:
REMARK  status: ('A' for Active; 'I' for Inactive)
REMARK    1  A    between atoms: C_1  and  C_2
REMARK    2  A    between atoms: C_1  and  C_8
REMARK    3  A    between atoms: C_2  and  C_3
REMARK    4  A    between atoms: C_3  and  C_4
REMARK    5  A    between atoms: C_4  and  C_5
REMARK    6  A    between atoms: C_5  and  C_6
REMARK    7  A    between atoms: C_6  and  C_7
REMARK    8  A    between atoms: C_8  and  C_9
REMARK    9  A    between atoms: C_9  and  C_10
REMARK   10  A    between atoms: C_10  and  C_12
REMARK                            x       y       z     vdW  Elec       q    Type
REMARK                         _______ _______ _______ _____ _____    ______ ____
ROOT
ATOM      1  C   LIG A   1      -8.146  -0.886 126.594  0.00  0.00    +0.000 C 
ENDROOT
BRANCH   1   2
ATOM      2  C   LIG A   1      -8.405  -2.364 126.943  0.00  0.00    +0.000 C 
BRANCH   2   3
ATOM      3  C   LIG A   1      -9.392  -3.018 125.953  0.00  0.00    -0.000 C 
BRANCH   3   4
ATOM      4  C   LIG A   1      -8.713  -3.578 124.688  0.00  0.00    -0.000 C 
BRANCH   4   5
ATOM      5  C   LIG A   1      -9.355  -3.024 123.401  0.00  0.00    -0.000 C 
BRANCH   5   6
ATOM      6  C   LIG A   1      -8.451  -2.031 122.658  0.00  0.00    -0.003 C 
ATOM      7  C   LIG A   1      -7.019  -2.063 123.185  0.00  0.00    +0.004 C 
ENDBRANCH   5   6
ENDBRANCH   4   5
ENDBRANCH   3   4
ENDBRANCH   2   3
ENDBRANCH   1   2
BRANCH   1   8
ATOM      8  C   LIG A   1      -9.310  -0.206 125.847  0.00  0.00    +0.007 C 
BRANCH   8   9
ATOM      9  C   LIG A   1      -8.803   0.925 124.942  0.00  0.00    +0.074 C 
BRANCH   9  10
ATOM     10  C   LIG A   1      -9.822   1.379 123.904  0.00  0.00    +0.130 C 
ATOM     11  O   LIG A   1     -11.025   1.187 124.025  0.00  0.00    -0.298 OA
ATOM     12  C   LIG A   1      -9.266   2.080 122.683  0.00  0.00    +0.086 C 
ENDBRANCH   9  10
ENDBRANCH   8   9
ENDBRANCH   1   8
TORSDOF 8
ENDMDL
