MODEL 1
REMARK VINA RESULT:      -7.3      0.000      0.000
REMARK  Name = NuBBE_2453
REMARK  9 active torsions:
REMARK  status: ('A' for Active; 'I' for Inactive)
REMARK    1  A    between atoms: C_1  and  C_2
REMARK    2  A    between atoms: C_1  and  C_4
REMARK    3  A    between atoms: C_7  and  C_21
REMARK    4  A    between atoms: C_8  and  C_10
REMARK    5  A    between atoms: C_14  and  O_16
REMARK    6  A    between atoms: O_16  and  C_17
REMARK    7  A    between atoms: C_23  and  O_26
REMARK    8  A    between atoms: C_24  and  O_25
REMARK    9  A    between atoms: O_26  and  C_27
REMARK                            x       y       z     vdW  Elec       q    Type
REMARK                         _______ _______ _______ _____ _____    ______ ____
ROOT
ATOM      1  C   LIG A   1      -4.895   7.136 131.127  0.00  0.00    +0.044 A 
ATOM      2  C   LIG A   1      -6.255   6.821 131.267  0.00  0.00    +0.143 A 
ATOM      3  C   LIG A   1      -6.811   6.150 132.347  0.00  0.00    +0.028 A 
ATOM      4  C   LIG A   1      -8.217   6.056 132.093  0.00  0.00    +0.003 A 
ATOM      5  C   LIG A   1      -8.421   6.653 130.855  0.00  0.00    +0.139 A 
ATOM      6  O   LIG A   1      -7.232   7.113 130.363  0.00  0.00    -0.454 OA
ATOM      7  C   LIG A   1      -9.213   5.398 132.979  0.00  0.00    +0.048 C 
ATOM      8  C   LIG A   1      -5.964   5.719 133.388  0.00  0.00    +0.061 A 
ATOM      9  C   LIG A   1      -4.594   5.971 133.291  0.00  0.00    +0.162 A 
ATOM     10  C   LIG A   1      -4.087   6.667 132.179  0.00  0.00    +0.166 A 
ENDROOT
BRANCH   5  11
ATOM     11  C   LIG A   1      -9.581   6.895 129.993  0.00  0.00    +0.025 A 
ATOM     12  C   LIG A   1      -9.491   6.711 128.609  0.00  0.00    +0.061 A 
ATOM     13  C   LIG A   1     -10.605   6.957 127.833  0.00  0.00    +0.171 A 
ATOM     14  C   LIG A   1     -11.802   7.370 128.372  0.00  0.00    +0.208 A 
ATOM     15  C   LIG A   1     -11.946   7.556 129.734  0.00  0.00    +0.166 A 
ATOM     16  C   LIG A   1     -10.819   7.314 130.541  0.00  0.00    +0.061 A 
ATOM     17  O   LIG A   1     -12.744   7.543 127.402  0.00  0.00    -0.449 OA
ATOM     18  C   LIG A   1     -12.020   7.175 126.219  0.00  0.00    +0.467 C 
ATOM     19  O   LIG A   1     -10.653   6.817 126.479  0.00  0.00    -0.452 OA
BRANCH  15  20
ATOM     20  O   LIG A   1     -13.073   7.953 130.399  0.00  0.00    -0.491 OA
ATOM     21  C   LIG A   1     -13.018   7.906 131.822  0.00  0.00    +0.277 C 
ENDBRANCH  15  20
ENDBRANCH   5  11
BRANCH  10  22
ATOM     22  O   LIG A   1      -2.730   6.884 132.119  0.00  0.00    -0.503 OA
ATOM     23  H   LIG A   1      -2.485   6.727 131.186  0.00  0.00    +0.292 HD
ENDBRANCH  10  22
BRANCH   9  24
ATOM     24  O   LIG A   1      -3.653   5.581 134.216  0.00  0.00    -0.491 OA
ATOM     25  C   LIG A   1      -3.653   4.199 134.569  0.00  0.00    +0.277 C 
ENDBRANCH   9  24
BRANCH   1  26
ATOM     26  C   LIG A   1      -4.343   7.877 129.938  0.00  0.00    +0.069 C 
BRANCH  26  27
ATOM     27  C   LIG A   1      -3.837   6.957 128.862  0.00  0.00    -0.030 C 
ATOM     28  C   LIG A   1      -2.540   6.857 128.512  0.00  0.00    +0.004 C 
ENDBRANCH  26  27
ENDBRANCH   1  26
TORSDOF 6
ENDMDL
MODEL 2
REMARK VINA RESULT:      -7.2      9.104     12.101
REMARK  Name = NuBBE_2453
REMARK  9 active torsions:
REMARK  status: ('A' for Active; 'I' for Inactive)
REMARK    1  A    between atoms: C_1  and  C_2
REMARK    2  A    between atoms: C_1  and  C_4
REMARK    3  A    between atoms: C_7  and  C_21
REMARK    4  A    between atoms: C_8  and  C_10
REMARK    5  A    between atoms: C_14  and  O_16
REMARK    6  A    between atoms: O_16  and  C_17
REMARK    7  A    between atoms: C_23  and  O_26
REMARK    8  A    between atoms: C_24  and  O_25
REMARK    9  A    between atoms: O_26  and  C_27
REMARK                            x       y       z     vdW  Elec       q    Type
REMARK                         _______ _______ _______ _____ _____    ______ ____
ROOT
ATOM      1  C   LIG A   1      -7.489  -2.503 124.980  0.00  0.00    +0.044 A 
ATOM      2  C   LIG A   1      -7.328  -2.113 126.319  0.00  0.00    +0.143 A 
ATOM      3  C   LIG A   1      -7.943  -1.018 126.910  0.00  0.00    +0.028 A 
ATOM      4  C   LIG A   1      -7.519  -0.997 128.277  0.00  0.00    +0.003 A 
ATOM      5  C   LIG A   1      -6.647  -2.069 128.422  0.00  0.00    +0.139 A 
ATOM      6  O   LIG A   1      -6.537  -2.738 127.235  0.00  0.00    -0.454 OA
ATOM      7  C   LIG A   1      -7.917   0.015 129.290  0.00  0.00    +0.048 C 
ATOM      8  C   LIG A   1      -8.781  -0.204 126.123  0.00  0.00    +0.061 A 
ATOM      9  C   LIG A   1      -8.956  -0.519 124.773  0.00  0.00    +0.162 A 
ATOM     10  C   LIG A   1      -8.318  -1.648 124.231  0.00  0.00    +0.166 A 
ENDROOT
BRANCH   5  11
ATOM     11  C   LIG A   1      -5.852  -2.625 129.520  0.00  0.00    +0.025 A 
ATOM     12  C   LIG A   1      -6.224  -3.826 130.133  0.00  0.00    +0.061 A 
ATOM     13  C   LIG A   1      -5.451  -4.310 131.168  0.00  0.00    +0.171 A 
ATOM     14  C   LIG A   1      -4.325  -3.658 131.615  0.00  0.00    +0.208 A 
ATOM     15  C   LIG A   1      -3.909  -2.474 131.037  0.00  0.00    +0.166 A 
ATOM     16  C   LIG A   1      -4.687  -1.962 129.982  0.00  0.00    +0.061 A 
ATOM     17  O   LIG A   1      -3.739  -4.337 132.642  0.00  0.00    -0.449 OA
ATOM     18  C   LIG A   1      -4.598  -5.480 132.768  0.00  0.00    +0.467 C 
ATOM     19  O   LIG A   1      -5.701  -5.464 131.847  0.00  0.00    -0.452 OA
BRANCH  15  20
ATOM     20  O   LIG A   1      -2.812  -1.731 131.375  0.00  0.00    -0.491 OA
ATOM     21  C   LIG A   1      -2.897  -0.996 132.593  0.00  0.00    +0.277 C 
ENDBRANCH  15  20
ENDBRANCH   5  11
BRANCH  10  22
ATOM     22  O   LIG A   1      -8.507  -1.916 122.894  0.00  0.00    -0.503 OA
ATOM     23  H   LIG A   1      -8.285  -1.084 122.431  0.00  0.00    +0.292 HD
ENDBRANCH  10  22
BRANCH   9  24
ATOM     24  O   LIG A   1      -9.718   0.205 123.887  0.00  0.00    -0.491 OA
ATOM     25  C   LIG A   1      -9.731   1.618 124.075  0.00  0.00    +0.277 C 
ENDBRANCH   9  24
BRANCH   1  26
ATOM     26  C   LIG A   1      -6.807  -3.708 124.391  0.00  0.00    +0.069 C 
BRANCH  26  27
ATOM     27  C   LIG A   1      -5.406  -3.418 123.931  0.00  0.00    -0.030 C 
ATOM     28  C   LIG A   1      -4.485  -4.370 123.685  0.00  0.00    +0.004 C 
ENDBRANCH  26  27
ENDBRANCH   1  26
TORSDOF 6
ENDMDL
MODEL 3
REMARK VINA RESULT:      -7.2      9.017     11.904
REMARK  Name = NuBBE_2453
REMARK  9 active torsions:
REMARK  status: ('A' for Active; 'I' for Inactive)
REMARK    1  A    between atoms: C_1  and  C_2
REMARK    2  A    between atoms: C_1  and  C_4
REMARK    3  A    between atoms: C_7  and  C_21
REMARK    4  A    between atoms: C_8  and  C_10
REMARK    5  A    between atoms: C_14  and  O_16
REMARK    6  A    between atoms: O_16  and  C_17
REMARK    7  A    between atoms: C_23  and  O_26
REMARK    8  A    between atoms: C_24  and  O_25
REMARK    9  A    between atoms: O_26  and  C_27
REMARK                            x       y       z     vdW  Elec       q    Type
REMARK                         _______ _______ _______ _____ _____    ______ ____
ROOT
ATOM      1  C   LIG A   1      -7.927  -2.277 124.774  0.00  0.00    +0.044 A 
ATOM      2  C   LIG A   1      -7.760  -1.811 126.088  0.00  0.00    +0.143 A 
ATOM      3  C   LIG A   1      -8.156  -0.563 126.547  0.00  0.00    +0.028 A 
ATOM      4  C   LIG A   1      -7.814  -0.510 127.937  0.00  0.00    +0.003 A 
ATOM      5  C   LIG A   1      -7.203  -1.724 128.226  0.00  0.00    +0.139 A 
ATOM      6  O   LIG A   1      -7.175  -2.504 127.105  0.00  0.00    -0.454 OA
ATOM      7  C   LIG A   1      -8.040   0.651 128.838  0.00  0.00    +0.048 C 
ATOM      8  C   LIG A   1      -8.753   0.336 125.642  0.00  0.00    +0.061 A 
ATOM      9  C   LIG A   1      -8.916  -0.055 124.311  0.00  0.00    +0.162 A 
ATOM     10  C   LIG A   1      -8.508  -1.337 123.904  0.00  0.00    +0.166 A 
ENDROOT
BRANCH   5  11
ATOM     11  C   LIG A   1      -6.610  -2.334 129.418  0.00  0.00    +0.025 A 
ATOM     12  C   LIG A   1      -7.376  -2.540 130.571  0.00  0.00    +0.061 A 
ATOM     13  C   LIG A   1      -6.775  -3.110 131.674  0.00  0.00    +0.171 A 
ATOM     14  C   LIG A   1      -5.453  -3.490 131.679  0.00  0.00    +0.208 A 
ATOM     15  C   LIG A   1      -4.656  -3.319 130.563  0.00  0.00    +0.166 A 
ATOM     16  C   LIG A   1      -5.250  -2.734 129.430  0.00  0.00    +0.061 A 
ATOM     17  O   LIG A   1      -5.101  -4.027 132.881  0.00  0.00    -0.449 OA
ATOM     18  C   LIG A   1      -6.338  -3.963 133.607  0.00  0.00    +0.467 C 
ATOM     19  O   LIG A   1      -7.406  -3.366 132.854  0.00  0.00    -0.452 OA
BRANCH  15  20
ATOM     20  O   LIG A   1      -3.338  -3.657 130.430  0.00  0.00    -0.491 OA
ATOM     21  C   LIG A   1      -2.815  -3.657 129.105  0.00  0.00    +0.277 C 
ENDBRANCH  15  20
ENDBRANCH   5  11
BRANCH  10  22
ATOM     22  O   LIG A   1      -8.676  -1.677 122.581  0.00  0.00    -0.503 OA
ATOM     23  H   LIG A   1      -7.775  -1.834 122.238  0.00  0.00    +0.292 HD
ENDBRANCH  10  22
BRANCH   9  24
ATOM     24  O   LIG A   1      -9.454   0.731 123.318  0.00  0.00    -0.491 OA
ATOM     25  C   LIG A   1      -9.081   2.107 123.334  0.00  0.00    +0.277 C 
ENDBRANCH   9  24
BRANCH   1  26
ATOM     26  C   LIG A   1      -7.490  -3.647 124.329  0.00  0.00    +0.069 C 
BRANCH  26  27
ATOM     27  C   LIG A   1      -6.003  -3.747 124.129  0.00  0.00    -0.030 C 
ATOM     28  C   LIG A   1      -5.286  -2.878 123.390  0.00  0.00    +0.004 C 
ENDBRANCH  26  27
ENDBRANCH   1  26
TORSDOF 6
ENDMDL
MODEL 4
REMARK VINA RESULT:      -7.0      9.110     11.756
REMARK  Name = NuBBE_2453
REMARK  9 active torsions:
REMARK  status: ('A' for Active; 'I' for Inactive)
REMARK    1  A    between atoms: C_1  and  C_2
REMARK    2  A    between atoms: C_1  and  C_4
REMARK    3  A    between atoms: C_7  and  C_21
REMARK    4  A    between atoms: C_8  and  C_10
REMARK    5  A    between atoms: C_14  and  O_16
REMARK    6  A    between atoms: O_16  and  C_17
REMARK    7  A    between atoms: C_23  and  O_26
REMARK    8  A    between atoms: C_24  and  O_25
REMARK    9  A    between atoms: O_26  and  C_27
REMARK                            x       y       z     vdW  Elec       q    Type
REMARK                         _______ _______ _______ _____ _____    ______ ____
ROOT
ATOM      1  C   LIG A   1      -7.146  -2.283 124.725  0.00  0.00    +0.044 A 
ATOM      2  C   LIG A   1      -7.159  -1.838 126.056  0.00  0.00    +0.143 A 
ATOM      3  C   LIG A   1      -7.667  -0.620 126.484  0.00  0.00    +0.028 A 
ATOM      4  C   LIG A   1      -7.496  -0.580 127.905  0.00  0.00    +0.003 A 
ATOM      5  C   LIG A   1      -6.866  -1.770 128.247  0.00  0.00    +0.139 A 
ATOM      6  O   LIG A   1      -6.666  -2.525 127.125  0.00  0.00    -0.454 OA
ATOM      7  C   LIG A   1      -7.883   0.550 128.791  0.00  0.00    +0.048 C 
ATOM      8  C   LIG A   1      -8.195   0.270 125.527  0.00  0.00    +0.061 A 
ATOM      9  C   LIG A   1      -8.180  -0.100 124.180  0.00  0.00    +0.162 A 
ATOM     10  C   LIG A   1      -7.664  -1.353 123.805  0.00  0.00    +0.166 A 
ENDROOT
BRANCH   5  11
ATOM     11  C   LIG A   1      -6.389  -2.377 129.492  0.00  0.00    +0.025 A 
ATOM     12  C   LIG A   1      -5.041  -2.718 129.649  0.00  0.00    +0.061 A 
ATOM     13  C   LIG A   1      -4.637  -3.294 130.835  0.00  0.00    +0.171 A 
ATOM     14  C   LIG A   1      -5.508  -3.540 131.870  0.00  0.00    +0.208 A 
ATOM     15  C   LIG A   1      -6.847  -3.212 131.770  0.00  0.00    +0.166 A 
ATOM     16  C   LIG A   1      -7.280  -2.627 130.566  0.00  0.00    +0.061 A 
ATOM     17  O   LIG A   1      -4.866  -4.111 132.928  0.00  0.00    -0.449 OA
ATOM     18  C   LIG A   1      -3.512  -4.173 132.454  0.00  0.00    +0.467 C 
ATOM     19  O   LIG A   1      -3.358  -3.671 131.116  0.00  0.00    -0.452 OA
BRANCH  15  20
ATOM     20  O   LIG A   1      -7.815  -3.393 132.720  0.00  0.00    -0.491 OA
ATOM     21  C   LIG A   1      -7.863  -2.425 133.764  0.00  0.00    +0.277 C 
ENDBRANCH  15  20
ENDBRANCH   5  11
BRANCH  10  22
ATOM     22  O   LIG A   1      -7.657  -1.672 122.467  0.00  0.00    -0.503 OA
ATOM     23  H   LIG A   1      -8.587  -1.595 122.178  0.00  0.00    +0.292 HD
ENDBRANCH  10  22
BRANCH   9  24
ATOM     24  O   LIG A   1      -8.633   0.681 123.143  0.00  0.00    -0.491 OA
ATOM     25  C   LIG A   1     -10.047   0.834 123.041  0.00  0.00    +0.277 C 
ENDBRANCH   9  24
BRANCH   1  26
ATOM     26  C   LIG A   1      -6.592  -3.621 124.314  0.00  0.00    +0.069 C 
BRANCH  26  27
ATOM     27  C   LIG A   1      -5.113  -3.583 124.050  0.00  0.00    -0.030 C 
ATOM     28  C   LIG A   1      -4.391  -4.657 123.676  0.00  0.00    +0.004 C 
ENDBRANCH  26  27
ENDBRANCH   1  26
TORSDOF 6
ENDMDL
MODEL 5
REMARK VINA RESULT:      -7.0      4.237      6.466
REMARK  Name = NuBBE_2453
REMARK  9 active torsions:
REMARK  status: ('A' for Active; 'I' for Inactive)
REMARK    1  A    between atoms: C_1  and  C_2
REMARK    2  A    between atoms: C_1  and  C_4
REMARK    3  A    between atoms: C_7  and  C_21
REMARK    4  A    between atoms: C_8  and  C_10
REMARK    5  A    between atoms: C_14  and  O_16
REMARK    6  A    between atoms: O_16  and  C_17
REMARK    7  A    between atoms: C_23  and  O_26
REMARK    8  A    between atoms: C_24  and  O_25
REMARK    9  A    between atoms: O_26  and  C_27
REMARK                            x       y       z     vdW  Elec       q    Type
REMARK                         _______ _______ _______ _____ _____    ______ ____
ROOT
ATOM      1  C   LIG A   1     -10.046   5.881 130.118  0.00  0.00    +0.044 A 
ATOM      2  C   LIG A   1      -8.987   5.203 129.494  0.00  0.00    +0.143 A 
ATOM      3  C   LIG A   1      -7.867   4.704 130.144  0.00  0.00    +0.028 A 
ATOM      4  C   LIG A   1      -7.057   4.078 129.144  0.00  0.00    +0.003 A 
ATOM      5  C   LIG A   1      -7.726   4.263 127.940  0.00  0.00    +0.139 A 
ATOM      6  O   LIG A   1      -8.892   4.942 128.160  0.00  0.00    -0.454 OA
ATOM      7  C   LIG A   1      -5.746   3.419 129.381  0.00  0.00    +0.048 C 
ATOM      8  C   LIG A   1      -7.745   4.901 131.534  0.00  0.00    +0.061 A 
ATOM      9  C   LIG A   1      -8.749   5.599 132.208  0.00  0.00    +0.162 A 
ATOM     10  C   LIG A   1      -9.869   6.071 131.501  0.00  0.00    +0.166 A 
ENDROOT
BRANCH   5  11
ATOM     11  C   LIG A   1      -7.476   3.903 126.543  0.00  0.00    +0.025 A 
ATOM     12  C   LIG A   1      -6.586   4.649 125.762  0.00  0.00    +0.061 A 
ATOM     13  C   LIG A   1      -6.386   4.280 124.448  0.00  0.00    +0.171 A 
ATOM     14  C   LIG A   1      -7.023   3.202 123.880  0.00  0.00    +0.208 A 
ATOM     15  C   LIG A   1      -7.904   2.425 124.610  0.00  0.00    +0.166 A 
ATOM     16  C   LIG A   1      -8.125   2.789 125.951  0.00  0.00    +0.061 A 
ATOM     17  O   LIG A   1      -6.657   3.045 122.576  0.00  0.00    -0.449 OA
ATOM     18  C   LIG A   1      -5.716   4.115 122.404  0.00  0.00    +0.467 C 
ATOM     19  O   LIG A   1      -5.549   4.918 123.584  0.00  0.00    -0.452 OA
BRANCH  15  20
ATOM     20  O   LIG A   1      -8.594   1.329 124.175  0.00  0.00    -0.491 OA
ATOM     21  C   LIG A   1      -9.765   1.584 123.404  0.00  0.00    +0.277 C 
ENDBRANCH  15  20
ENDBRANCH   5  11
BRANCH  10  22
ATOM     22  O   LIG A   1     -10.829   6.764 132.202  0.00  0.00    -0.503 OA
ATOM     23  H   LIG A   1     -11.091   6.173 132.934  0.00  0.00    +0.292 HD
ENDBRANCH  10  22
BRANCH   9  24
ATOM     24  O   LIG A   1      -8.742   5.888 133.553  0.00  0.00    -0.491 OA
ATOM     25  C   LIG A   1      -7.531   5.608 134.251  0.00  0.00    +0.277 C 
ENDBRANCH   9  24
BRANCH   1  26
ATOM     26  C   LIG A   1     -11.247   6.393 129.368  0.00  0.00    +0.069 C 
BRANCH  26  27
ATOM     27  C   LIG A   1     -11.151   7.858 129.045  0.00  0.00    -0.030 C 
ATOM     28  C   LIG A   1     -10.615   8.341 127.907  0.00  0.00    +0.004 C 
ENDBRANCH  26  27
ENDBRANCH   1  26
TORSDOF 6
ENDMDL
MODEL 6
REMARK VINA RESULT:      -7.0      9.012     11.717
REMARK  Name = NuBBE_2453
REMARK  9 active torsions:
REMARK  status: ('A' for Active; 'I' for Inactive)
REMARK    1  A    between atoms: C_1  and  C_2
REMARK    2  A    between atoms: C_1  and  C_4
REMARK    3  A    between atoms: C_7  and  C_21
REMARK    4  A    between atoms: C_8  and  C_10
REMARK    5  A    between atoms: C_14  and  O_16
REMARK    6  A    between atoms: O_16  and  C_17
REMARK    7  A    between atoms: C_23  and  O_26
REMARK    8  A    between atoms: C_24  and  O_25
REMARK    9  A    between atoms: O_26  and  C_27
REMARK                            x       y       z     vdW  Elec       q    Type
REMARK                         _______ _______ _______ _____ _____    ______ ____
ROOT
ATOM      1  C   LIG A   1      -6.537  -1.201 125.790  0.00  0.00    +0.044 A 
ATOM      2  C   LIG A   1      -6.968  -1.942 126.902  0.00  0.00    +0.143 A 
ATOM      3  C   LIG A   1      -8.130  -2.698 126.954  0.00  0.00    +0.028 A 
ATOM      4  C   LIG A   1      -8.174  -3.295 128.255  0.00  0.00    +0.003 A 
ATOM      5  C   LIG A   1      -7.045  -2.837 128.922  0.00  0.00    +0.139 A 
ATOM      6  O   LIG A   1      -6.321  -2.021 128.099  0.00  0.00    -0.454 OA
ATOM      7  C   LIG A   1      -9.255  -4.179 128.764  0.00  0.00    +0.048 C 
ATOM      8  C   LIG A   1      -8.974  -2.724 125.826  0.00  0.00    +0.061 A 
ATOM      9  C   LIG A   1      -8.619  -1.980 124.699  0.00  0.00    +0.162 A 
ATOM     10  C   LIG A   1      -7.422  -1.241 124.698  0.00  0.00    +0.166 A 
ENDROOT
BRANCH   5  11
ATOM     11  C   LIG A   1      -6.475  -3.028 130.258  0.00  0.00    +0.025 A 
ATOM     12  C   LIG A   1      -5.165  -3.496 130.414  0.00  0.00    +0.061 A 
ATOM     13  C   LIG A   1      -4.670  -3.669 131.690  0.00  0.00    +0.171 A 
ATOM     14  C   LIG A   1      -5.415  -3.393 132.813  0.00  0.00    +0.208 A 
ATOM     15  C   LIG A   1      -6.710  -2.919 132.714  0.00  0.00    +0.166 A 
ATOM     16  C   LIG A   1      -7.233  -2.740 131.421  0.00  0.00    +0.061 A 
ATOM     17  O   LIG A   1      -4.703  -3.643 133.948  0.00  0.00    -0.449 OA
ATOM     18  C   LIG A   1      -3.442  -4.078 133.417  0.00  0.00    +0.467 C 
ATOM     19  O   LIG A   1      -3.416  -4.114 131.981  0.00  0.00    -0.452 OA
BRANCH  15  20
ATOM     20  O   LIG A   1      -7.553  -2.598 133.742  0.00  0.00    -0.491 OA
ATOM     21  C   LIG A   1      -8.280  -3.677 134.323  0.00  0.00    +0.277 C 
ENDBRANCH  15  20
ENDBRANCH   5  11
BRANCH  10  22
ATOM     22  O   LIG A   1      -7.116  -0.513 123.571  0.00  0.00    -0.503 OA
ATOM     23  H   LIG A   1      -7.319   0.415 123.801  0.00  0.00    +0.292 HD
ENDBRANCH  10  22
BRANCH   9  24
ATOM     24  O   LIG A   1      -9.363  -1.891 123.545  0.00  0.00    -0.491 OA
ATOM     25  C   LIG A   1      -9.727  -3.127 122.934  0.00  0.00    +0.277 C 
ENDBRANCH   9  24
BRANCH   1  26
ATOM     26  C   LIG A   1      -5.260  -0.405 125.782  0.00  0.00    +0.069 C 
BRANCH  26  27
ATOM     27  C   LIG A   1      -5.417   0.956 126.400  0.00  0.00    -0.030 C 
ATOM     28  C   LIG A   1      -5.615   2.084 125.689  0.00  0.00    +0.004 C 
ENDBRANCH  26  27
ENDBRANCH   1  26
TORSDOF 6
ENDMDL
MODEL 7
REMARK VINA RESULT:      -6.9      2.009      2.775
REMARK  Name = NuBBE_2453
REMARK  9 active torsions:
REMARK  status: ('A' for Active; 'I' for Inactive)
REMARK    1  A    between atoms: C_1  and  C_2
REMARK    2  A    between atoms: C_1  and  C_4
REMARK    3  A    between atoms: C_7  and  C_21
REMARK    4  A    between atoms: C_8  and  C_10
REMARK    5  A    between atoms: C_14  and  O_16
REMARK    6  A    between atoms: O_16  and  C_17
REMARK    7  A    between atoms: C_23  and  O_26
REMARK    8  A    between atoms: C_24  and  O_25
REMARK    9  A    between atoms: O_26  and  C_27
REMARK                            x       y       z     vdW  Elec       q    Type
REMARK                         _______ _______ _______ _____ _____    ______ ____
ROOT
ATOM      1  C   LIG A   1      -3.688   7.079 131.617  0.00  0.00    +0.044 A 
ATOM      2  C   LIG A   1      -4.928   6.597 132.066  0.00  0.00    +0.143 A 
ATOM      3  C   LIG A   1      -5.186   6.134 133.348  0.00  0.00    +0.028 A 
ATOM      4  C   LIG A   1      -6.568   5.759 133.378  0.00  0.00    +0.003 A 
ATOM      5  C   LIG A   1      -7.054   5.992 132.097  0.00  0.00    +0.139 A 
ATOM      6  O   LIG A   1      -6.058   6.499 131.311  0.00  0.00    -0.454 OA
ATOM      7  C   LIG A   1      -7.284   5.190 134.550  0.00  0.00    +0.048 C 
ATOM      8  C   LIG A   1      -4.136   6.113 134.287  0.00  0.00    +0.061 A 
ATOM      9  C   LIG A   1      -2.869   6.547 133.893  0.00  0.00    +0.162 A 
ATOM     10  C   LIG A   1      -2.667   7.018 132.583  0.00  0.00    +0.166 A 
ENDROOT
BRANCH   5  11
ATOM     11  C   LIG A   1      -8.346   5.827 131.427  0.00  0.00    +0.025 A 
ATOM     12  C   LIG A   1      -8.992   6.922 130.843  0.00  0.00    +0.061 A 
ATOM     13  C   LIG A   1     -10.211   6.724 130.229  0.00  0.00    +0.171 A 
ATOM     14  C   LIG A   1     -10.811   5.488 130.164  0.00  0.00    +0.208 A 
ATOM     15  C   LIG A   1     -10.210   4.372 130.715  0.00  0.00    +0.166 A 
ATOM     16  C   LIG A   1      -8.969   4.555 131.350  0.00  0.00    +0.061 A 
ATOM     17  O   LIG A   1     -12.003   5.555 129.507  0.00  0.00    -0.449 OA
ATOM     18  C   LIG A   1     -12.069   6.945 129.154  0.00  0.00    +0.467 C 
ATOM     19  O   LIG A   1     -10.941   7.702 129.623  0.00  0.00    -0.452 OA
BRANCH  15  20
ATOM     20  O   LIG A   1     -10.690   3.091 130.715  0.00  0.00    -0.491 OA
ATOM     21  C   LIG A   1     -10.019   2.165 131.564  0.00  0.00    +0.277 C 
ENDBRANCH  15  20
ENDBRANCH   5  11
BRANCH  10  22
ATOM     22  O   LIG A   1      -1.400   7.425 132.233  0.00  0.00    -0.503 OA
ATOM     23  H   LIG A   1      -1.472   8.387 132.076  0.00  0.00    +0.292 HD
ENDBRANCH  10  22
BRANCH   9  24
ATOM     24  O   LIG A   1      -1.751   6.550 134.695  0.00  0.00    -0.491 OA
ATOM     25  C   LIG A   1      -1.877   7.221 135.947  0.00  0.00    +0.277 C 
ENDBRANCH   9  24
BRANCH   1  26
ATOM     26  C   LIG A   1      -3.462   7.582 130.217  0.00  0.00    +0.069 C 
BRANCH  26  27
ATOM     27  C   LIG A   1      -2.920   6.522 129.298  0.00  0.00    -0.030 C 
ATOM     28  C   LIG A   1      -2.303   6.787 128.130  0.00  0.00    +0.004 C 
ENDBRANCH  26  27
ENDBRANCH   1  26
TORSDOF 6
ENDMDL
MODEL 8
REMARK VINA RESULT:      -6.9      7.005      8.180
REMARK  Name = NuBBE_2453
REMARK  9 active torsions:
REMARK  status: ('A' for Active; 'I' for Inactive)
REMARK    1  A    between atoms: C_1  and  C_2
REMARK    2  A    between atoms: C_1  and  C_4
REMARK    3  A    between atoms: C_7  and  C_21
REMARK    4  A    between atoms: C_8  and  C_10
REMARK    5  A    between atoms: C_14  and  O_16
REMARK    6  A    between atoms: O_16  and  C_17
REMARK    7  A    between atoms: C_23  and  O_26
REMARK    8  A    between atoms: C_24  and  O_25
REMARK    9  A    between atoms: O_26  and  C_27
REMARK                            x       y       z     vdW  Elec       q    Type
REMARK                         _______ _______ _______ _____ _____    ______ ____
ROOT
ATOM      1  C   LIG A   1      -7.472  -2.042 130.149  0.00  0.00    +0.044 A 
ATOM      2  C   LIG A   1      -7.758  -0.775 129.615  0.00  0.00    +0.143 A 
ATOM      3  C   LIG A   1      -7.883   0.392 130.355  0.00  0.00    +0.028 A 
ATOM      4  C   LIG A   1      -8.159   1.442 129.421  0.00  0.00    +0.003 A 
ATOM      5  C   LIG A   1      -8.212   0.837 128.171  0.00  0.00    +0.139 A 
ATOM      6  O   LIG A   1      -7.969  -0.502 128.297  0.00  0.00    -0.454 OA
ATOM      7  C   LIG A   1      -8.386   2.870 129.769  0.00  0.00    +0.048 C 
ATOM      8  C   LIG A   1      -7.741   0.327 131.755  0.00  0.00    +0.061 A 
ATOM      9  C   LIG A   1      -7.490  -0.911 132.352  0.00  0.00    +0.162 A 
ATOM     10  C   LIG A   1      -7.359  -2.059 131.551  0.00  0.00    +0.166 A 
ENDROOT
BRANCH   5  11
ATOM     11  C   LIG A   1      -8.457   1.295 126.802  0.00  0.00    +0.025 A 
ATOM     12  C   LIG A   1      -9.241   0.537 125.926  0.00  0.00    +0.061 A 
ATOM     13  C   LIG A   1      -9.440   1.001 124.642  0.00  0.00    +0.171 A 
ATOM     14  C   LIG A   1      -8.901   2.184 124.194  0.00  0.00    +0.208 A 
ATOM     15  C   LIG A   1      -8.127   2.976 125.023  0.00  0.00    +0.166 A 
ATOM     16  C   LIG A   1      -7.909   2.517 126.334  0.00  0.00    +0.061 A 
ATOM     17  O   LIG A   1      -9.243   2.420 122.896  0.00  0.00    -0.449 OA
ATOM     18  C   LIG A   1     -10.063   1.281 122.595  0.00  0.00    +0.467 C 
ATOM     19  O   LIG A   1     -10.181   0.363 123.694  0.00  0.00    -0.452 OA
BRANCH  15  20
ATOM     20  O   LIG A   1      -7.540   4.171 124.711  0.00  0.00    -0.491 OA
ATOM     21  C   LIG A   1      -6.164   4.124 124.346  0.00  0.00    +0.277 C 
ENDBRANCH  15  20
ENDBRANCH   5  11
BRANCH  10  22
ATOM     22  O   LIG A   1      -7.124  -3.260 132.181  0.00  0.00    -0.503 OA
ATOM     23  H   LIG A   1      -7.564  -3.933 131.626  0.00  0.00    +0.292 HD
ENDBRANCH  10  22
BRANCH   9  24
ATOM     24  O   LIG A   1      -7.359  -1.122 133.705  0.00  0.00    -0.491 OA
ATOM     25  C   LIG A   1      -6.127  -0.708 134.290  0.00  0.00    +0.277 C 
ENDBRANCH   9  24
BRANCH   1  26
ATOM     26  C   LIG A   1      -7.335  -3.277 129.300  0.00  0.00    +0.069 C 
BRANCH  26  27
ATOM     27  C   LIG A   1      -8.640  -3.719 128.699  0.00  0.00    -0.030 C 
ATOM     28  C   LIG A   1      -8.890  -3.732 127.376  0.00  0.00    +0.004 C 
ENDBRANCH  26  27
ENDBRANCH   1  26
TORSDOF 6
ENDMDL
MODEL 9
REMARK VINA RESULT:      -6.9      7.618     10.047
REMARK  Name = NuBBE_2453
REMARK  9 active torsions:
REMARK  status: ('A' for Active; 'I' for Inactive)
REMARK    1  A    between atoms: C_1  and  C_2
REMARK    2  A    between atoms: C_1  and  C_4
REMARK    3  A    between atoms: C_7  and  C_21
REMARK    4  A    between atoms: C_8  and  C_10
REMARK    5  A    between atoms: C_14  and  O_16
REMARK    6  A    between atoms: O_16  and  C_17
REMARK    7  A    between atoms: C_23  and  O_26
REMARK    8  A    between atoms: C_24  and  O_25
REMARK    9  A    between atoms: O_26  and  C_27
REMARK                            x       y       z     vdW  Elec       q    Type
REMARK                         _______ _______ _______ _____ _____    ______ ____
ROOT
ATOM      1  C   LIG A   1      -5.728   3.175 125.091  0.00  0.00    +0.044 A 
ATOM      2  C   LIG A   1      -6.141   1.860 125.357  0.00  0.00    +0.143 A 
ATOM      3  C   LIG A   1      -6.829   1.046 124.469  0.00  0.00    +0.028 A 
ATOM      4  C   LIG A   1      -7.035  -0.205 125.134  0.00  0.00    +0.003 A 
ATOM      5  C   LIG A   1      -6.480  -0.060 126.400  0.00  0.00    +0.139 A 
ATOM      6  O   LIG A   1      -5.942   1.190 126.527  0.00  0.00    -0.454 OA
ATOM      7  C   LIG A   1      -7.747  -1.380 124.565  0.00  0.00    +0.048 C 
ATOM      8  C   LIG A   1      -7.173   1.560 123.203  0.00  0.00    +0.061 A 
ATOM      9  C   LIG A   1      -6.821   2.875 122.890  0.00  0.00    +0.162 A 
ATOM     10  C   LIG A   1      -6.112   3.650 123.824  0.00  0.00    +0.166 A 
ENDROOT
BRANCH   5  11
ATOM     11  C   LIG A   1      -6.345  -0.913 127.583  0.00  0.00    +0.025 A 
ATOM     12  C   LIG A   1      -5.299  -1.838 127.679  0.00  0.00    +0.061 A 
ATOM     13  C   LIG A   1      -5.212  -2.627 128.807  0.00  0.00    +0.171 A 
ATOM     14  C   LIG A   1      -6.113  -2.534 129.843  0.00  0.00    +0.208 A 
ATOM     15  C   LIG A   1      -7.158  -1.630 129.802  0.00  0.00    +0.166 A 
ATOM     16  C   LIG A   1      -7.265  -0.819 128.657  0.00  0.00    +0.061 A 
ATOM     17  O   LIG A   1      -5.811  -3.416 130.837  0.00  0.00    -0.449 OA
ATOM     18  C   LIG A   1      -4.626  -4.044 130.325  0.00  0.00    +0.467 C 
ATOM     19  O   LIG A   1      -4.246  -3.562 129.026  0.00  0.00    -0.452 OA
BRANCH  15  20
ATOM     20  O   LIG A   1      -8.113  -1.429 130.759  0.00  0.00    -0.491 OA
ATOM     21  C   LIG A   1      -8.446  -0.073 131.046  0.00  0.00    +0.277 C 
ENDBRANCH  15  20
ENDBRANCH   5  11
BRANCH  10  22
ATOM     22  O   LIG A   1      -5.795   4.944 123.479  0.00  0.00    -0.503 OA
ATOM     23  H   LIG A   1      -4.819   4.983 123.492  0.00  0.00    +0.292 HD
ENDBRANCH  10  22
BRANCH   9  24
ATOM     24  O   LIG A   1      -7.120   3.511 121.707  0.00  0.00    -0.491 OA
ATOM     25  C   LIG A   1      -8.491   3.500 121.316  0.00  0.00    +0.277 C 
ENDBRANCH   9  24
BRANCH   1  26
ATOM     26  C   LIG A   1      -4.972   4.014 126.087  0.00  0.00    +0.069 C 
BRANCH  26  27
ATOM     27  C   LIG A   1      -3.489   3.768 126.048  0.00  0.00    -0.030 C 
ATOM     28  C   LIG A   1      -2.823   3.056 126.977  0.00  0.00    +0.004 C 
ENDBRANCH  26  27
ENDBRANCH   1  26
TORSDOF 6
ENDMDL
