MODEL 1
REMARK VINA RESULT:      -8.8      0.000      0.000
REMARK  Name = NuBBE_1181
REMARK  7 active torsions:
REMARK  status: ('A' for Active; 'I' for Inactive)
REMARK    1  A    between atoms: C_1  and  C_2
REMARK    2  A    between atoms: C_7  and  C_9
REMARK    3  A    between atoms: C_13  and  O_14
REMARK    4  A    between atoms: C_20  and  C_33
REMARK    5  A    between atoms: C_22  and  C_23
REMARK    6  A    between atoms: C_22  and  C_28
REMARK    7  A    between atoms: C_29  and  O_30
REMARK                            x       y       z     vdW  Elec       q    Type
REMARK                         _______ _______ _______ _____ _____    ______ ____
ROOT
ATOM      1  C   LIG A   1      -8.266   5.796 129.131  0.00  0.00    +0.014 C 
ATOM      2  C   LIG A   1      -9.323   5.507 130.207  0.00  0.00    +0.007 C 
ATOM      3  C   LIG A   1      -9.248   4.057 130.665  0.00  0.00    +0.112 C 
ATOM      4  C   LIG A   1     -10.649   3.528 130.746  0.00  0.00    +0.153 C 
ATOM      5  C   LIG A   1     -11.612   4.602 130.357  0.00  0.00    +0.043 C 
ATOM      6  C   LIG A   1     -10.765   5.602 129.531  0.00  0.00    +0.032 C 
ATOM      7  O   LIG A   1      -9.745   3.084 129.734  0.00  0.00    -0.363 OA
ATOM      8  C   LIG A   1      -8.233   3.572 131.669  0.00  0.00    +0.102 C 
ATOM      9  C   LIG A   1      -7.563   4.688 132.478  0.00  0.00    +0.016 C 
ATOM     10  C   LIG A   1      -6.064   5.116 132.112  0.00  0.00    +0.016 C 
ATOM     11  C   LIG A   1      -5.367   4.211 131.050  0.00  0.00    -0.002 C 
ATOM     12  C   LIG A   1      -4.032   4.753 130.416  0.00  0.00    +0.053 C 
ATOM     13  C   LIG A   1      -2.858   4.747 131.415  0.00  0.00    +0.024 C 
ATOM     14  C   LIG A   1      -4.265   6.211 129.960  0.00  0.00    +0.166 C 
ATOM     15  C   LIG A   1      -5.164   7.076 130.752  0.00  0.00    +0.044 C 
ATOM     16  C   LIG A   1      -5.937   6.579 131.723  0.00  0.00    -0.012 C 
ATOM     17  O   LIG A   1      -3.668   6.740 129.021  0.00  0.00    -0.292 OA
ATOM     18  C   LIG A   1      -3.524   4.004 129.154  0.00  0.00    +0.024 C 
ATOM     19  C   LIG A   1      -5.913   3.030 130.682  0.00  0.00    +0.161 C 
ATOM     20  C   LIG A   1      -7.249   2.576 131.139  0.00  0.00    +0.203 C 
ATOM     21  O   LIG A   1      -7.523   1.383 130.981  0.00  0.00    -0.288 OA
ATOM     22  C   LIG A   1      -5.291   5.004 133.463  0.00  0.00    +0.020 C 
ATOM     23  C   LIG A   1      -8.595   5.807 132.707  0.00  0.00    +0.006 C 
ATOM     24  C   LIG A   1      -9.174   6.444 131.435  0.00  0.00    +0.010 C 
ENDROOT
BRANCH   6  25
ATOM     25  C   LIG A   1     -11.438   6.932 129.307  0.00  0.00    +0.008 C 
ATOM     26  C   LIG A   1     -11.996   7.769 130.180  0.00  0.00    +0.097 C 
ATOM     27  C   LIG A   1     -12.491   8.920 129.426  0.00  0.00    +0.335 C 
ATOM     28  O   LIG A   1     -12.177   8.770 128.116  0.00  0.00    -0.428 OA
ATOM     29  C   LIG A   1     -11.529   7.521 127.945  0.00  0.00    +0.337 C 
ATOM     30  O   LIG A   1     -13.087   9.859 129.917  0.00  0.00    -0.245 OA
BRANCH  29  31
ATOM     31  O   LIG A   1     -10.249   7.698 127.380  0.00  0.00    -0.354 OA
ATOM     32  H   LIG A   1     -10.116   8.652 127.265  0.00  0.00    +0.214 HD
ENDBRANCH  29  31
ENDBRANCH   6  25
BRANCH  19  33
ATOM     33  O   LIG A   1      -5.267   2.120 129.871  0.00  0.00    -0.503 OA
ATOM     34  H   LIG A   1      -5.959   1.767 129.269  0.00  0.00    +0.292 HD
ENDBRANCH  19  33
TORSDOF 3
ENDMDL
MODEL 2
REMARK VINA RESULT:      -8.8      1.517      2.019
REMARK  Name = NuBBE_1181
REMARK  7 active torsions:
REMARK  status: ('A' for Active; 'I' for Inactive)
REMARK    1  A    between atoms: C_1  and  C_2
REMARK    2  A    between atoms: C_7  and  C_9
REMARK    3  A    between atoms: C_13  and  O_14
REMARK    4  A    between atoms: C_20  and  C_33
REMARK    5  A    between atoms: C_22  and  C_23
REMARK    6  A    between atoms: C_22  and  C_28
REMARK    7  A    between atoms: C_29  and  O_30
REMARK                            x       y       z     vdW  Elec       q    Type
REMARK                         _______ _______ _______ _____ _____    ______ ____
ROOT
ATOM      1  C   LIG A   1      -7.678   5.217 129.836  0.00  0.00    +0.014 C 
ATOM      2  C   LIG A   1      -8.232   4.775 131.199  0.00  0.00    +0.007 C 
ATOM      3  C   LIG A   1      -7.562   3.490 131.665  0.00  0.00    +0.112 C 
ATOM      4  C   LIG A   1      -8.631   2.583 132.200  0.00  0.00    +0.153 C 
ATOM      5  C   LIG A   1      -9.959   3.257 132.090  0.00  0.00    +0.043 C 
ATOM      6  C   LIG A   1      -9.756   4.342 131.004  0.00  0.00    +0.032 C 
ATOM      7  O   LIG A   1      -7.957   2.295 130.973  0.00  0.00    -0.363 OA
ATOM      8  C   LIG A   1      -6.204   3.471 132.320  0.00  0.00    +0.102 C 
ATOM      9  C   LIG A   1      -5.734   4.835 132.836  0.00  0.00    +0.016 C 
ATOM     10  C   LIG A   1      -4.625   5.637 132.004  0.00  0.00    +0.016 C 
ATOM     11  C   LIG A   1      -4.003   4.845 130.813  0.00  0.00    -0.002 C 
ATOM     12  C   LIG A   1      -3.156   5.670 129.773  0.00  0.00    +0.053 C 
ATOM     13  C   LIG A   1      -1.811   6.151 130.356  0.00  0.00    +0.024 C 
ATOM     14  C   LIG A   1      -3.970   6.916 129.358  0.00  0.00    +0.166 C 
ATOM     15  C   LIG A   1      -4.838   7.572 130.358  0.00  0.00    +0.044 C 
ATOM     16  C   LIG A   1      -5.098   7.004 131.540  0.00  0.00    -0.012 C 
ATOM     17  O   LIG A   1      -3.870   7.466 128.261  0.00  0.00    -0.292 OA
ATOM     18  C   LIG A   1      -2.811   4.942 128.445  0.00  0.00    +0.024 C 
ATOM     19  C   LIG A   1      -4.216   3.517 130.679  0.00  0.00    +0.161 C 
ATOM     20  C   LIG A   1      -5.143   2.751 131.547  0.00  0.00    +0.203 C 
ATOM     21  O   LIG A   1      -5.046   1.521 131.528  0.00  0.00    -0.288 OA
ATOM     22  C   LIG A   1      -3.509   5.945 133.050  0.00  0.00    +0.020 C 
ATOM     23  C   LIG A   1      -6.965   5.615 133.333  0.00  0.00    +0.006 C 
ATOM     24  C   LIG A   1      -8.055   5.871 132.283  0.00  0.00    +0.010 C 
ENDROOT
BRANCH   6  25
ATOM     25  C   LIG A   1     -10.859   5.367 130.951  0.00  0.00    +0.008 C 
ATOM     26  C   LIG A   1     -11.348   6.152 131.911  0.00  0.00    +0.097 C 
ATOM     27  C   LIG A   1     -12.406   6.965 131.311  0.00  0.00    +0.335 C 
ATOM     28  O   LIG A   1     -12.498   6.683 129.989  0.00  0.00    -0.428 OA
ATOM     29  C   LIG A   1     -11.570   5.659 129.677  0.00  0.00    +0.337 C 
ATOM     30  O   LIG A   1     -13.083   7.768 131.922  0.00  0.00    -0.245 OA
BRANCH  29  31
ATOM     31  O   LIG A   1     -10.670   6.089 128.680  0.00  0.00    -0.354 OA
ATOM     32  H   LIG A   1      -9.964   6.583 129.124  0.00  0.00    +0.214 HD
ENDBRANCH  29  31
ENDBRANCH   6  25
BRANCH  19  33
ATOM     33  O   LIG A   1      -3.566   2.740 129.742  0.00  0.00    -0.503 OA
ATOM     34  H   LIG A   1      -2.870   2.255 130.239  0.00  0.00    +0.292 HD
ENDBRANCH  19  33
TORSDOF 3
ENDMDL
MODEL 3
REMARK VINA RESULT:      -8.6      3.398      7.137
REMARK  Name = NuBBE_1181
REMARK  7 active torsions:
REMARK  status: ('A' for Active; 'I' for Inactive)
REMARK    1  A    between atoms: C_1  and  C_2
REMARK    2  A    between atoms: C_7  and  C_9
REMARK    3  A    between atoms: C_13  and  O_14
REMARK    4  A    between atoms: C_20  and  C_33
REMARK    5  A    between atoms: C_22  and  C_23
REMARK    6  A    between atoms: C_22  and  C_28
REMARK    7  A    between atoms: C_29  and  O_30
REMARK                            x       y       z     vdW  Elec       q    Type
REMARK                         _______ _______ _______ _____ _____    ______ ____
ROOT
ATOM      1  C   LIG A   1      -8.339   1.852 128.572  0.00  0.00    +0.014 C 
ATOM      2  C   LIG A   1      -7.420   0.892 129.342  0.00  0.00    +0.007 C 
ATOM      3  C   LIG A   1      -6.213   1.629 129.904  0.00  0.00    +0.112 C 
ATOM      4  C   LIG A   1      -4.999   0.788 129.642  0.00  0.00    +0.153 C 
ATOM      5  C   LIG A   1      -5.401  -0.464 128.934  0.00  0.00    +0.043 C 
ATOM      6  C   LIG A   1      -6.773  -0.127 128.299  0.00  0.00    +0.032 C 
ATOM      7  O   LIG A   1      -5.217   2.015 128.944  0.00  0.00    -0.363 OA
ATOM      8  C   LIG A   1      -6.272   2.438 131.175  0.00  0.00    +0.102 C 
ATOM      9  C   LIG A   1      -7.492   2.143 132.054  0.00  0.00    +0.016 C 
ATOM     10  C   LIG A   1      -8.702   3.192 132.075  0.00  0.00    +0.016 C 
ATOM     11  C   LIG A   1      -8.429   4.521 131.305  0.00  0.00    -0.002 C 
ATOM     12  C   LIG A   1      -9.669   5.446 131.016  0.00  0.00    +0.053 C 
ATOM     13  C   LIG A   1     -10.214   6.118 132.293  0.00  0.00    +0.024 C 
ATOM     14  C   LIG A   1     -10.796   4.578 130.414  0.00  0.00    +0.166 C 
ATOM     15  C   LIG A   1     -10.951   3.182 130.873  0.00  0.00    +0.044 C 
ATOM     16  C   LIG A   1     -10.024   2.588 131.633  0.00  0.00    -0.012 C 
ATOM     17  O   LIG A   1     -11.650   5.006 129.636  0.00  0.00    -0.292 OA
ATOM     18  C   LIG A   1      -9.440   6.592 129.994  0.00  0.00    +0.024 C 
ATOM     19  C   LIG A   1      -7.182   4.834 130.887  0.00  0.00    +0.161 C 
ATOM     20  C   LIG A   1      -6.030   3.905 131.000  0.00  0.00    +0.203 C 
ATOM     21  O   LIG A   1      -4.903   4.386 130.857  0.00  0.00    -0.288 OA
ATOM     22  C   LIG A   1      -8.907   3.512 133.588  0.00  0.00    +0.020 C 
ATOM     23  C   LIG A   1      -7.837   0.649 131.918  0.00  0.00    +0.006 C 
ATOM     24  C   LIG A   1      -8.167   0.172 130.497  0.00  0.00    +0.010 C 
ENDROOT
BRANCH   6  25
ATOM     25  C   LIG A   1      -7.532  -1.334 127.810  0.00  0.00    +0.008 C 
ATOM     26  C   LIG A   1      -7.893  -2.441 128.458  0.00  0.00    +0.097 C 
ATOM     27  C   LIG A   1      -8.621  -3.283 127.509  0.00  0.00    +0.335 C 
ATOM     28  O   LIG A   1      -8.721  -2.641 126.320  0.00  0.00    -0.428 OA
ATOM     29  C   LIG A   1      -8.033  -1.405 126.412  0.00  0.00    +0.337 C 
ATOM     30  O   LIG A   1      -9.063  -4.385 127.769  0.00  0.00    -0.245 OA
BRANCH  29  31
ATOM     31  O   LIG A   1      -8.902  -0.331 126.127  0.00  0.00    -0.354 OA
ATOM     32  H   LIG A   1      -9.794  -0.700 126.035  0.00  0.00    +0.214 HD
ENDBRANCH  29  31
ENDBRANCH   6  25
BRANCH  19  33
ATOM     33  O   LIG A   1      -6.853   6.059 130.346  0.00  0.00    -0.503 OA
ATOM     34  H   LIG A   1      -7.459   6.180 129.580  0.00  0.00    +0.292 HD
ENDBRANCH  19  33
TORSDOF 3
ENDMDL
MODEL 4
REMARK VINA RESULT:      -8.6      3.858      5.902
REMARK  Name = NuBBE_1181
REMARK  7 active torsions:
REMARK  status: ('A' for Active; 'I' for Inactive)
REMARK    1  A    between atoms: C_1  and  C_2
REMARK    2  A    between atoms: C_7  and  C_9
REMARK    3  A    between atoms: C_13  and  O_14
REMARK    4  A    between atoms: C_20  and  C_33
REMARK    5  A    between atoms: C_22  and  C_23
REMARK    6  A    between atoms: C_22  and  C_28
REMARK    7  A    between atoms: C_29  and  O_30
REMARK                            x       y       z     vdW  Elec       q    Type
REMARK                         _______ _______ _______ _____ _____    ______ ____
ROOT
ATOM      1  C   LIG A   1      -7.403   4.001 127.126  0.00  0.00    +0.014 C 
ATOM      2  C   LIG A   1      -7.249   2.473 127.134  0.00  0.00    +0.007 C 
ATOM      3  C   LIG A   1      -6.018   2.056 127.927  0.00  0.00    +0.112 C 
ATOM      4  C   LIG A   1      -5.303   0.997 127.141  0.00  0.00    +0.153 C 
ATOM      5  C   LIG A   1      -6.047   0.727 125.874  0.00  0.00    +0.043 C 
ATOM      6  C   LIG A   1      -6.907   1.996 125.650  0.00  0.00    +0.032 C 
ATOM      7  O   LIG A   1      -4.755   2.308 127.292  0.00  0.00    -0.363 OA
ATOM      8  C   LIG A   1      -6.010   1.968 129.432  0.00  0.00    +0.102 C 
ATOM      9  C   LIG A   1      -7.404   1.937 130.069  0.00  0.00    +0.016 C 
ATOM     10  C   LIG A   1      -7.960   3.260 130.778  0.00  0.00    +0.016 C 
ATOM     11  C   LIG A   1      -6.928   4.423 130.894  0.00  0.00    -0.002 C 
ATOM     12  C   LIG A   1      -7.491   5.841 131.281  0.00  0.00    +0.053 C 
ATOM     13  C   LIG A   1      -7.962   5.909 132.748  0.00  0.00    +0.024 C 
ATOM     14  C   LIG A   1      -8.703   6.150 130.375  0.00  0.00    +0.166 C 
ATOM     15  C   LIG A   1      -9.589   5.043 129.958  0.00  0.00    +0.044 C 
ATOM     16  C   LIG A   1      -9.257   3.764 130.168  0.00  0.00    -0.012 C 
ATOM     17  O   LIG A   1      -9.044   7.288 130.049  0.00  0.00    -0.292 OA
ATOM     18  C   LIG A   1      -6.518   7.036 131.089  0.00  0.00    +0.024 C 
ATOM     19  C   LIG A   1      -5.617   4.212 130.641  0.00  0.00    +0.161 C 
ATOM     20  C   LIG A   1      -5.088   2.930 130.114  0.00  0.00    +0.203 C 
ATOM     21  O   LIG A   1      -3.869   2.749 130.191  0.00  0.00    -0.288 OA
ATOM     22  C   LIG A   1      -8.361   2.789 132.211  0.00  0.00    +0.020 C 
ATOM     23  C   LIG A   1      -8.350   1.172 129.125  0.00  0.00    +0.006 C 
ATOM     24  C   LIG A   1      -8.501   1.765 127.717  0.00  0.00    +0.010 C 
ENDROOT
BRANCH   6  25
ATOM     25  C   LIG A   1      -7.988   1.825 124.614  0.00  0.00    +0.008 C 
ATOM     26  C   LIG A   1      -8.977   0.935 124.545  0.00  0.00    +0.097 C 
ATOM     27  C   LIG A   1      -9.744   1.230 123.335  0.00  0.00    +0.335 C 
ATOM     28  O   LIG A   1      -9.224   2.323 122.726  0.00  0.00    -0.428 OA
ATOM     29  C   LIG A   1      -8.088   2.752 123.456  0.00  0.00    +0.337 C 
ATOM     30  O   LIG A   1     -10.700   0.583 122.954  0.00  0.00    -0.245 OA
BRANCH  29  31
ATOM     31  O   LIG A   1      -8.247   4.087 123.884  0.00  0.00    -0.354 OA
ATOM     32  H   LIG A   1      -8.616   4.585 123.138  0.00  0.00    +0.214 HD
ENDBRANCH  29  31
ENDBRANCH   6  25
BRANCH  19  33
ATOM     33  O   LIG A   1      -4.640   5.157 130.879  0.00  0.00    -0.503 OA
ATOM     34  H   LIG A   1      -4.800   5.872 130.223  0.00  0.00    +0.292 HD
ENDBRANCH  19  33
TORSDOF 3
ENDMDL
MODEL 5
REMARK VINA RESULT:      -8.5      4.831      7.919
REMARK  Name = NuBBE_1181
REMARK  7 active torsions:
REMARK  status: ('A' for Active; 'I' for Inactive)
REMARK    1  A    between atoms: C_1  and  C_2
REMARK    2  A    between atoms: C_7  and  C_9
REMARK    3  A    between atoms: C_13  and  O_14
REMARK    4  A    between atoms: C_20  and  C_33
REMARK    5  A    between atoms: C_22  and  C_23
REMARK    6  A    between atoms: C_22  and  C_28
REMARK    7  A    between atoms: C_29  and  O_30
REMARK                            x       y       z     vdW  Elec       q    Type
REMARK                         _______ _______ _______ _____ _____    ______ ____
ROOT
ATOM      1  C   LIG A   1      -8.599   0.499 127.217  0.00  0.00    +0.014 C 
ATOM      2  C   LIG A   1      -7.485   1.124 126.364  0.00  0.00    +0.007 C 
ATOM      3  C   LIG A   1      -7.597   2.642 126.354  0.00  0.00    +0.112 C 
ATOM      4  C   LIG A   1      -7.394   3.108 124.943  0.00  0.00    +0.153 C 
ATOM      5  C   LIG A   1      -7.152   1.929 124.058  0.00  0.00    +0.043 C 
ATOM      6  C   LIG A   1      -7.740   0.729 124.840  0.00  0.00    +0.032 C 
ATOM      7  O   LIG A   1      -8.675   3.181 125.572  0.00  0.00    -0.363 OA
ATOM      8  C   LIG A   1      -7.086   3.504 127.481  0.00  0.00    +0.102 C 
ATOM      9  C   LIG A   1      -6.109   2.794 128.424  0.00  0.00    +0.016 C 
ATOM     10  C   LIG A   1      -6.629   2.321 129.863  0.00  0.00    +0.016 C 
ATOM     11  C   LIG A   1      -8.070   2.795 130.225  0.00  0.00    -0.002 C 
ATOM     12  C   LIG A   1      -8.756   2.109 131.465  0.00  0.00    +0.053 C 
ATOM     13  C   LIG A   1      -8.115   2.531 132.803  0.00  0.00    +0.024 C 
ATOM     14  C   LIG A   1      -8.603   0.578 131.324  0.00  0.00    +0.166 C 
ATOM     15  C   LIG A   1      -7.376   0.033 130.707  0.00  0.00    +0.044 C 
ATOM     16  C   LIG A   1      -6.494   0.824 130.084  0.00  0.00    -0.012 C 
ATOM     17  O   LIG A   1      -9.403  -0.237 131.784  0.00  0.00    -0.292 OA
ATOM     18  C   LIG A   1     -10.281   2.357 131.624  0.00  0.00    +0.024 C 
ATOM     19  C   LIG A   1      -8.698   3.732 129.481  0.00  0.00    +0.161 C 
ATOM     20  C   LIG A   1      -8.141   4.271 128.216  0.00  0.00    +0.203 C 
ATOM     21  O   LIG A   1      -8.644   5.308 127.776  0.00  0.00    -0.288 OA
ATOM     22  C   LIG A   1      -5.616   2.956 130.866  0.00  0.00    +0.020 C 
ATOM     23  C   LIG A   1      -5.273   1.800 127.598  0.00  0.00    +0.006 C 
ATOM     24  C   LIG A   1      -6.073   0.716 126.861  0.00  0.00    +0.010 C 
ENDROOT
BRANCH   6  25
ATOM     25  C   LIG A   1      -7.322  -0.615 124.300  0.00  0.00    +0.008 C 
ATOM     26  C   LIG A   1      -6.117  -1.181 124.246  0.00  0.00    +0.097 C 
ATOM     27  C   LIG A   1      -6.282  -2.498 123.632  0.00  0.00    +0.335 C 
ATOM     28  O   LIG A   1      -7.594  -2.714 123.370  0.00  0.00    -0.428 OA
ATOM     29  C   LIG A   1      -8.326  -1.557 123.738  0.00  0.00    +0.337 C 
ATOM     30  O   LIG A   1      -5.369  -3.268 123.403  0.00  0.00    -0.245 OA
BRANCH  29  31
ATOM     31  O   LIG A   1      -9.314  -1.877 124.693  0.00  0.00    -0.354 OA
ATOM     32  H   LIG A   1      -9.673  -2.746 124.454  0.00  0.00    +0.214 HD
ENDBRANCH  29  31
ENDBRANCH   6  25
BRANCH  19  33
ATOM     33  O   LIG A   1      -9.901   4.302 129.842  0.00  0.00    -0.503 OA
ATOM     34  H   LIG A   1      -9.667   5.119 130.337  0.00  0.00    +0.292 HD
ENDBRANCH  19  33
TORSDOF 3
ENDMDL
MODEL 6
REMARK VINA RESULT:      -8.5      3.674      6.716
REMARK  Name = NuBBE_1181
REMARK  7 active torsions:
REMARK  status: ('A' for Active; 'I' for Inactive)
REMARK    1  A    between atoms: C_1  and  C_2
REMARK    2  A    between atoms: C_7  and  C_9
REMARK    3  A    between atoms: C_13  and  O_14
REMARK    4  A    between atoms: C_20  and  C_33
REMARK    5  A    between atoms: C_22  and  C_23
REMARK    6  A    between atoms: C_22  and  C_28
REMARK    7  A    between atoms: C_29  and  O_30
REMARK                            x       y       z     vdW  Elec       q    Type
REMARK                         _______ _______ _______ _____ _____    ______ ____
ROOT
ATOM      1  C   LIG A   1      -7.809   4.240 127.205  0.00  0.00    +0.014 C 
ATOM      2  C   LIG A   1      -6.449   3.528 127.161  0.00  0.00    +0.007 C 
ATOM      3  C   LIG A   1      -5.390   4.333 127.900  0.00  0.00    +0.112 C 
ATOM      4  C   LIG A   1      -4.148   4.340 127.058  0.00  0.00    +0.153 C 
ATOM      5  C   LIG A   1      -4.387   3.557 125.808  0.00  0.00    +0.043 C 
ATOM      6  C   LIG A   1      -5.928   3.536 125.653  0.00  0.00    +0.032 C 
ATOM      7  O   LIG A   1      -4.933   5.520 127.233  0.00  0.00    -0.363 OA
ATOM      8  C   LIG A   1      -5.246   4.306 129.400  0.00  0.00    +0.102 C 
ATOM      9  C   LIG A   1      -5.958   3.132 130.081  0.00  0.00    +0.016 C 
ATOM     10  C   LIG A   1      -7.336   3.403 130.848  0.00  0.00    +0.016 C 
ATOM     11  C   LIG A   1      -7.734   4.906 130.967  0.00  0.00    -0.002 C 
ATOM     12  C   LIG A   1      -9.209   5.220 131.417  0.00  0.00    +0.053 C 
ATOM     13  C   LIG A   1      -9.460   4.879 132.900  0.00  0.00    +0.024 C 
ATOM     14  C   LIG A   1     -10.173   4.370 130.561  0.00  0.00    +0.166 C 
ATOM     15  C   LIG A   1      -9.755   3.017 130.139  0.00  0.00    +0.044 C 
ATOM     16  C   LIG A   1      -8.497   2.592 130.298  0.00  0.00    -0.012 C 
ATOM     17  O   LIG A   1     -11.324   4.709 130.282  0.00  0.00    -0.292 OA
ATOM     18  C   LIG A   1      -9.680   6.689 131.231  0.00  0.00    +0.024 C 
ATOM     19  C   LIG A   1      -6.848   5.882 130.665  0.00  0.00    +0.161 C 
ATOM     20  C   LIG A   1      -5.511   5.613 130.082  0.00  0.00    +0.203 C 
ATOM     21  O   LIG A   1      -4.688   6.531 130.114  0.00  0.00    -0.288 OA
ATOM     22  C   LIG A   1      -7.101   2.824 132.278  0.00  0.00    +0.020 C 
ATOM     23  C   LIG A   1      -5.882   1.912 129.145  0.00  0.00    +0.006 C 
ATOM     24  C   LIG A   1      -6.521   2.098 127.762  0.00  0.00    +0.010 C 
ENDROOT
BRANCH   6  25
ATOM     25  C   LIG A   1      -6.426   2.529 124.648  0.00  0.00    +0.008 C 
ATOM     26  C   LIG A   1      -6.405   1.197 124.685  0.00  0.00    +0.097 C 
ATOM     27  C   LIG A   1      -7.029   0.717 123.452  0.00  0.00    +0.335 C 
ATOM     28  O   LIG A   1      -7.454   1.775 122.719  0.00  0.00    -0.428 OA
ATOM     29  C   LIG A   1      -7.088   2.969 123.391  0.00  0.00    +0.337 C 
ATOM     30  O   LIG A   1      -7.143  -0.455 123.152  0.00  0.00    -0.245 OA
BRANCH  29  31
ATOM     31  O   LIG A   1      -8.227   3.755 123.663  0.00  0.00    -0.354 OA
ATOM     32  H   LIG A   1      -8.254   4.460 122.998  0.00  0.00    +0.214 HD
ENDBRANCH  29  31
ENDBRANCH   6  25
BRANCH  19  33
ATOM     33  O   LIG A   1      -7.089   7.219 130.901  0.00  0.00    -0.503 OA
ATOM     34  H   LIG A   1      -8.067   7.302 130.971  0.00  0.00    +0.292 HD
ENDBRANCH  19  33
TORSDOF 3
ENDMDL
MODEL 7
REMARK VINA RESULT:      -8.2      2.874      4.948
REMARK  Name = NuBBE_1181
REMARK  7 active torsions:
REMARK  status: ('A' for Active; 'I' for Inactive)
REMARK    1  A    between atoms: C_1  and  C_2
REMARK    2  A    between atoms: C_7  and  C_9
REMARK    3  A    between atoms: C_13  and  O_14
REMARK    4  A    between atoms: C_20  and  C_33
REMARK    5  A    between atoms: C_22  and  C_23
REMARK    6  A    between atoms: C_22  and  C_28
REMARK    7  A    between atoms: C_29  and  O_30
REMARK                            x       y       z     vdW  Elec       q    Type
REMARK                         _______ _______ _______ _____ _____    ______ ____
ROOT
ATOM      1  C   LIG A   1      -9.086   2.171 130.514  0.00  0.00    +0.014 C 
ATOM      2  C   LIG A   1      -8.279   3.208 131.309  0.00  0.00    +0.007 C 
ATOM      3  C   LIG A   1      -7.718   2.596 132.585  0.00  0.00    +0.112 C 
ATOM      4  C   LIG A   1      -7.941   3.573 133.700  0.00  0.00    +0.153 C 
ATOM      5  C   LIG A   1      -8.624   4.791 133.168  0.00  0.00    +0.043 C 
ATOM      6  C   LIG A   1      -9.288   4.319 131.851  0.00  0.00    +0.032 C 
ATOM      7  O   LIG A   1      -8.672   2.348 133.629  0.00  0.00    -0.363 OA
ATOM      8  C   LIG A   1      -6.468   1.752 132.602  0.00  0.00    +0.102 C 
ATOM      9  C   LIG A   1      -5.600   1.886 131.346  0.00  0.00    +0.016 C 
ATOM     10  C   LIG A   1      -5.623   0.709 130.261  0.00  0.00    +0.016 C 
ATOM     11  C   LIG A   1      -6.420  -0.561 130.691  0.00  0.00    -0.002 C 
ATOM     12  C   LIG A   1      -6.750  -1.611 129.566  0.00  0.00    +0.053 C 
ATOM     13  C   LIG A   1      -5.499  -2.373 129.084  0.00  0.00    +0.024 C 
ATOM     14  C   LIG A   1      -7.347  -0.860 128.356  0.00  0.00    +0.166 C 
ATOM     15  C   LIG A   1      -6.857   0.498 128.040  0.00  0.00    +0.044 C 
ATOM     16  C   LIG A   1      -6.069   1.172 128.885  0.00  0.00    -0.012 C 
ATOM     17  O   LIG A   1      -8.148  -1.360 127.565  0.00  0.00    -0.292 OA
ATOM     18  C   LIG A   1      -7.797  -2.697 129.934  0.00  0.00    +0.024 C 
ATOM     19  C   LIG A   1      -6.827  -0.722 131.970  0.00  0.00    +0.161 C 
ATOM     20  C   LIG A   1      -6.675   0.327 133.008  0.00  0.00    +0.203 C 
ATOM     21  O   LIG A   1      -6.813  -0.021 134.184  0.00  0.00    -0.288 OA
ATOM     22  C   LIG A   1      -4.121   0.328 130.076  0.00  0.00    +0.020 C 
ATOM     23  C   LIG A   1      -5.704   3.336 130.837  0.00  0.00    +0.006 C 
ATOM     24  C   LIG A   1      -7.118   3.809 130.473  0.00  0.00    +0.010 C 
ENDROOT
BRANCH   6  25
ATOM     25  C   LIG A   1      -9.758   5.446 130.967  0.00  0.00    +0.008 C 
ATOM     26  C   LIG A   1      -9.072   6.443 130.409  0.00  0.00    +0.097 C 
ATOM     27  C   LIG A   1     -10.021   7.247 129.640  0.00  0.00    +0.335 C 
ATOM     28  O   LIG A   1     -11.253   6.688 129.716  0.00  0.00    -0.428 OA
ATOM     29  C   LIG A   1     -11.185   5.553 130.562  0.00  0.00    +0.337 C 
ATOM     30  O   LIG A   1      -9.728   8.257 129.030  0.00  0.00    -0.245 OA
BRANCH  29  31
ATOM     31  O   LIG A   1     -11.608   4.396 129.876  0.00  0.00    -0.354 OA
ATOM     32  H   LIG A   1     -12.467   4.599 129.473  0.00  0.00    +0.214 HD
ENDBRANCH  29  31
ENDBRANCH   6  25
BRANCH  19  33
ATOM     33  O   LIG A   1      -7.394  -1.888 132.441  0.00  0.00    -0.503 OA
ATOM     34  H   LIG A   1      -6.646  -2.420 132.794  0.00  0.00    +0.292 HD
ENDBRANCH  19  33
TORSDOF 3
ENDMDL
MODEL 8
REMARK VINA RESULT:      -8.1      2.793      5.036
REMARK  Name = NuBBE_1181
REMARK  7 active torsions:
REMARK  status: ('A' for Active; 'I' for Inactive)
REMARK    1  A    between atoms: C_1  and  C_2
REMARK    2  A    between atoms: C_7  and  C_9
REMARK    3  A    between atoms: C_13  and  O_14
REMARK    4  A    between atoms: C_20  and  C_33
REMARK    5  A    between atoms: C_22  and  C_23
REMARK    6  A    between atoms: C_22  and  C_28
REMARK    7  A    between atoms: C_29  and  O_30
REMARK                            x       y       z     vdW  Elec       q    Type
REMARK                         _______ _______ _______ _____ _____    ______ ____
ROOT
ATOM      1  C   LIG A   1      -7.462   3.895 132.834  0.00  0.00    +0.014 C 
ATOM      2  C   LIG A   1      -7.138   4.722 131.581  0.00  0.00    +0.007 C 
ATOM      3  C   LIG A   1      -5.701   5.225 131.620  0.00  0.00    +0.112 C 
ATOM      4  C   LIG A   1      -5.708   6.663 131.192  0.00  0.00    +0.153 C 
ATOM      5  C   LIG A   1      -7.106   7.085 130.879  0.00  0.00    +0.043 C 
ATOM      6  C   LIG A   1      -7.997   6.065 131.630  0.00  0.00    +0.032 C 
ATOM      7  O   LIG A   1      -5.441   6.292 132.546  0.00  0.00    -0.363 OA
ATOM      8  C   LIG A   1      -4.525   4.363 131.238  0.00  0.00    +0.102 C 
ATOM      9  C   LIG A   1      -4.897   3.107 130.442  0.00  0.00    +0.016 C 
ATOM     10  C   LIG A   1      -4.890   1.689 131.187  0.00  0.00    +0.016 C 
ATOM     11  C   LIG A   1      -4.328   1.718 132.642  0.00  0.00    -0.002 C 
ATOM     12  C   LIG A   1      -4.586   0.445 133.531  0.00  0.00    +0.053 C 
ATOM     13  C   LIG A   1      -3.760  -0.774 133.073  0.00  0.00    +0.024 C 
ATOM     14  C   LIG A   1      -6.082   0.073 133.430  0.00  0.00    +0.166 C 
ATOM     15  C   LIG A   1      -6.792   0.293 132.153  0.00  0.00    +0.044 C 
ATOM     16  C   LIG A   1      -6.238   0.991 131.155  0.00  0.00    -0.012 C 
ATOM     17  O   LIG A   1      -6.710  -0.492 134.326  0.00  0.00    -0.292 OA
ATOM     18  C   LIG A   1      -4.304   0.607 135.050  0.00  0.00    +0.024 C 
ATOM     19  C   LIG A   1      -3.677   2.806 133.110  0.00  0.00    +0.161 C 
ATOM     20  C   LIG A   1      -3.567   4.076 132.352  0.00  0.00    +0.203 C 
ATOM     21  O   LIG A   1      -2.724   4.891 132.737  0.00  0.00    -0.288 OA
ATOM     22  C   LIG A   1      -3.967   0.795 130.302  0.00  0.00    +0.020 C 
ATOM     23  C   LIG A   1      -6.100   3.442 129.542  0.00  0.00    +0.006 C 
ATOM     24  C   LIG A   1      -7.364   3.912 130.276  0.00  0.00    +0.010 C 
ENDROOT
BRANCH   6  25
ATOM     25  C   LIG A   1      -9.442   6.085 131.200  0.00  0.00    +0.008 C 
ATOM     26  C   LIG A   1      -9.978   5.966 129.986  0.00  0.00    +0.097 C 
ATOM     27  C   LIG A   1     -11.430   6.045 130.142  0.00  0.00    +0.335 C 
ATOM     28  O   LIG A   1     -11.738   6.164 131.456  0.00  0.00    -0.428 OA
ATOM     29  C   LIG A   1     -10.533   6.224 132.201  0.00  0.00    +0.337 C 
ATOM     30  O   LIG A   1     -12.223   6.005 129.221  0.00  0.00    -0.245 OA
BRANCH  29  31
ATOM     31  O   LIG A   1     -10.486   5.186 133.154  0.00  0.00    -0.354 OA
ATOM     32  H   LIG A   1     -10.268   5.591 134.009  0.00  0.00    +0.214 HD
ENDBRANCH  29  31
ENDBRANCH   6  25
BRANCH  19  33
ATOM     33  O   LIG A   1      -3.024   2.830 134.325  0.00  0.00    -0.503 OA
ATOM     34  H   LIG A   1      -3.625   3.312 134.937  0.00  0.00    +0.292 HD
ENDBRANCH  19  33
TORSDOF 3
ENDMDL
MODEL 9
REMARK VINA RESULT:      -8.0      3.195      7.464
REMARK  Name = NuBBE_1181
REMARK  7 active torsions:
REMARK  status: ('A' for Active; 'I' for Inactive)
REMARK    1  A    between atoms: C_1  and  C_2
REMARK    2  A    between atoms: C_7  and  C_9
REMARK    3  A    between atoms: C_13  and  O_14
REMARK    4  A    between atoms: C_20  and  C_33
REMARK    5  A    between atoms: C_22  and  C_23
REMARK    6  A    between atoms: C_22  and  C_28
REMARK    7  A    between atoms: C_29  and  O_30
REMARK                            x       y       z     vdW  Elec       q    Type
REMARK                         _______ _______ _______ _____ _____    ______ ____
ROOT
ATOM      1  C   LIG A   1      -4.788   6.070 133.538  0.00  0.00    +0.014 C 
ATOM      2  C   LIG A   1      -3.624   5.660 132.624  0.00  0.00    +0.007 C 
ATOM      3  C   LIG A   1      -3.494   4.145 132.558  0.00  0.00    +0.112 C 
ATOM      4  C   LIG A   1      -2.038   3.804 132.682  0.00  0.00    +0.153 C 
ATOM      5  C   LIG A   1      -1.241   5.060 132.819  0.00  0.00    +0.043 C 
ATOM      6  C   LIG A   1      -2.260   6.115 133.315  0.00  0.00    +0.032 C 
ATOM      7  O   LIG A   1      -2.961   3.515 133.734  0.00  0.00    -0.363 OA
ATOM      8  C   LIG A   1      -4.364   3.290 131.672  0.00  0.00    +0.102 C 
ATOM      9  C   LIG A   1      -5.095   4.065 130.570  0.00  0.00    +0.016 C 
ATOM     10  C   LIG A   1      -6.657   4.369 130.744  0.00  0.00    +0.016 C 
ATOM     11  C   LIG A   1      -7.325   3.679 131.973  0.00  0.00    -0.002 C 
ATOM     12  C   LIG A   1      -8.758   4.183 132.382  0.00  0.00    +0.053 C 
ATOM     13  C   LIG A   1      -9.843   3.767 131.368  0.00  0.00    +0.024 C 
ATOM     14  C   LIG A   1      -8.734   5.726 132.450  0.00  0.00    +0.166 C 
ATOM     15  C   LIG A   1      -7.883   6.473 131.501  0.00  0.00    +0.044 C 
ATOM     16  C   LIG A   1      -6.983   5.853 130.729  0.00  0.00    -0.012 C 
ATOM     17  O   LIG A   1      -9.459   6.392 133.190  0.00  0.00    -0.292 OA
ATOM     18  C   LIG A   1      -9.273   3.718 133.772  0.00  0.00    +0.024 C 
ATOM     19  C   LIG A   1      -6.675   2.714 132.662  0.00  0.00    +0.161 C 
ATOM     20  C   LIG A   1      -5.263   2.340 132.400  0.00  0.00    +0.203 C 
ATOM     21  O   LIG A   1      -4.865   1.274 132.877  0.00  0.00    -0.288 OA
ATOM     22  C   LIG A   1      -7.304   3.816 129.436  0.00  0.00    +0.020 C 
ATOM     23  C   LIG A   1      -4.185   5.216 130.102  0.00  0.00    +0.006 C 
ATOM     24  C   LIG A   1      -3.785   6.226 131.188  0.00  0.00    +0.010 C 
ENDROOT
BRANCH   6  25
ATOM     25  C   LIG A   1      -1.767   7.535 133.213  0.00  0.00    +0.008 C 
ATOM     26  C   LIG A   1      -2.448   8.679 133.162  0.00  0.00    +0.097 C 
ATOM     27  C   LIG A   1      -1.472   9.764 133.077  0.00  0.00    +0.335 C 
ATOM     28  O   LIG A   1      -0.219   9.250 133.126  0.00  0.00    -0.428 OA
ATOM     29  C   LIG A   1      -0.311   7.837 133.185  0.00  0.00    +0.337 C 
ATOM     30  O   LIG A   1      -1.761  10.942 132.983  0.00  0.00    -0.245 OA
BRANCH  29  31
ATOM     31  O   LIG A   1       0.333   7.345 134.340  0.00  0.00    -0.354 OA
ATOM     32  H   LIG A   1       1.084   7.932 134.521  0.00  0.00    +0.214 HD
ENDBRANCH  29  31
ENDBRANCH   6  25
BRANCH  19  33
ATOM     33  O   LIG A   1      -7.271   1.962 133.653  0.00  0.00    -0.503 OA
ATOM     34  H   LIG A   1      -8.004   2.519 134.000  0.00  0.00    +0.292 HD
ENDBRANCH  19  33
TORSDOF 3
ENDMDL
