MODEL 1
REMARK VINA RESULT:      -8.2      0.000      0.000
REMARK  Name = NuBBE_1243
REMARK  11 active torsions:
REMARK  status: ('A' for Active; 'I' for Inactive)
REMARK    1  A    between atoms: O_1  and  C_2
REMARK    2  A    between atoms: C_3  and  C_22
REMARK    3  A    between atoms: C_4  and  O_5
REMARK    4  A    between atoms: C_12  and  C_14
REMARK    5  A    between atoms: C_16  and  O_17
REMARK    6  A    between atoms: C_18  and  O_21
REMARK    7  A    between atoms: C_25  and  C_27
REMARK    8  A    between atoms: C_27  and  O_28
REMARK    9  A    between atoms: C_29  and  O_37
REMARK   10  A    between atoms: C_31  and  O_36
REMARK   11  A    between atoms: C_33  and  O_35
REMARK                            x       y       z     vdW  Elec       q    Type
REMARK                         _______ _______ _______ _____ _____    ______ ____
ROOT
ATOM      1  C   LIG A   1     -10.056   3.779 130.941  0.00  0.00    +0.140 A 
ATOM      2  C   LIG A   1      -9.898   5.102 130.487  0.00  0.00    +0.067 A 
ATOM      3  C   LIG A   1      -8.617   5.678 130.600  0.00  0.00    +0.130 A 
ATOM      4  C   LIG A   1      -7.538   4.977 131.146  0.00  0.00    +0.093 A 
ATOM      5  C   LIG A   1      -7.719   3.670 131.588  0.00  0.00    +0.146 A 
ATOM      6  C   LIG A   1      -8.971   3.071 131.486  0.00  0.00    +0.106 A 
ATOM      7  C   LIG A   1      -9.109   1.687 131.960  0.00  0.00    +0.197 A 
ATOM      8  O   LIG A   1     -10.179   1.097 131.902  0.00  0.00    -0.287 OA
ATOM      9  C   LIG A   1      -7.907   1.039 132.500  0.00  0.00    +0.098 A 
ATOM     10  C   LIG A   1      -6.750   1.718 132.534  0.00  0.00    +0.139 A 
ATOM     11  O   LIG A   1      -6.618   3.032 132.106  0.00  0.00    -0.454 OA
ENDROOT
BRANCH  10  12
ATOM     12  C   LIG A   1      -5.505   1.110 133.059  0.00  0.00    +0.021 A 
ATOM     13  C   LIG A   1      -5.079   1.383 134.372  0.00  0.00    +0.060 A 
ATOM     14  C   LIG A   1      -3.905   0.810 134.855  0.00  0.00    +0.159 A 
ATOM     15  C   LIG A   1      -3.144  -0.030 134.048  0.00  0.00    +0.158 A 
ATOM     16  C   LIG A   1      -3.535  -0.305 132.750  0.00  0.00    +0.050 A 
ATOM     17  C   LIG A   1      -4.708   0.269 132.256  0.00  0.00    +0.015 A 
BRANCH  14  18
ATOM     18  O   LIG A   1      -3.455   1.039 136.127  0.00  0.00    -0.503 OA
ATOM     19  H   LIG A   1      -4.019   1.720 136.534  0.00  0.00    +0.292 HD
ENDBRANCH  14  18
BRANCH  15  20
ATOM     20  O   LIG A   1      -1.998  -0.591 134.529  0.00  0.00    -0.503 OA
ATOM     21  H   LIG A   1      -2.297  -1.200 135.233  0.00  0.00    +0.292 HD
ENDBRANCH  15  20
ENDBRANCH  10  12
BRANCH   2  22
ATOM     22  C   LIG A   1     -11.072   5.876 129.899  0.00  0.00    +0.187 C 
ATOM     23  O   LIG A   1     -10.619   6.459 128.659  0.00  0.00    -0.361 OA
ATOM     24  C   LIG A   1     -11.619   7.243 127.993  0.00  0.00    +0.175 C 
ATOM     25  C   LIG A   1     -12.027   8.425 128.882  0.00  0.00    +0.176 C 
ATOM     26  C   LIG A   1     -12.604   7.879 130.188  0.00  0.00    +0.177 C 
ATOM     27  C   LIG A   1     -11.629   6.930 130.889  0.00  0.00    +0.179 C 
BRANCH  27  28
ATOM     28  O   LIG A   1     -12.330   6.306 131.979  0.00  0.00    -0.386 OA
ATOM     29  H   LIG A   1     -13.174   6.794 132.051  0.00  0.00    +0.210 HD
ENDBRANCH  27  28
BRANCH  26  30
ATOM     30  O   LIG A   1     -12.931   8.961 131.079  0.00  0.00    -0.387 OA
ATOM     31  H   LIG A   1     -12.887   9.776 130.540  0.00  0.00    +0.210 HD
ENDBRANCH  26  30
BRANCH  25  32
ATOM     32  O   LIG A   1     -13.015   9.270 128.276  0.00  0.00    -0.387 OA
ATOM     33  H   LIG A   1     -12.683   9.572 127.412  0.00  0.00    +0.210 HD
ENDBRANCH  25  32
BRANCH  24  34
ATOM     34  C   LIG A   1     -11.031   7.698 126.651  0.00  0.00    +0.190 C 
BRANCH  34  35
ATOM     35  O   LIG A   1     -10.208   6.682 126.082  0.00  0.00    -0.392 OA
ATOM     36  H   LIG A   1      -9.992   6.078 126.819  0.00  0.00    +0.209 HD
ENDBRANCH  34  35
ENDBRANCH  24  34
ENDBRANCH   2  22
BRANCH   1  37
ATOM     37  O   LIG A   1     -11.296   3.197 130.832  0.00  0.00    -0.505 OA
ATOM     38  H   LIG A   1     -11.977   3.906 130.805  0.00  0.00    +0.292 HD
ENDBRANCH   1  37
BRANCH   3  39
ATOM     39  O   LIG A   1      -8.419   6.960 130.163  0.00  0.00    -0.506 OA
ATOM     40  H   LIG A   1      -9.265   7.343 129.879  0.00  0.00    +0.292 HD
ENDBRANCH   3  39
TORSDOF 11
ENDMDL
MODEL 2
REMARK VINA RESULT:      -7.9      6.428     10.834
REMARK  Name = NuBBE_1243
REMARK  11 active torsions:
REMARK  status: ('A' for Active; 'I' for Inactive)
REMARK    1  A    between atoms: O_1  and  C_2
REMARK    2  A    between atoms: C_3  and  C_22
REMARK    3  A    between atoms: C_4  and  O_5
REMARK    4  A    between atoms: C_12  and  C_14
REMARK    5  A    between atoms: C_16  and  O_17
REMARK    6  A    between atoms: C_18  and  O_21
REMARK    7  A    between atoms: C_25  and  C_27
REMARK    8  A    between atoms: C_27  and  O_28
REMARK    9  A    between atoms: C_29  and  O_37
REMARK   10  A    between atoms: C_31  and  O_36
REMARK   11  A    between atoms: C_33  and  O_35
REMARK                            x       y       z     vdW  Elec       q    Type
REMARK                         _______ _______ _______ _____ _____    ______ ____
ROOT
ATOM      1  C   LIG A   1      -8.464   0.687 126.038  0.00  0.00    +0.140 A 
ATOM      2  C   LIG A   1      -7.501   0.346 127.006  0.00  0.00    +0.067 A 
ATOM      3  C   LIG A   1      -6.178   0.773 126.784  0.00  0.00    +0.130 A 
ATOM      4  C   LIG A   1      -5.819   1.504 125.647  0.00  0.00    +0.093 A 
ATOM      5  C   LIG A   1      -6.788   1.830 124.704  0.00  0.00    +0.146 A 
ATOM      6  C   LIG A   1      -8.106   1.425 124.897  0.00  0.00    +0.106 A 
ATOM      7  C   LIG A   1      -9.094   1.800 123.875  0.00  0.00    +0.197 A 
ATOM      8  O   LIG A   1     -10.270   1.479 123.977  0.00  0.00    -0.287 OA
ATOM      9  C   LIG A   1      -8.612   2.582 122.730  0.00  0.00    +0.098 A 
ATOM     10  C   LIG A   1      -7.316   2.924 122.662  0.00  0.00    +0.139 A 
ATOM     11  O   LIG A   1      -6.374   2.556 123.613  0.00  0.00    -0.454 OA
ENDROOT
BRANCH  10  12
ATOM     12  C   LIG A   1      -6.777   3.720 121.535  0.00  0.00    +0.021 A 
ATOM     13  C   LIG A   1      -5.621   4.505 121.707  0.00  0.00    +0.060 A 
ATOM     14  C   LIG A   1      -5.125   5.253 120.641  0.00  0.00    +0.159 A 
ATOM     15  C   LIG A   1      -5.765   5.235 119.406  0.00  0.00    +0.158 A 
ATOM     16  C   LIG A   1      -6.909   4.481 119.215  0.00  0.00    +0.050 A 
ATOM     17  C   LIG A   1      -7.416   3.732 120.278  0.00  0.00    +0.015 A 
BRANCH  14  18
ATOM     18  O   LIG A   1      -4.000   6.024 120.758  0.00  0.00    -0.503 OA
ATOM     19  H   LIG A   1      -3.430   5.634 121.443  0.00  0.00    +0.292 HD
ENDBRANCH  14  18
BRANCH  15  20
ATOM     20  O   LIG A   1      -5.271   5.968 118.367  0.00  0.00    -0.503 OA
ATOM     21  H   LIG A   1      -4.301   5.943 118.487  0.00  0.00    +0.292 HD
ENDBRANCH  15  20
ENDBRANCH  10  12
BRANCH   2  22
ATOM     22  C   LIG A   1      -7.883  -0.458 128.243  0.00  0.00    +0.187 C 
ATOM     23  O   LIG A   1      -7.342   0.236 129.386  0.00  0.00    -0.361 OA
ATOM     24  C   LIG A   1      -7.604  -0.418 130.635  0.00  0.00    +0.175 C 
ATOM     25  C   LIG A   1      -6.946  -1.803 130.642  0.00  0.00    +0.176 C 
ATOM     26  C   LIG A   1      -7.540  -2.634 129.505  0.00  0.00    +0.177 C 
ATOM     27  C   LIG A   1      -7.404  -1.929 128.154  0.00  0.00    +0.179 C 
BRANCH  27  28
ATOM     28  O   LIG A   1      -8.171  -2.672 127.190  0.00  0.00    -0.386 OA
ATOM     29  H   LIG A   1      -7.843  -3.591 127.258  0.00  0.00    +0.210 HD
ENDBRANCH  27  28
BRANCH  26  30
ATOM     30  O   LIG A   1      -6.893  -3.918 129.434  0.00  0.00    -0.387 OA
ATOM     31  H   LIG A   1      -7.611  -4.575 129.339  0.00  0.00    +0.210 HD
ENDBRANCH  26  30
BRANCH  25  32
ATOM     32  O   LIG A   1      -7.149  -2.517 131.870  0.00  0.00    -0.387 OA
ATOM     33  H   LIG A   1      -8.097  -2.497 132.092  0.00  0.00    +0.210 HD
ENDBRANCH  25  32
BRANCH  24  34
ATOM     34  C   LIG A   1      -7.070   0.487 131.752  0.00  0.00    +0.190 C 
BRANCH  34  35
ATOM     35  O   LIG A   1      -7.653   0.148 133.009  0.00  0.00    -0.392 OA
ATOM     36  H   LIG A   1      -8.563  -0.144 132.804  0.00  0.00    +0.209 HD
ENDBRANCH  34  35
ENDBRANCH  24  34
ENDBRANCH   2  22
BRANCH   1  37
ATOM     37  O   LIG A   1      -9.762   0.285 126.240  0.00  0.00    -0.505 OA
ATOM     38  H   LIG A   1      -9.761  -0.656 126.526  0.00  0.00    +0.292 HD
ENDBRANCH   1  37
BRANCH   3  39
ATOM     39  O   LIG A   1      -5.212   0.469 127.705  0.00  0.00    -0.506 OA
ATOM     40  H   LIG A   1      -5.629   0.162 128.527  0.00  0.00    +0.292 HD
ENDBRANCH   3  39
TORSDOF 11
ENDMDL
MODEL 3
REMARK VINA RESULT:      -7.8      2.445      9.638
REMARK  Name = NuBBE_1243
REMARK  11 active torsions:
REMARK  status: ('A' for Active; 'I' for Inactive)
REMARK    1  A    between atoms: O_1  and  C_2
REMARK    2  A    between atoms: C_3  and  C_22
REMARK    3  A    between atoms: C_4  and  O_5
REMARK    4  A    between atoms: C_12  and  C_14
REMARK    5  A    between atoms: C_16  and  O_17
REMARK    6  A    between atoms: C_18  and  O_21
REMARK    7  A    between atoms: C_25  and  C_27
REMARK    8  A    between atoms: C_27  and  O_28
REMARK    9  A    between atoms: C_29  and  O_37
REMARK   10  A    between atoms: C_31  and  O_36
REMARK   11  A    between atoms: C_33  and  O_35
REMARK                            x       y       z     vdW  Elec       q    Type
REMARK                         _______ _______ _______ _____ _____    ______ ____
ROOT
ATOM      1  C   LIG A   1      -8.240   1.762 132.009  0.00  0.00    +0.140 A 
ATOM      2  C   LIG A   1      -7.870   0.828 131.023  0.00  0.00    +0.067 A 
ATOM      3  C   LIG A   1      -8.214   1.122 129.689  0.00  0.00    +0.130 A 
ATOM      4  C   LIG A   1      -8.900   2.290 129.344  0.00  0.00    +0.093 A 
ATOM      5  C   LIG A   1      -9.254   3.200 130.336  0.00  0.00    +0.146 A 
ATOM      6  C   LIG A   1      -8.925   2.939 131.663  0.00  0.00    +0.106 A 
ATOM      7  C   LIG A   1      -9.315   3.933 132.672  0.00  0.00    +0.197 A 
ATOM      8  O   LIG A   1      -9.060   3.772 133.858  0.00  0.00    -0.287 OA
ATOM      9  C   LIG A   1     -10.018   5.133 132.198  0.00  0.00    +0.098 A 
ATOM     10  C   LIG A   1     -10.268   5.276 130.887  0.00  0.00    +0.139 A 
ATOM     11  O   LIG A   1      -9.920   4.331 129.932  0.00  0.00    -0.454 OA
ENDROOT
BRANCH  10  12
ATOM     12  C   LIG A   1     -10.964   6.469 130.352  0.00  0.00    +0.021 A 
ATOM     13  C   LIG A   1     -10.498   7.100 129.184  0.00  0.00    +0.060 A 
ATOM     14  C   LIG A   1     -11.157   8.224 128.690  0.00  0.00    +0.159 A 
ATOM     15  C   LIG A   1     -12.274   8.733 129.347  0.00  0.00    +0.158 A 
ATOM     16  C   LIG A   1     -12.745   8.138 130.503  0.00  0.00    +0.050 A 
ATOM     17  C   LIG A   1     -12.087   7.014 131.007  0.00  0.00    +0.015 A 
BRANCH  14  18
ATOM     18  O   LIG A   1     -10.746   8.866 127.554  0.00  0.00    -0.503 OA
ATOM     19  H   LIG A   1     -11.365   8.647 126.836  0.00  0.00    +0.292 HD
ENDBRANCH  14  18
BRANCH  15  20
ATOM     20  O   LIG A   1     -12.916   9.832 128.855  0.00  0.00    -0.503 OA
ATOM     21  H   LIG A   1     -13.145   9.593 127.936  0.00  0.00    +0.292 HD
ENDBRANCH  15  20
ENDBRANCH  10  12
BRANCH   2  22
ATOM     22  C   LIG A   1      -7.130  -0.452 131.393  0.00  0.00    +0.187 C 
ATOM     23  O   LIG A   1      -7.862  -1.070 132.472  0.00  0.00    -0.361 OA
ATOM     24  C   LIG A   1      -7.269  -2.287 132.946  0.00  0.00    +0.175 C 
ATOM     25  C   LIG A   1      -5.870  -1.999 133.505  0.00  0.00    +0.176 C 
ATOM     26  C   LIG A   1      -5.005  -1.421 132.385  0.00  0.00    +0.177 C 
ATOM     27  C   LIG A   1      -5.646  -0.186 131.749  0.00  0.00    +0.179 C 
BRANCH  27  28
ATOM     28  O   LIG A   1      -4.880   0.155 130.580  0.00  0.00    -0.386 OA
ATOM     29  H   LIG A   1      -5.254  -0.394 129.862  0.00  0.00    +0.210 HD
ENDBRANCH  27  28
BRANCH  26  30
ATOM     30  O   LIG A   1      -3.704  -1.069 132.890  0.00  0.00    -0.387 OA
ATOM     31  H   LIG A   1      -3.630  -1.500 133.766  0.00  0.00    +0.210 HD
ENDBRANCH  26  30
BRANCH  25  32
ATOM     32  O   LIG A   1      -5.216  -3.169 134.017  0.00  0.00    -0.387 OA
ATOM     33  H   LIG A   1      -5.881  -3.742 134.436  0.00  0.00    +0.210 HD
ENDBRANCH  25  32
BRANCH  24  34
ATOM     34  C   LIG A   1      -8.209  -2.877 134.005  0.00  0.00    +0.190 C 
BRANCH  34  35
ATOM     35  O   LIG A   1      -7.784  -2.526 135.320  0.00  0.00    -0.392 OA
ATOM     36  H   LIG A   1      -6.824  -2.361 135.248  0.00  0.00    +0.209 HD
ENDBRANCH  34  35
ENDBRANCH  24  34
ENDBRANCH   2  22
BRANCH   1  37
ATOM     37  O   LIG A   1      -7.907   1.497 133.315  0.00  0.00    -0.505 OA
ATOM     38  H   LIG A   1      -6.948   1.282 133.360  0.00  0.00    +0.292 HD
ENDBRANCH   1  37
BRANCH   3  39
ATOM     39  O   LIG A   1      -7.867   0.243 128.699  0.00  0.00    -0.506 OA
ATOM     40  H   LIG A   1      -8.556  -0.436 128.608  0.00  0.00    +0.292 HD
ENDBRANCH   3  39
TORSDOF 11
ENDMDL
MODEL 4
REMARK VINA RESULT:      -7.8      1.175      2.548
REMARK  Name = NuBBE_1243
REMARK  11 active torsions:
REMARK  status: ('A' for Active; 'I' for Inactive)
REMARK    1  A    between atoms: O_1  and  C_2
REMARK    2  A    between atoms: C_3  and  C_22
REMARK    3  A    between atoms: C_4  and  O_5
REMARK    4  A    between atoms: C_12  and  C_14
REMARK    5  A    between atoms: C_16  and  O_17
REMARK    6  A    between atoms: C_18  and  O_21
REMARK    7  A    between atoms: C_25  and  C_27
REMARK    8  A    between atoms: C_27  and  O_28
REMARK    9  A    between atoms: C_29  and  O_37
REMARK   10  A    between atoms: C_31  and  O_36
REMARK   11  A    between atoms: C_33  and  O_35
REMARK                            x       y       z     vdW  Elec       q    Type
REMARK                         _______ _______ _______ _____ _____    ______ ____
ROOT
ATOM      1  C   LIG A   1      -8.888   5.676 130.367  0.00  0.00    +0.140 A 
ATOM      2  C   LIG A   1     -10.186   5.136 130.288  0.00  0.00    +0.067 A 
ATOM      3  C   LIG A   1     -10.360   3.801 130.703  0.00  0.00    +0.130 A 
ATOM      4  C   LIG A   1      -9.293   3.028 131.171  0.00  0.00    +0.093 A 
ATOM      5  C   LIG A   1      -8.019   3.584 131.241  0.00  0.00    +0.146 A 
ATOM      6  C   LIG A   1      -7.816   4.902 130.842  0.00  0.00    +0.106 A 
ATOM      7  C   LIG A   1      -6.454   5.444 130.940  0.00  0.00    +0.197 A 
ATOM      8  O   LIG A   1      -6.199   6.593 130.608  0.00  0.00    -0.287 OA
ATOM      9  C   LIG A   1      -5.411   4.551 131.462  0.00  0.00    +0.098 A 
ATOM     10  C   LIG A   1      -5.734   3.300 131.827  0.00  0.00    +0.139 A 
ATOM     11  O   LIG A   1      -7.015   2.776 131.717  0.00  0.00    -0.454 OA
ENDROOT
BRANCH  10  12
ATOM     12  C   LIG A   1      -4.725   2.360 132.368  0.00  0.00    +0.021 A 
ATOM     13  C   LIG A   1      -4.997   0.981 132.425  0.00  0.00    +0.060 A 
ATOM     14  C   LIG A   1      -4.043   0.105 132.939  0.00  0.00    +0.159 A 
ATOM     15  C   LIG A   1      -2.822   0.584 133.402  0.00  0.00    +0.158 A 
ATOM     16  C   LIG A   1      -2.534   1.936 133.367  0.00  0.00    +0.050 A 
ATOM     17  C   LIG A   1      -3.487   2.822 132.858  0.00  0.00    +0.015 A 
BRANCH  14  18
ATOM     18  O   LIG A   1      -4.259  -1.245 133.007  0.00  0.00    -0.503 OA
ATOM     19  H   LIG A   1      -5.042  -1.458 132.471  0.00  0.00    +0.292 HD
ENDBRANCH  14  18
BRANCH  15  20
ATOM     20  O   LIG A   1      -1.891  -0.281 133.900  0.00  0.00    -0.503 OA
ATOM     21  H   LIG A   1      -1.089  -0.115 133.366  0.00  0.00    +0.292 HD
ENDBRANCH  15  20
ENDBRANCH  10  12
BRANCH   2  22
ATOM     22  C   LIG A   1     -11.352   5.969 129.770  0.00  0.00    +0.187 C 
ATOM     23  O   LIG A   1     -10.942   6.539 128.510  0.00  0.00    -0.361 OA
ATOM     24  C   LIG A   1     -11.938   7.373 127.904  0.00  0.00    +0.175 C 
ATOM     25  C   LIG A   1     -12.241   8.566 128.819  0.00  0.00    +0.176 C 
ATOM     26  C   LIG A   1     -12.771   8.038 130.152  0.00  0.00    +0.177 C 
ATOM     27  C   LIG A   1     -11.805   7.040 130.794  0.00  0.00    +0.179 C 
BRANCH  27  28
ATOM     28  O   LIG A   1     -12.474   6.441 131.918  0.00  0.00    -0.386 OA
ATOM     29  H   LIG A   1     -12.172   5.511 131.927  0.00  0.00    +0.210 HD
ENDBRANCH  27  28
BRANCH  26  30
ATOM     30  O   LIG A   1     -12.998   9.128 131.066  0.00  0.00    -0.387 OA
ATOM     31  H   LIG A   1     -13.295   8.718 131.903  0.00  0.00    +0.210 HD
ENDBRANCH  26  30
BRANCH  25  32
ATOM     32  O   LIG A   1     -13.220   9.461 128.272  0.00  0.00    -0.387 OA
ATOM     33  H   LIG A   1     -14.064   8.985 128.178  0.00  0.00    +0.210 HD
ENDBRANCH  25  32
BRANCH  24  34
ATOM     34  C   LIG A   1     -11.404   7.811 126.534  0.00  0.00    +0.190 C 
BRANCH  34  35
ATOM     35  O   LIG A   1     -10.550   6.814 125.975  0.00  0.00    -0.392 OA
ATOM     36  H   LIG A   1     -11.096   6.006 125.918  0.00  0.00    +0.209 HD
ENDBRANCH  34  35
ENDBRANCH  24  34
ENDBRANCH   2  22
BRANCH   1  37
ATOM     37  O   LIG A   1      -8.700   6.978 129.974  0.00  0.00    -0.505 OA
ATOM     38  H   LIG A   1      -9.502   7.283 129.494  0.00  0.00    +0.292 HD
ENDBRANCH   1  37
BRANCH   3  39
ATOM     39  O   LIG A   1     -11.608   3.240 130.650  0.00  0.00    -0.506 OA
ATOM     40  H   LIG A   1     -12.210   3.829 130.166  0.00  0.00    +0.292 HD
ENDBRANCH   3  39
TORSDOF 11
ENDMDL
MODEL 5
REMARK VINA RESULT:      -7.7      5.725      9.895
REMARK  Name = NuBBE_1243
REMARK  11 active torsions:
REMARK  status: ('A' for Active; 'I' for Inactive)
REMARK    1  A    between atoms: O_1  and  C_2
REMARK    2  A    between atoms: C_3  and  C_22
REMARK    3  A    between atoms: C_4  and  O_5
REMARK    4  A    between atoms: C_12  and  C_14
REMARK    5  A    between atoms: C_16  and  O_17
REMARK    6  A    between atoms: C_18  and  O_21
REMARK    7  A    between atoms: C_25  and  C_27
REMARK    8  A    between atoms: C_27  and  O_28
REMARK    9  A    between atoms: C_29  and  O_37
REMARK   10  A    between atoms: C_31  and  O_36
REMARK   11  A    between atoms: C_33  and  O_35
REMARK                            x       y       z     vdW  Elec       q    Type
REMARK                         _______ _______ _______ _____ _____    ______ ____
ROOT
ATOM      1  C   LIG A   1      -7.127   1.249 127.633  0.00  0.00    +0.140 A 
ATOM      2  C   LIG A   1      -6.029   1.130 128.506  0.00  0.00    +0.067 A 
ATOM      3  C   LIG A   1      -4.785   1.611 128.054  0.00  0.00    +0.130 A 
ATOM      4  C   LIG A   1      -4.630   2.181 126.787  0.00  0.00    +0.093 A 
ATOM      5  C   LIG A   1      -5.730   2.289 125.941  0.00  0.00    +0.146 A 
ATOM      6  C   LIG A   1      -6.974   1.827 126.361  0.00  0.00    +0.106 A 
ATOM      7  C   LIG A   1      -8.105   1.969 125.434  0.00  0.00    +0.197 A 
ATOM      8  O   LIG A   1      -9.228   1.585 125.734  0.00  0.00    -0.287 OA
ATOM      9  C   LIG A   1      -7.835   2.598 124.135  0.00  0.00    +0.098 A 
ATOM     10  C   LIG A   1      -6.591   3.015 123.850  0.00  0.00    +0.139 A 
ATOM     11  O   LIG A   1      -5.515   2.865 124.713  0.00  0.00    -0.454 OA
ENDROOT
BRANCH  10  12
ATOM     12  C   LIG A   1      -6.264   3.665 122.559  0.00  0.00    +0.021 A 
ATOM     13  C   LIG A   1      -5.188   4.568 122.471  0.00  0.00    +0.060 A 
ATOM     14  C   LIG A   1      -4.890   5.176 121.253  0.00  0.00    +0.159 A 
ATOM     15  C   LIG A   1      -5.651   4.902 120.121  0.00  0.00    +0.158 A 
ATOM     16  C   LIG A   1      -6.720   4.026 120.185  0.00  0.00    +0.050 A 
ATOM     17  C   LIG A   1      -7.029   3.416 121.402  0.00  0.00    +0.015 A 
BRANCH  14  18
ATOM     18  O   LIG A   1      -3.849   6.055 121.116  0.00  0.00    -0.503 OA
ATOM     19  H   LIG A   1      -3.035   5.545 120.968  0.00  0.00    +0.292 HD
ENDBRANCH  14  18
BRANCH  15  20
ATOM     20  O   LIG A   1      -5.351   5.499 118.932  0.00  0.00    -0.503 OA
ATOM     21  H   LIG A   1      -4.374   5.542 118.916  0.00  0.00    +0.292 HD
ENDBRANCH  15  20
ENDBRANCH  10  12
BRANCH   2  22
ATOM     22  C   LIG A   1      -6.188   0.501 129.885  0.00  0.00    +0.187 C 
ATOM     23  O   LIG A   1      -6.817  -0.784 129.698  0.00  0.00    -0.361 OA
ATOM     24  C   LIG A   1      -7.052  -1.494 130.921  0.00  0.00    +0.175 C 
ATOM     25  C   LIG A   1      -8.009  -0.690 131.811  0.00  0.00    +0.176 C 
ATOM     26  C   LIG A   1      -7.366   0.660 132.128  0.00  0.00    +0.177 C 
ATOM     27  C   LIG A   1      -6.973   1.417 130.858  0.00  0.00    +0.179 C 
BRANCH  27  28
ATOM     28  O   LIG A   1      -6.190   2.558 131.250  0.00  0.00    -0.386 OA
ATOM     29  H   LIG A   1      -6.815   3.146 131.719  0.00  0.00    +0.210 HD
ENDBRANCH  27  28
BRANCH  26  30
ATOM     30  O   LIG A   1      -8.267   1.473 132.902  0.00  0.00    -0.387 OA
ATOM     31  H   LIG A   1      -9.028   0.898 133.118  0.00  0.00    +0.210 HD
ENDBRANCH  26  30
BRANCH  25  32
ATOM     32  O   LIG A   1      -8.309  -1.345 133.051  0.00  0.00    -0.387 OA
ATOM     33  H   LIG A   1      -8.890  -2.105 132.873  0.00  0.00    +0.210 HD
ENDBRANCH  25  32
BRANCH  24  34
ATOM     34  C   LIG A   1      -7.616  -2.872 130.555  0.00  0.00    +0.190 C 
BRANCH  34  35
ATOM     35  O   LIG A   1      -8.116  -2.882 129.219  0.00  0.00    -0.392 OA
ATOM     36  H   LIG A   1      -8.964  -3.366 129.262  0.00  0.00    +0.209 HD
ENDBRANCH  34  35
ENDBRANCH  24  34
ENDBRANCH   2  22
BRANCH   1  37
ATOM     37  O   LIG A   1      -8.350   0.793 128.059  0.00  0.00    -0.505 OA
ATOM     38  H   LIG A   1      -8.509  -0.096 127.671  0.00  0.00    +0.292 HD
ENDBRANCH   1  37
BRANCH   3  39
ATOM     39  O   LIG A   1      -3.693   1.521 128.875  0.00  0.00    -0.506 OA
ATOM     40  H   LIG A   1      -2.883   1.499 128.341  0.00  0.00    +0.292 HD
ENDBRANCH   3  39
TORSDOF 11
ENDMDL
MODEL 6
REMARK VINA RESULT:      -7.5      5.927      7.354
REMARK  Name = NuBBE_1243
REMARK  11 active torsions:
REMARK  status: ('A' for Active; 'I' for Inactive)
REMARK    1  A    between atoms: O_1  and  C_2
REMARK    2  A    between atoms: C_3  and  C_22
REMARK    3  A    between atoms: C_4  and  O_5
REMARK    4  A    between atoms: C_12  and  C_14
REMARK    5  A    between atoms: C_16  and  O_17
REMARK    6  A    between atoms: C_18  and  O_21
REMARK    7  A    between atoms: C_25  and  C_27
REMARK    8  A    between atoms: C_27  and  O_28
REMARK    9  A    between atoms: C_29  and  O_37
REMARK   10  A    between atoms: C_31  and  O_36
REMARK   11  A    between atoms: C_33  and  O_35
REMARK                            x       y       z     vdW  Elec       q    Type
REMARK                         _______ _______ _______ _____ _____    ______ ____
ROOT
ATOM      1  C   LIG A   1      -7.856  -0.109 127.167  0.00  0.00    +0.140 A 
ATOM      2  C   LIG A   1      -7.636  -0.848 125.990  0.00  0.00    +0.067 A 
ATOM      3  C   LIG A   1      -7.242  -2.194 126.132  0.00  0.00    +0.130 A 
ATOM      4  C   LIG A   1      -7.068  -2.783 127.388  0.00  0.00    +0.093 A 
ATOM      5  C   LIG A   1      -7.293  -2.032 128.538  0.00  0.00    +0.146 A 
ATOM      6  C   LIG A   1      -7.686  -0.701 128.430  0.00  0.00    +0.106 A 
ATOM      7  C   LIG A   1      -7.917   0.047 129.673  0.00  0.00    +0.197 A 
ATOM      8  O   LIG A   1      -8.264   1.220 129.656  0.00  0.00    -0.287 OA
ATOM      9  C   LIG A   1      -7.722  -0.674 130.938  0.00  0.00    +0.098 A 
ATOM     10  C   LIG A   1      -7.352  -1.964 130.911  0.00  0.00    +0.139 A 
ATOM     11  O   LIG A   1      -7.113  -2.670 129.740  0.00  0.00    -0.454 OA
ENDROOT
BRANCH  10  12
ATOM     12  C   LIG A   1      -7.150  -2.742 132.156  0.00  0.00    +0.021 A 
ATOM     13  C   LIG A   1      -7.887  -2.435 133.314  0.00  0.00    +0.060 A 
ATOM     14  C   LIG A   1      -7.688  -3.170 134.481  0.00  0.00    +0.159 A 
ATOM     15  C   LIG A   1      -6.760  -4.207 134.512  0.00  0.00    +0.158 A 
ATOM     16  C   LIG A   1      -6.015  -4.522 133.390  0.00  0.00    +0.050 A 
ATOM     17  C   LIG A   1      -6.205  -3.787 132.218  0.00  0.00    +0.015 A 
BRANCH  14  18
ATOM     18  O   LIG A   1      -8.387  -2.913 135.629  0.00  0.00    -0.503 OA
ATOM     19  H   LIG A   1      -7.921  -2.216 136.122  0.00  0.00    +0.292 HD
ENDBRANCH  14  18
BRANCH  15  20
ATOM     20  O   LIG A   1      -6.573  -4.925 135.657  0.00  0.00    -0.503 OA
ATOM     21  H   LIG A   1      -7.155  -4.496 136.315  0.00  0.00    +0.292 HD
ENDBRANCH  15  20
ENDBRANCH  10  12
BRANCH   2  22
ATOM     22  C   LIG A   1      -7.814  -0.211 124.617  0.00  0.00    +0.187 C 
ATOM     23  O   LIG A   1      -7.428   1.174 124.737  0.00  0.00    -0.361 OA
ATOM     24  C   LIG A   1      -7.563   1.918 123.518  0.00  0.00    +0.175 C 
ATOM     25  C   LIG A   1      -9.034   1.933 123.081  0.00  0.00    +0.176 C 
ATOM     26  C   LIG A   1      -9.490   0.494 122.845  0.00  0.00    +0.177 C 
ATOM     27  C   LIG A   1      -9.254  -0.387 124.074  0.00  0.00    +0.179 C 
BRANCH  27  28
ATOM     28  O   LIG A   1      -9.507  -1.751 123.693  0.00  0.00    -0.386 OA
ATOM     29  H   LIG A   1      -8.647  -2.206 123.792  0.00  0.00    +0.210 HD
ENDBRANCH  27  28
BRANCH  26  30
ATOM     30  O   LIG A   1     -10.887   0.463 122.503  0.00  0.00    -0.387 OA
ATOM     31  H   LIG A   1     -11.260  -0.314 122.967  0.00  0.00    +0.210 HD
ENDBRANCH  26  30
BRANCH  25  32
ATOM     32  O   LIG A   1      -9.254   2.676 121.873  0.00  0.00    -0.387 OA
ATOM     33  H   LIG A   1     -10.147   3.060 121.899  0.00  0.00    +0.210 HD
ENDBRANCH  25  32
BRANCH  24  34
ATOM     34  C   LIG A   1      -7.016   3.328 123.774  0.00  0.00    +0.190 C 
BRANCH  34  35
ATOM     35  O   LIG A   1      -8.054   4.213 124.191  0.00  0.00    -0.392 OA
ATOM     36  H   LIG A   1      -8.546   4.439 123.377  0.00  0.00    +0.209 HD
ENDBRANCH  34  35
ENDBRANCH  24  34
ENDBRANCH   2  22
BRANCH   1  37
ATOM     37  O   LIG A   1      -8.247   1.202 127.048  0.00  0.00    -0.505 OA
ATOM     38  H   LIG A   1      -7.564   1.692 126.539  0.00  0.00    +0.292 HD
ENDBRANCH   1  37
BRANCH   3  39
ATOM     39  O   LIG A   1      -7.025  -2.950 125.012  0.00  0.00    -0.506 OA
ATOM     40  H   LIG A   1      -6.815  -2.370 124.261  0.00  0.00    +0.292 HD
ENDBRANCH   3  39
TORSDOF 11
ENDMDL
MODEL 7
REMARK VINA RESULT:      -7.4      5.400      6.607
REMARK  Name = NuBBE_1243
REMARK  11 active torsions:
REMARK  status: ('A' for Active; 'I' for Inactive)
REMARK    1  A    between atoms: O_1  and  C_2
REMARK    2  A    between atoms: C_3  and  C_22
REMARK    3  A    between atoms: C_4  and  O_5
REMARK    4  A    between atoms: C_12  and  C_14
REMARK    5  A    between atoms: C_16  and  O_17
REMARK    6  A    between atoms: C_18  and  O_21
REMARK    7  A    between atoms: C_25  and  C_27
REMARK    8  A    between atoms: C_27  and  O_28
REMARK    9  A    between atoms: C_29  and  O_37
REMARK   10  A    between atoms: C_31  and  O_36
REMARK   11  A    between atoms: C_33  and  O_35
REMARK                            x       y       z     vdW  Elec       q    Type
REMARK                         _______ _______ _______ _____ _____    ______ ____
ROOT
ATOM      1  C   LIG A   1      -7.628  -0.049 126.730  0.00  0.00    +0.140 A 
ATOM      2  C   LIG A   1      -8.236   1.191 126.999  0.00  0.00    +0.067 A 
ATOM      3  C   LIG A   1      -8.494   1.509 128.347  0.00  0.00    +0.130 A 
ATOM      4  C   LIG A   1      -8.169   0.634 129.387  0.00  0.00    +0.093 A 
ATOM      5  C   LIG A   1      -7.567  -0.587 129.097  0.00  0.00    +0.146 A 
ATOM      6  C   LIG A   1      -7.296  -0.928 127.774  0.00  0.00    +0.106 A 
ATOM      7  C   LIG A   1      -6.654  -2.225 127.521  0.00  0.00    +0.197 A 
ATOM      8  O   LIG A   1      -6.386  -2.592 126.385  0.00  0.00    -0.287 OA
ATOM      9  C   LIG A   1      -6.341  -3.060 128.688  0.00  0.00    +0.098 A 
ATOM     10  C   LIG A   1      -6.641  -2.615 129.918  0.00  0.00    +0.139 A 
ATOM     11  O   LIG A   1      -7.266  -1.399 130.162  0.00  0.00    -0.454 OA
ENDROOT
BRANCH  10  12
ATOM     12  C   LIG A   1      -6.339  -3.410 131.130  0.00  0.00    +0.021 A 
ATOM     13  C   LIG A   1      -6.913  -3.065 132.368  0.00  0.00    +0.060 A 
ATOM     14  C   LIG A   1      -6.620  -3.818 133.504  0.00  0.00    +0.159 A 
ATOM     15  C   LIG A   1      -5.759  -4.908 133.426  0.00  0.00    +0.158 A 
ATOM     16  C   LIG A   1      -5.173  -5.261 132.223  0.00  0.00    +0.050 A 
ATOM     17  C   LIG A   1      -5.458  -4.509 131.081  0.00  0.00    +0.015 A 
BRANCH  14  18
ATOM     18  O   LIG A   1      -7.159  -3.526 134.727  0.00  0.00    -0.503 OA
ATOM     19  H   LIG A   1      -6.700  -4.057 135.400  0.00  0.00    +0.292 HD
ENDBRANCH  14  18
BRANCH  15  20
ATOM     20  O   LIG A   1      -5.479  -5.642 134.541  0.00  0.00    -0.503 OA
ATOM     21  H   LIG A   1      -4.614  -5.306 134.848  0.00  0.00    +0.292 HD
ENDBRANCH  15  20
ENDBRANCH  10  12
BRANCH   2  22
ATOM     22  C   LIG A   1      -8.602   2.148 125.870  0.00  0.00    +0.187 C 
ATOM     23  O   LIG A   1      -9.084   1.346 124.772  0.00  0.00    -0.361 OA
ATOM     24  C   LIG A   1      -9.451   2.112 123.616  0.00  0.00    +0.175 C 
ATOM     25  C   LIG A   1      -8.224   2.858 123.078  0.00  0.00    +0.176 C 
ATOM     26  C   LIG A   1      -7.708   3.802 124.164  0.00  0.00    +0.177 C 
ATOM     27  C   LIG A   1      -7.415   3.061 125.470  0.00  0.00    +0.179 C 
BRANCH  27  28
ATOM     28  O   LIG A   1      -7.147   4.045 126.484  0.00  0.00    -0.386 OA
ATOM     29  H   LIG A   1      -6.622   4.737 126.034  0.00  0.00    +0.210 HD
ENDBRANCH  27  28
BRANCH  26  30
ATOM     30  O   LIG A   1      -6.511   4.467 123.720  0.00  0.00    -0.387 OA
ATOM     31  H   LIG A   1      -6.316   4.105 122.833  0.00  0.00    +0.210 HD
ENDBRANCH  26  30
BRANCH  25  32
ATOM     32  O   LIG A   1      -8.508   3.637 121.907  0.00  0.00    -0.387 OA
ATOM     33  H   LIG A   1      -9.230   3.211 121.413  0.00  0.00    +0.210 HD
ENDBRANCH  25  32
BRANCH  24  34
ATOM     34  C   LIG A   1     -10.042   1.141 122.586  0.00  0.00    +0.190 C 
BRANCH  34  35
ATOM     35  O   LIG A   1     -11.343   0.707 122.979  0.00  0.00    -0.392 OA
ATOM     36  H   LIG A   1     -11.257   0.444 123.916  0.00  0.00    +0.209 HD
ENDBRANCH  34  35
ENDBRANCH  24  34
ENDBRANCH   2  22
BRANCH   1  37
ATOM     37  O   LIG A   1      -7.361  -0.374 125.422  0.00  0.00    -0.505 OA
ATOM     38  H   LIG A   1      -6.500  -0.847 125.382  0.00  0.00    +0.292 HD
ENDBRANCH   1  37
BRANCH   3  39
ATOM     39  O   LIG A   1      -9.078   2.709 128.652  0.00  0.00    -0.506 OA
ATOM     40  H   LIG A   1      -8.411   3.313 129.019  0.00  0.00    +0.292 HD
ENDBRANCH   3  39
TORSDOF 11
ENDMDL
MODEL 8
REMARK VINA RESULT:      -7.3      5.334      7.009
REMARK  Name = NuBBE_1243
REMARK  11 active torsions:
REMARK  status: ('A' for Active; 'I' for Inactive)
REMARK    1  A    between atoms: O_1  and  C_2
REMARK    2  A    between atoms: C_3  and  C_22
REMARK    3  A    between atoms: C_4  and  O_5
REMARK    4  A    between atoms: C_12  and  C_14
REMARK    5  A    between atoms: C_16  and  O_17
REMARK    6  A    between atoms: C_18  and  O_21
REMARK    7  A    between atoms: C_25  and  C_27
REMARK    8  A    between atoms: C_27  and  O_28
REMARK    9  A    between atoms: C_29  and  O_37
REMARK   10  A    between atoms: C_31  and  O_36
REMARK   11  A    between atoms: C_33  and  O_35
REMARK                            x       y       z     vdW  Elec       q    Type
REMARK                         _______ _______ _______ _____ _____    ______ ____
ROOT
ATOM      1  C   LIG A   1      -7.546   3.723 128.391  0.00  0.00    +0.140 A 
ATOM      2  C   LIG A   1      -7.239   2.795 127.379  0.00  0.00    +0.067 A 
ATOM      3  C   LIG A   1      -5.879   2.500 127.160  0.00  0.00    +0.130 A 
ATOM      4  C   LIG A   1      -4.863   3.103 127.908  0.00  0.00    +0.093 A 
ATOM      5  C   LIG A   1      -5.191   4.017 128.904  0.00  0.00    +0.146 A 
ATOM      6  C   LIG A   1      -6.527   4.326 129.147  0.00  0.00    +0.106 A 
ATOM      7  C   LIG A   1      -6.822   5.292 130.214  0.00  0.00    +0.197 A 
ATOM      8  O   LIG A   1      -7.972   5.613 130.484  0.00  0.00    -0.287 OA
ATOM      9  C   LIG A   1      -5.680   5.853 130.949  0.00  0.00    +0.098 A 
ATOM     10  C   LIG A   1      -4.435   5.465 130.629  0.00  0.00    +0.139 A 
ATOM     11  O   LIG A   1      -4.149   4.568 129.609  0.00  0.00    -0.454 OA
ENDROOT
BRANCH  10  12
ATOM     12  C   LIG A   1      -3.248   5.990 131.343  0.00  0.00    +0.021 A 
ATOM     13  C   LIG A   1      -3.199   7.338 131.745  0.00  0.00    +0.060 A 
ATOM     14  C   LIG A   1      -2.076   7.823 132.413  0.00  0.00    +0.159 A 
ATOM     15  C   LIG A   1      -0.999   6.986 132.683  0.00  0.00    +0.158 A 
ATOM     16  C   LIG A   1      -1.018   5.661 132.289  0.00  0.00    +0.050 A 
ATOM     17  C   LIG A   1      -2.137   5.167 131.615  0.00  0.00    +0.015 A 
BRANCH  14  18
ATOM     18  O   LIG A   1      -1.986   9.124 132.830  0.00  0.00    -0.503 OA
ATOM     19  H   LIG A   1      -1.784   9.128 133.781  0.00  0.00    +0.292 HD
ENDBRANCH  14  18
BRANCH  15  20
ATOM     20  O   LIG A   1       0.095   7.468 133.341  0.00  0.00    -0.503 OA
ATOM     21  H   LIG A   1       0.761   6.755 133.268  0.00  0.00    +0.292 HD
ENDBRANCH  15  20
ENDBRANCH  10  12
BRANCH   2  22
ATOM     22  C   LIG A   1      -8.340   2.140 126.553  0.00  0.00    +0.187 C 
ATOM     23  O   LIG A   1      -8.085   0.720 126.553  0.00  0.00    -0.361 OA
ATOM     24  C   LIG A   1      -9.037  -0.036 125.791  0.00  0.00    +0.175 C 
ATOM     25  C   LIG A   1      -8.981   0.395 124.320  0.00  0.00    +0.176 C 
ATOM     26  C   LIG A   1      -9.331   1.880 124.231  0.00  0.00    +0.177 C 
ATOM     27  C   LIG A   1      -8.428   2.733 125.124  0.00  0.00    +0.179 C 
BRANCH  27  28
ATOM     28  O   LIG A   1      -8.962   4.069 125.143  0.00  0.00    -0.386 OA
ATOM     29  H   LIG A   1      -9.529   4.104 125.940  0.00  0.00    +0.210 HD
ENDBRANCH  27  28
BRANCH  26  30
ATOM     30  O   LIG A   1      -9.218   2.339 122.871  0.00  0.00    -0.387 OA
ATOM     31  H   LIG A   1      -8.894   3.261 122.925  0.00  0.00    +0.210 HD
ENDBRANCH  26  30
BRANCH  25  32
ATOM     32  O   LIG A   1      -9.895  -0.331 123.486  0.00  0.00    -0.387 OA
ATOM     33  H   LIG A   1      -9.583  -0.289 122.566  0.00  0.00    +0.210 HD
ENDBRANCH  25  32
BRANCH  24  34
ATOM     34  C   LIG A   1      -8.702  -1.521 125.977  0.00  0.00    +0.190 C 
BRANCH  34  35
ATOM     35  O   LIG A   1      -9.819  -2.343 125.643  0.00  0.00    -0.392 OA
ATOM     36  H   LIG A   1      -9.438  -3.152 125.250  0.00  0.00    +0.209 HD
ENDBRANCH  34  35
ENDBRANCH  24  34
ENDBRANCH   2  22
BRANCH   1  37
ATOM     37  O   LIG A   1      -8.867   4.018 128.625  0.00  0.00    -0.505 OA
ATOM     38  H   LIG A   1      -9.398   3.196 128.526  0.00  0.00    +0.292 HD
ENDBRANCH   1  37
BRANCH   3  39
ATOM     39  O   LIG A   1      -5.537   1.597 126.190  0.00  0.00    -0.506 OA
ATOM     40  H   LIG A   1      -5.365   0.731 126.595  0.00  0.00    +0.292 HD
ENDBRANCH   3  39
TORSDOF 11
ENDMDL
MODEL 9
REMARK VINA RESULT:      -7.3      5.723      7.406
REMARK  Name = NuBBE_1243
REMARK  11 active torsions:
REMARK  status: ('A' for Active; 'I' for Inactive)
REMARK    1  A    between atoms: O_1  and  C_2
REMARK    2  A    between atoms: C_3  and  C_22
REMARK    3  A    between atoms: C_4  and  O_5
REMARK    4  A    between atoms: C_12  and  C_14
REMARK    5  A    between atoms: C_16  and  O_17
REMARK    6  A    between atoms: C_18  and  O_21
REMARK    7  A    between atoms: C_25  and  C_27
REMARK    8  A    between atoms: C_27  and  O_28
REMARK    9  A    between atoms: C_29  and  O_37
REMARK   10  A    between atoms: C_31  and  O_36
REMARK   11  A    between atoms: C_33  and  O_35
REMARK                            x       y       z     vdW  Elec       q    Type
REMARK                         _______ _______ _______ _____ _____    ______ ____
ROOT
ATOM      1  C   LIG A   1      -5.466   3.846 127.331  0.00  0.00    +0.140 A 
ATOM      2  C   LIG A   1      -6.845   3.700 127.569  0.00  0.00    +0.067 A 
ATOM      3  C   LIG A   1      -7.358   4.239 128.765  0.00  0.00    +0.130 A 
ATOM      4  C   LIG A   1      -6.540   4.893 129.691  0.00  0.00    +0.093 A 
ATOM      5  C   LIG A   1      -5.179   5.027 129.433  0.00  0.00    +0.146 A 
ATOM      6  C   LIG A   1      -4.642   4.507 128.258  0.00  0.00    +0.106 A 
ATOM      7  C   LIG A   1      -3.201   4.680 128.029  0.00  0.00    +0.197 A 
ATOM      8  O   LIG A   1      -2.660   4.250 127.020  0.00  0.00    -0.287 OA
ATOM      9  C   LIG A   1      -2.438   5.397 129.059  0.00  0.00    +0.098 A 
ATOM     10  C   LIG A   1      -3.073   5.863 130.146  0.00  0.00    +0.139 A 
ATOM     11  O   LIG A   1      -4.430   5.686 130.377  0.00  0.00    -0.454 OA
ENDROOT
BRANCH  10  12
ATOM     12  C   LIG A   1      -2.355   6.602 131.211  0.00  0.00    +0.021 A 
ATOM     13  C   LIG A   1      -2.816   7.862 131.636  0.00  0.00    +0.060 A 
ATOM     14  C   LIG A   1      -2.131   8.551 132.636  0.00  0.00    +0.159 A 
ATOM     15  C   LIG A   1      -0.991   8.004 133.217  0.00  0.00    +0.158 A 
ATOM     16  C   LIG A   1      -0.512   6.772 132.808  0.00  0.00    +0.050 A 
ATOM     17  C   LIG A   1      -1.189   6.078 131.804  0.00  0.00    +0.015 A 
BRANCH  14  18
ATOM     18  O   LIG A   1      -2.545   9.774 133.088  0.00  0.00    -0.503 OA
ATOM     19  H   LIG A   1      -2.767  10.326 132.318  0.00  0.00    +0.292 HD
ENDBRANCH  14  18
BRANCH  15  20
ATOM     20  O   LIG A   1      -0.329   8.683 134.198  0.00  0.00    -0.503 OA
ATOM     21  H   LIG A   1      -0.884   8.570 134.994  0.00  0.00    +0.292 HD
ENDBRANCH  15  20
ENDBRANCH  10  12
BRANCH   2  22
ATOM     22  C   LIG A   1      -7.743   2.980 126.569  0.00  0.00    +0.187 C 
ATOM     23  O   LIG A   1      -7.177   1.670 126.356  0.00  0.00    -0.361 OA
ATOM     24  C   LIG A   1      -7.909   0.874 125.413  0.00  0.00    +0.175 C 
ATOM     25  C   LIG A   1      -7.900   1.558 124.040  0.00  0.00    +0.176 C 
ATOM     26  C   LIG A   1      -8.570   2.926 124.170  0.00  0.00    +0.177 C 
ATOM     27  C   LIG A   1      -7.912   3.782 125.254  0.00  0.00    +0.179 C 
BRANCH  27  28
ATOM     28  O   LIG A   1      -8.732   4.947 125.453  0.00  0.00    -0.386 OA
ATOM     29  H   LIG A   1      -8.885   4.988 126.418  0.00  0.00    +0.210 HD
ENDBRANCH  27  28
BRANCH  26  30
ATOM     30  O   LIG A   1      -8.516   3.630 122.916  0.00  0.00    -0.387 OA
ATOM     31  H   LIG A   1      -7.628   4.039 122.876  0.00  0.00    +0.210 HD
ENDBRANCH  26  30
BRANCH  25  32
ATOM     32  O   LIG A   1      -8.599   0.811 123.035  0.00  0.00    -0.387 OA
ATOM     33  H   LIG A   1      -8.048   0.768 122.234  0.00  0.00    +0.210 HD
ENDBRANCH  25  32
BRANCH  24  34
ATOM     34  C   LIG A   1      -7.257  -0.514 125.377  0.00  0.00    +0.190 C 
BRANCH  34  35
ATOM     35  O   LIG A   1      -6.452  -0.672 124.210  0.00  0.00    -0.392 OA
ATOM     36  H   LIG A   1      -6.588  -1.596 123.923  0.00  0.00    +0.209 HD
ENDBRANCH  34  35
ENDBRANCH  24  34
ENDBRANCH   2  22
BRANCH   1  37
ATOM     37  O   LIG A   1      -4.948   3.333 126.167  0.00  0.00    -0.505 OA
ATOM     38  H   LIG A   1      -4.929   4.044 125.488  0.00  0.00    +0.292 HD
ENDBRANCH   1  37
BRANCH   3  39
ATOM     39  O   LIG A   1      -8.696   4.125 129.031  0.00  0.00    -0.506 OA
ATOM     40  H   LIG A   1      -9.119   3.576 128.351  0.00  0.00    +0.292 HD
ENDBRANCH   3  39
TORSDOF 11
ENDMDL
