MODEL 1
REMARK VINA RESULT:     -10.0      0.000      0.000
REMARK  Name = NuBBE_1727
REMARK  15 active torsions:
REMARK  status: ('A' for Active; 'I' for Inactive)
REMARK    1  A    between atoms: C_1  and  C_2
REMARK    2  A    between atoms: C_3  and  C_4
REMARK    3  A    between atoms: C_7  and  C_11
REMARK    4  A    between atoms: C_11  and  C_12
REMARK    5  A    between atoms: C_14  and  C_18
REMARK    6  A    between atoms: C_18  and  C_19
REMARK    7  A    between atoms: C_18  and  C_20
REMARK    8  A    between atoms: C_18  and  O_21
REMARK    9  A    between atoms: C_26  and  C_27
REMARK   10  A    between atoms: C_32  and  C_33
REMARK   11  A    between atoms: C_32  and  C_34
REMARK   12  A    between atoms: N_36  and  N_37
REMARK   13  A    between atoms: N_37  and  C_38
REMARK   14  A    between atoms: C_39  and  N_40
REMARK   15  A    between atoms: C_44  and  N_47
REMARK                            x       y       z     vdW  Elec       q    Type
REMARK                         _______ _______ _______ _____ _____    ______ ____
ROOT
ATOM      1  C   LIG A   1      -5.183  -0.224 133.055  0.00  0.00    +0.012 C 
ATOM      2  C   LIG A   1      -6.263   0.397 132.129  0.00  0.00    -0.023 C 
ATOM      3  C   LIG A   1      -6.560   1.934 132.523  0.00  0.00    -0.023 C 
ATOM      4  C   LIG A   1      -7.980   2.385 132.039  0.00  0.00    +0.012 C 
ATOM      5  C   LIG A   1      -5.542   2.962 131.904  0.00  0.00    +0.001 C 
ATOM      6  C   LIG A   1      -5.190   3.985 133.034  0.00  0.00    +0.024 C 
ATOM      7  C   LIG A   1      -6.243   3.743 134.121  0.00  0.00    +0.007 C 
ATOM      8  C   LIG A   1      -6.492   2.243 134.038  0.00  0.00    +0.008 C 
ATOM      9  C   LIG A   1      -4.292   2.348 131.287  0.00  0.00    +0.005 C 
ATOM     10  C   LIG A   1      -4.622   1.261 130.274  0.00  0.00    +0.005 C 
ATOM     11  C   LIG A   1      -5.840   0.367 130.614  0.00  0.00    +0.002 C 
ATOM     12  C   LIG A   1      -5.777  -1.059 129.919  0.00  0.00    -0.025 C 
ATOM     13  C   LIG A   1      -4.570  -1.892 130.420  0.00  0.00    +0.012 C 
ATOM     14  C   LIG A   1      -7.164  -1.766 130.162  0.00  0.00    +0.006 C 
ATOM     15  C   LIG A   1      -7.465  -1.882 131.670  0.00  0.00    +0.005 C 
ATOM     16  C   LIG A   1      -7.535  -0.492 132.318  0.00  0.00    +0.008 C 
ATOM     17  C   LIG A   1      -7.437  -3.067 129.327  0.00  0.00    +0.008 C 
ATOM     18  C   LIG A   1      -6.603  -4.295 129.724  0.00  0.00    +0.017 C 
ATOM     19  C   LIG A   1      -8.924  -3.484 129.488  0.00  0.00    +0.017 C 
ATOM     20  C   LIG A   1      -7.136  -2.712 127.847  0.00  0.00    +0.043 C 
ATOM     21  N   LIG A   1      -8.034  -2.978 126.946  0.00  0.00    -0.191 NA
ATOM     22  C   LIG A   1      -5.776  -2.103 127.563  0.00  0.00    +0.053 C 
ATOM     23  C   LIG A   1      -5.611  -0.838 128.387  0.00  0.00    +0.013 C 
ENDROOT
BRANCH   6  24
ATOM     24  C   LIG A   1      -5.060   5.470 132.593  0.00  0.00    +0.070 C 
ATOM     25  C   LIG A   1      -4.417   6.315 133.710  0.00  0.00    +0.042 C 
ATOM     26  O   LIG A   1      -4.154   5.559 131.466  0.00  0.00    -0.367 OA
ATOM     27  C   LIG A   1      -4.727   6.417 130.451  0.00  0.00    +0.150 C 
ATOM     28  C   LIG A   1      -5.923   7.106 131.099  0.00  0.00    +0.037 C 
ATOM     29  C   LIG A   1      -6.372   6.107 132.133  0.00  0.00    +0.037 C 
BRANCH  27  30
ATOM     30  C   LIG A   1      -3.661   7.391 129.881  0.00  0.00    +0.086 C 
ATOM     31  C   LIG A   1      -3.420   8.585 130.811  0.00  0.00    +0.043 C 
ATOM     32  C   LIG A   1      -2.338   6.668 129.624  0.00  0.00    +0.043 C 
BRANCH  30  33
ATOM     33  O   LIG A   1      -4.109   7.919 128.623  0.00  0.00    -0.387 OA
ATOM     34  H   LIG A   1      -5.030   8.209 128.765  0.00  0.00    +0.210 HD
ENDBRANCH  30  33
ENDBRANCH  27  30
ENDBRANCH   6  24
BRANCH  21  35
ATOM     35  N   LIG A   1      -7.817  -2.635 125.661  0.00  0.00    -0.236 N 
ATOM     36  H   LIG A   1      -7.766  -3.317 124.900  0.00  0.00    +0.174 HD
BRANCH  35  37
ATOM     37  C   LIG A   1      -8.038  -1.310 125.245  0.00  0.00    +0.079 A 
ATOM     38  C   LIG A   1      -7.270  -0.688 124.233  0.00  0.00    +0.151 A 
ATOM     39  C   LIG A   1      -7.509   0.646 123.854  0.00  0.00    +0.067 A 
ATOM     40  C   LIG A   1      -8.519   1.353 124.505  0.00  0.00    +0.129 A 
ATOM     41  C   LIG A   1      -9.283   0.784 125.522  0.00  0.00    +0.035 A 
ATOM     42  C   LIG A   1      -9.024  -0.533 125.894  0.00  0.00    +0.029 A 
BRANCH  38  43
ATOM     43  N   LIG A   1      -6.202  -1.419 123.526  0.00  0.00    +0.058 N 
ATOM     44  O   LIG A   1      -6.285  -1.555 122.303  0.00  0.00    -0.126 OA
ATOM     45  O   LIG A   1      -5.252  -1.842 124.208  0.00  0.00    -0.126 OA
ENDBRANCH  38  43
BRANCH  40  46
ATOM     46  N   LIG A   1      -8.785   2.724 124.120  0.00  0.00    +0.057 N 
ATOM     47  O   LIG A   1      -8.868   2.954 122.903  0.00  0.00    -0.126 OA
ATOM     48  O   LIG A   1      -8.914   3.548 125.026  0.00  0.00    -0.126 OA
ENDBRANCH  40  46
ENDBRANCH  35  37
ENDBRANCH  21  35
TORSDOF 7
ENDMDL
MODEL 2
REMARK VINA RESULT:      -9.9      6.894     12.413
REMARK  Name = NuBBE_1727
REMARK  15 active torsions:
REMARK  status: ('A' for Active; 'I' for Inactive)
REMARK    1  A    between atoms: C_1  and  C_2
REMARK    2  A    between atoms: C_3  and  C_4
REMARK    3  A    between atoms: C_7  and  C_11
REMARK    4  A    between atoms: C_11  and  C_12
REMARK    5  A    between atoms: C_14  and  C_18
REMARK    6  A    between atoms: C_18  and  C_19
REMARK    7  A    between atoms: C_18  and  C_20
REMARK    8  A    between atoms: C_18  and  O_21
REMARK    9  A    between atoms: C_26  and  C_27
REMARK   10  A    between atoms: C_32  and  C_33
REMARK   11  A    between atoms: C_32  and  C_34
REMARK   12  A    between atoms: N_36  and  N_37
REMARK   13  A    between atoms: N_37  and  C_38
REMARK   14  A    between atoms: C_39  and  N_40
REMARK   15  A    between atoms: C_44  and  N_47
REMARK                            x       y       z     vdW  Elec       q    Type
REMARK                         _______ _______ _______ _____ _____    ______ ____
ROOT
ATOM      1  C   LIG A   1      -1.009   6.443 132.076  0.00  0.00    +0.012 C 
ATOM      2  C   LIG A   1      -2.414   7.088 131.937  0.00  0.00    -0.023 C 
ATOM      3  C   LIG A   1      -3.022   6.859 130.460  0.00  0.00    -0.023 C 
ATOM      4  C   LIG A   1      -4.101   7.940 130.110  0.00  0.00    +0.012 C 
ATOM      5  C   LIG A   1      -3.723   5.464 130.266  0.00  0.00    +0.001 C 
ATOM      6  C   LIG A   1      -3.273   4.921 128.870  0.00  0.00    +0.024 C 
ATOM      7  C   LIG A   1      -2.635   6.128 128.170  0.00  0.00    +0.007 C 
ATOM      8  C   LIG A   1      -1.981   6.889 129.315  0.00  0.00    +0.008 C 
ATOM      9  C   LIG A   1      -3.474   4.451 131.375  0.00  0.00    +0.005 C 
ATOM     10  C   LIG A   1      -3.793   5.011 132.753  0.00  0.00    +0.005 C 
ATOM     11  C   LIG A   1      -3.445   6.504 132.972  0.00  0.00    +0.002 C 
ATOM     12  C   LIG A   1      -3.207   6.869 134.500  0.00  0.00    -0.025 C 
ATOM     13  C   LIG A   1      -1.980   6.125 135.086  0.00  0.00    +0.012 C 
ATOM     14  C   LIG A   1      -3.090   8.436 134.599  0.00  0.00    +0.006 C 
ATOM     15  C   LIG A   1      -1.947   8.960 133.706  0.00  0.00    +0.005 C 
ATOM     16  C   LIG A   1      -2.205   8.609 132.234  0.00  0.00    +0.008 C 
ATOM     17  C   LIG A   1      -3.137   9.046 136.045  0.00  0.00    +0.008 C 
ATOM     18  C   LIG A   1      -1.902   8.776 136.917  0.00  0.00    +0.017 C 
ATOM     19  C   LIG A   1      -3.271  10.591 135.952  0.00  0.00    +0.017 C 
ATOM     20  C   LIG A   1      -4.386   8.440 136.739  0.00  0.00    +0.043 C 
ATOM     21  N   LIG A   1      -5.239   9.243 137.302  0.00  0.00    -0.191 NA
ATOM     22  C   LIG A   1      -4.491   6.927 136.732  0.00  0.00    +0.053 C 
ATOM     23  C   LIG A   1      -4.469   6.428 135.298  0.00  0.00    +0.013 C 
ENDROOT
BRANCH   6  24
ATOM     24  C   LIG A   1      -4.367   4.204 128.030  0.00  0.00    +0.070 C 
ATOM     25  C   LIG A   1      -5.691   4.129 128.814  0.00  0.00    +0.042 C 
ATOM     26  O   LIG A   1      -4.657   4.990 126.848  0.00  0.00    -0.367 OA
ATOM     27  C   LIG A   1      -4.706   4.123 125.691  0.00  0.00    +0.150 C 
ATOM     28  C   LIG A   1      -4.713   2.695 126.225  0.00  0.00    +0.037 C 
ATOM     29  C   LIG A   1      -3.966   2.816 127.528  0.00  0.00    +0.037 C 
BRANCH  27  30
ATOM     30  C   LIG A   1      -5.918   4.472 124.786  0.00  0.00    +0.086 C 
ATOM     31  C   LIG A   1      -5.597   4.286 123.299  0.00  0.00    +0.043 C 
ATOM     32  C   LIG A   1      -7.139   3.627 125.155  0.00  0.00    +0.043 C 
BRANCH  30  33
ATOM     33  O   LIG A   1      -6.283   5.848 124.970  0.00  0.00    -0.387 OA
ATOM     34  H   LIG A   1      -5.667   6.202 125.639  0.00  0.00    +0.210 HD
ENDBRANCH  30  33
ENDBRANCH  27  30
ENDBRANCH   6  24
BRANCH  21  35
ATOM     35  N   LIG A   1      -6.355   8.745 137.868  0.00  0.00    -0.236 N 
ATOM     36  H   LIG A   1      -6.467   7.759 138.116  0.00  0.00    +0.174 HD
BRANCH  35  37
ATOM     37  C   LIG A   1      -7.264   9.613 138.500  0.00  0.00    +0.079 A 
ATOM     38  C   LIG A   1      -8.666   9.473 138.376  0.00  0.00    +0.151 A 
ATOM     39  C   LIG A   1      -9.545  10.371 139.010  0.00  0.00    +0.067 A 
ATOM     40  C   LIG A   1      -9.006  11.415 139.761  0.00  0.00    +0.129 A 
ATOM     41  C   LIG A   1      -7.631  11.600 139.889  0.00  0.00    +0.035 A 
ATOM     42  C   LIG A   1      -6.775  10.710 139.244  0.00  0.00    +0.029 A 
BRANCH  38  43
ATOM     43  N   LIG A   1      -9.259   8.373 137.594  0.00  0.00    +0.058 N 
ATOM     44  O   LIG A   1      -8.970   7.211 137.891  0.00  0.00    -0.126 OA
ATOM     45  O   LIG A   1     -10.046   8.681 136.682  0.00  0.00    -0.126 OA
ENDBRANCH  38  43
BRANCH  40  46
ATOM     46  N   LIG A   1      -9.897  12.342 140.428  0.00  0.00    +0.057 N 
ATOM     47  O   LIG A   1     -10.026  12.204 141.654  0.00  0.00    -0.126 OA
ATOM     48  O   LIG A   1     -10.447  13.194 139.730  0.00  0.00    -0.126 OA
ENDBRANCH  40  46
ENDBRANCH  35  37
ENDBRANCH  21  35
TORSDOF 7
ENDMDL
MODEL 3
REMARK VINA RESULT:      -9.9      2.518      4.097
REMARK  Name = NuBBE_1727
REMARK  15 active torsions:
REMARK  status: ('A' for Active; 'I' for Inactive)
REMARK    1  A    between atoms: C_1  and  C_2
REMARK    2  A    between atoms: C_3  and  C_4
REMARK    3  A    between atoms: C_7  and  C_11
REMARK    4  A    between atoms: C_11  and  C_12
REMARK    5  A    between atoms: C_14  and  C_18
REMARK    6  A    between atoms: C_18  and  C_19
REMARK    7  A    between atoms: C_18  and  C_20
REMARK    8  A    between atoms: C_18  and  O_21
REMARK    9  A    between atoms: C_26  and  C_27
REMARK   10  A    between atoms: C_32  and  C_33
REMARK   11  A    between atoms: C_32  and  C_34
REMARK   12  A    between atoms: N_36  and  N_37
REMARK   13  A    between atoms: N_37  and  C_38
REMARK   14  A    between atoms: C_39  and  N_40
REMARK   15  A    between atoms: C_44  and  N_47
REMARK                            x       y       z     vdW  Elec       q    Type
REMARK                         _______ _______ _______ _____ _____    ______ ____
ROOT
ATOM      1  C   LIG A   1      -6.009  -3.457 129.986  0.00  0.00    +0.012 C 
ATOM      2  C   LIG A   1      -6.967  -2.270 129.698  0.00  0.00    -0.023 C 
ATOM      3  C   LIG A   1      -7.249  -1.405 131.031  0.00  0.00    -0.023 C 
ATOM      4  C   LIG A   1      -8.596  -0.613 130.927  0.00  0.00    +0.012 C 
ATOM      5  C   LIG A   1      -6.137  -0.338 131.349  0.00  0.00    +0.001 C 
ATOM      6  C   LIG A   1      -5.867  -0.411 132.888  0.00  0.00    +0.024 C 
ATOM      7  C   LIG A   1      -7.033  -1.231 133.451  0.00  0.00    +0.007 C 
ATOM      8  C   LIG A   1      -7.325  -2.231 132.339  0.00  0.00    +0.008 C 
ATOM      9  C   LIG A   1      -4.854  -0.475 130.541  0.00  0.00    +0.005 C 
ATOM     10  C   LIG A   1      -5.116  -0.530 129.044  0.00  0.00    +0.005 C 
ATOM     11  C   LIG A   1      -6.394  -1.290 128.608  0.00  0.00    +0.002 C 
ATOM     12  C   LIG A   1      -6.310  -1.846 127.123  0.00  0.00    -0.025 C 
ATOM     13  C   LIG A   1      -5.189  -2.905 126.965  0.00  0.00    +0.012 C 
ATOM     14  C   LIG A   1      -7.738  -2.389 126.739  0.00  0.00    +0.006 C 
ATOM     15  C   LIG A   1      -8.194  -3.480 127.729  0.00  0.00    +0.005 C 
ATOM     16  C   LIG A   1      -8.282  -2.918 129.155  0.00  0.00    +0.008 C 
ATOM     17  C   LIG A   1      -7.969  -2.726 125.224  0.00  0.00    +0.008 C 
ATOM     18  C   LIG A   1      -7.224  -3.962 124.700  0.00  0.00    +0.017 C 
ATOM     19  C   LIG A   1      -9.479  -2.994 124.978  0.00  0.00    +0.017 C 
ATOM     20  C   LIG A   1      -7.507  -1.481 124.420  0.00  0.00    +0.043 C 
ATOM     21  N   LIG A   1      -8.318  -0.968 123.544  0.00  0.00    -0.191 NA
ATOM     22  C   LIG A   1      -6.106  -0.978 124.706  0.00  0.00    +0.053 C 
ATOM     23  C   LIG A   1      -5.981  -0.649 126.183  0.00  0.00    +0.013 C 
ENDROOT
BRANCH   6  24
ATOM     24  C   LIG A   1      -5.641   0.949 133.607  0.00  0.00    +0.070 C 
ATOM     25  C   LIG A   1      -5.163   0.726 135.054  0.00  0.00    +0.042 C 
ATOM     26  O   LIG A   1      -4.570   1.668 132.948  0.00  0.00    -0.367 OA
ATOM     27  C   LIG A   1      -4.961   3.047 132.753  0.00  0.00    +0.150 C 
ATOM     28  C   LIG A   1      -6.230   3.253 133.574  0.00  0.00    +0.037 C 
ATOM     29  C   LIG A   1      -6.854   1.882 133.584  0.00  0.00    +0.037 C 
BRANCH  27  30
ATOM     30  C   LIG A   1      -3.801   4.011 133.120  0.00  0.00    +0.086 C 
ATOM     31  C   LIG A   1      -3.926   4.541 134.553  0.00  0.00    +0.043 C 
ATOM     32  C   LIG A   1      -2.444   3.328 132.944  0.00  0.00    +0.043 C 
BRANCH  30  33
ATOM     33  O   LIG A   1      -3.820   5.150 132.246  0.00  0.00    -0.387 OA
ATOM     34  H   LIG A   1      -4.271   5.861 132.740  0.00  0.00    +0.210 HD
ENDBRANCH  30  33
ENDBRANCH  27  30
ENDBRANCH   6  24
BRANCH  21  35
ATOM     35  N   LIG A   1      -7.960   0.141 122.868  0.00  0.00    -0.236 N 
ATOM     36  H   LIG A   1      -8.000   0.214 121.848  0.00  0.00    +0.174 HD
BRANCH  35  37
ATOM     37  C   LIG A   1      -7.885   1.375 123.540  0.00  0.00    +0.079 A 
ATOM     38  C   LIG A   1      -8.936   1.869 124.349  0.00  0.00    +0.151 A 
ATOM     39  C   LIG A   1      -8.833   3.116 124.993  0.00  0.00    +0.067 A 
ATOM     40  C   LIG A   1      -7.671   3.866 124.812  0.00  0.00    +0.129 A 
ATOM     41  C   LIG A   1      -6.625   3.425 124.006  0.00  0.00    +0.035 A 
ATOM     42  C   LIG A   1      -6.749   2.194 123.364  0.00  0.00    +0.029 A 
BRANCH  38  43
ATOM     43  N   LIG A   1     -10.169   1.090 124.560  0.00  0.00    +0.058 N 
ATOM     44  O   LIG A   1     -11.030   1.088 123.676  0.00  0.00    -0.126 OA
ATOM     45  O   LIG A   1     -10.264   0.449 125.621  0.00  0.00    -0.126 OA
ENDBRANCH  38  43
BRANCH  40  46
ATOM     46  N   LIG A   1      -7.545   5.147 125.476  0.00  0.00    +0.057 N 
ATOM     47  O   LIG A   1      -6.401   5.620 125.559  0.00  0.00    -0.126 OA
ATOM     48  O   LIG A   1      -8.579   5.667 125.897  0.00  0.00    -0.126 OA
ENDBRANCH  40  46
ENDBRANCH  35  37
ENDBRANCH  21  35
TORSDOF 7
ENDMDL
MODEL 4
REMARK VINA RESULT:      -9.6      4.078      6.094
REMARK  Name = NuBBE_1727
REMARK  15 active torsions:
REMARK  status: ('A' for Active; 'I' for Inactive)
REMARK    1  A    between atoms: C_1  and  C_2
REMARK    2  A    between atoms: C_3  and  C_4
REMARK    3  A    between atoms: C_7  and  C_11
REMARK    4  A    between atoms: C_11  and  C_12
REMARK    5  A    between atoms: C_14  and  C_18
REMARK    6  A    between atoms: C_18  and  C_19
REMARK    7  A    between atoms: C_18  and  C_20
REMARK    8  A    between atoms: C_18  and  O_21
REMARK    9  A    between atoms: C_26  and  C_27
REMARK   10  A    between atoms: C_32  and  C_33
REMARK   11  A    between atoms: C_32  and  C_34
REMARK   12  A    between atoms: N_36  and  N_37
REMARK   13  A    between atoms: N_37  and  C_38
REMARK   14  A    between atoms: C_39  and  N_40
REMARK   15  A    between atoms: C_44  and  N_47
REMARK                            x       y       z     vdW  Elec       q    Type
REMARK                         _______ _______ _______ _____ _____    ______ ____
ROOT
ATOM      1  C   LIG A   1      -5.635   4.592 133.336  0.00  0.00    +0.012 C 
ATOM      2  C   LIG A   1      -6.596   3.428 132.975  0.00  0.00    -0.023 C 
ATOM      3  C   LIG A   1      -8.091   3.967 132.694  0.00  0.00    -0.023 C 
ATOM      4  C   LIG A   1      -9.157   2.839 132.907  0.00  0.00    +0.012 C 
ATOM      5  C   LIG A   1      -8.313   4.508 131.234  0.00  0.00    +0.001 C 
ATOM      6  C   LIG A   1      -9.139   5.830 131.361  0.00  0.00    +0.024 C 
ATOM      7  C   LIG A   1      -9.658   5.828 132.804  0.00  0.00    +0.007 C 
ATOM      8  C   LIG A   1      -8.530   5.160 133.579  0.00  0.00    +0.008 C 
ATOM      9  C   LIG A   1      -7.045   4.710 130.416  0.00  0.00    +0.005 C 
ATOM     10  C   LIG A   1      -6.170   3.465 130.387  0.00  0.00    +0.005 C 
ATOM     11  C   LIG A   1      -6.127   2.640 131.697  0.00  0.00    +0.002 C 
ATOM     12  C   LIG A   1      -4.805   1.770 131.840  0.00  0.00    -0.025 C 
ATOM     13  C   LIG A   1      -3.538   2.658 131.933  0.00  0.00    +0.012 C 
ATOM     14  C   LIG A   1      -4.994   0.824 133.084  0.00  0.00    +0.006 C 
ATOM     15  C   LIG A   1      -5.276   1.643 134.360  0.00  0.00    +0.005 C 
ATOM     16  C   LIG A   1      -6.563   2.464 134.205  0.00  0.00    +0.008 C 
ATOM     17  C   LIG A   1      -3.936  -0.325 133.251  0.00  0.00    +0.008 C 
ATOM     18  C   LIG A   1      -2.526   0.129 133.656  0.00  0.00    +0.017 C 
ATOM     19  C   LIG A   1      -4.408  -1.307 134.357  0.00  0.00    +0.017 C 
ATOM     20  C   LIG A   1      -3.858  -1.053 131.883  0.00  0.00    +0.043 C 
ATOM     21  N   LIG A   1      -3.987  -2.346 131.856  0.00  0.00    -0.191 NA
ATOM     22  C   LIG A   1      -3.597  -0.181 130.670  0.00  0.00    +0.053 C 
ATOM     23  C   LIG A   1      -4.680   0.879 130.570  0.00  0.00    +0.013 C 
ENDROOT
BRANCH   6  24
ATOM     24  C   LIG A   1     -10.243   6.052 130.289  0.00  0.00    +0.070 C 
ATOM     25  C   LIG A   1     -11.262   4.897 130.312  0.00  0.00    +0.042 C 
ATOM     26  O   LIG A   1     -10.997   7.245 130.616  0.00  0.00    -0.367 OA
ATOM     27  C   LIG A   1     -11.171   8.048 129.425  0.00  0.00    +0.150 C 
ATOM     28  C   LIG A   1     -10.735   7.176 128.253  0.00  0.00    +0.037 C 
ATOM     29  C   LIG A   1      -9.709   6.263 128.871  0.00  0.00    +0.037 C 
BRANCH  27  30
ATOM     30  C   LIG A   1     -12.626   8.577 129.320  0.00  0.00    +0.086 C 
ATOM     31  C   LIG A   1     -13.518   7.644 128.494  0.00  0.00    +0.043 C 
ATOM     32  C   LIG A   1     -13.240   8.775 130.707  0.00  0.00    +0.043 C 
BRANCH  30  33
ATOM     33  O   LIG A   1     -12.633   9.856 128.666  0.00  0.00    -0.387 OA
ATOM     34  H   LIG A   1     -11.728  10.209 128.758  0.00  0.00    +0.210 HD
ENDBRANCH  30  33
ENDBRANCH  27  30
ENDBRANCH   6  24
BRANCH  21  35
ATOM     35  N   LIG A   1      -3.971  -2.997 130.677  0.00  0.00    -0.236 N 
ATOM     36  H   LIG A   1      -3.331  -3.768 130.470  0.00  0.00    +0.174 HD
BRANCH  35  37
ATOM     37  C   LIG A   1      -5.083  -2.914 129.818  0.00  0.00    +0.079 A 
ATOM     38  C   LIG A   1      -6.388  -3.283 130.220  0.00  0.00    +0.151 A 
ATOM     39  C   LIG A   1      -7.474  -3.203 129.329  0.00  0.00    +0.067 A 
ATOM     40  C   LIG A   1      -7.238  -2.756 128.029  0.00  0.00    +0.129 A 
ATOM     41  C   LIG A   1      -5.964  -2.404 127.588  0.00  0.00    +0.035 A 
ATOM     42  C   LIG A   1      -4.898  -2.503 128.480  0.00  0.00    +0.029 A 
BRANCH  38  43
ATOM     43  N   LIG A   1      -6.662  -3.750 131.591  0.00  0.00    +0.058 N 
ATOM     44  O   LIG A   1      -7.468  -3.122 132.283  0.00  0.00    -0.126 OA
ATOM     45  O   LIG A   1      -6.077  -4.778 131.972  0.00  0.00    -0.126 OA
ENDBRANCH  38  43
BRANCH  40  46
ATOM     46  N   LIG A   1      -8.346  -2.658 127.102  0.00  0.00    +0.057 N 
ATOM     47  O   LIG A   1      -9.003  -3.693 126.908  0.00  0.00    -0.126 OA
ATOM     48  O   LIG A   1      -8.554  -1.558 126.588  0.00  0.00    -0.126 OA
ENDBRANCH  40  46
ENDBRANCH  35  37
ENDBRANCH  21  35
TORSDOF 7
ENDMDL
MODEL 5
REMARK VINA RESULT:      -9.6      5.253      9.112
REMARK  Name = NuBBE_1727
REMARK  15 active torsions:
REMARK  status: ('A' for Active; 'I' for Inactive)
REMARK    1  A    between atoms: C_1  and  C_2
REMARK    2  A    between atoms: C_3  and  C_4
REMARK    3  A    between atoms: C_7  and  C_11
REMARK    4  A    between atoms: C_11  and  C_12
REMARK    5  A    between atoms: C_14  and  C_18
REMARK    6  A    between atoms: C_18  and  C_19
REMARK    7  A    between atoms: C_18  and  C_20
REMARK    8  A    between atoms: C_18  and  O_21
REMARK    9  A    between atoms: C_26  and  C_27
REMARK   10  A    between atoms: C_32  and  C_33
REMARK   11  A    between atoms: C_32  and  C_34
REMARK   12  A    between atoms: N_36  and  N_37
REMARK   13  A    between atoms: N_37  and  C_38
REMARK   14  A    between atoms: C_39  and  N_40
REMARK   15  A    between atoms: C_44  and  N_47
REMARK                            x       y       z     vdW  Elec       q    Type
REMARK                         _______ _______ _______ _____ _____    ______ ____
ROOT
ATOM      1  C   LIG A   1      -4.319  -1.033 131.235  0.00  0.00    +0.012 C 
ATOM      2  C   LIG A   1      -5.853  -1.268 131.283  0.00  0.00    -0.023 C 
ATOM      3  C   LIG A   1      -6.210  -2.678 131.983  0.00  0.00    -0.023 C 
ATOM      4  C   LIG A   1      -7.619  -3.198 131.538  0.00  0.00    +0.012 C 
ATOM      5  C   LIG A   1      -6.240  -2.623 133.555  0.00  0.00    +0.001 C 
ATOM      6  C   LIG A   1      -5.512  -3.910 134.067  0.00  0.00    +0.024 C 
ATOM      7  C   LIG A   1      -5.401  -4.812 132.832  0.00  0.00    +0.007 C 
ATOM      8  C   LIG A   1      -5.206  -3.821 131.692  0.00  0.00    +0.008 C 
ATOM      9  C   LIG A   1      -5.658  -1.360 134.173  0.00  0.00    +0.005 C 
ATOM     10  C   LIG A   1      -6.272  -0.095 133.592  0.00  0.00    +0.005 C 
ATOM     11  C   LIG A   1      -6.605  -0.138 132.080  0.00  0.00    +0.002 C 
ATOM     12  C   LIG A   1      -6.643   1.302 131.411  0.00  0.00    -0.025 C 
ATOM     13  C   LIG A   1      -5.258   1.995 131.455  0.00  0.00    +0.012 C 
ATOM     14  C   LIG A   1      -7.207   1.130 129.951  0.00  0.00    +0.006 C 
ATOM     15  C   LIG A   1      -6.338   0.150 129.138  0.00  0.00    +0.005 C 
ATOM     16  C   LIG A   1      -6.326  -1.238 129.794  0.00  0.00    +0.008 C 
ATOM     17  C   LIG A   1      -7.602   2.451 129.198  0.00  0.00    +0.008 C 
ATOM     18  C   LIG A   1      -6.428   3.345 128.771  0.00  0.00    +0.017 C 
ATOM     19  C   LIG A   1      -8.370   2.095 127.896  0.00  0.00    +0.017 C 
ATOM     20  C   LIG A   1      -8.519   3.250 130.162  0.00  0.00    +0.043 C 
ATOM     21  N   LIG A   1      -9.666   3.674 129.723  0.00  0.00    -0.191 NA
ATOM     22  C   LIG A   1      -7.974   3.504 131.554  0.00  0.00    +0.053 C 
ATOM     23  C   LIG A   1      -7.648   2.176 132.217  0.00  0.00    +0.013 C 
ENDROOT
BRANCH   6  24
ATOM     24  C   LIG A   1      -6.143  -4.604 135.306  0.00  0.00    +0.070 C 
ATOM     25  C   LIG A   1      -5.335  -4.284 136.578  0.00  0.00    +0.042 C 
ATOM     26  O   LIG A   1      -7.467  -4.062 135.538  0.00  0.00    -0.367 OA
ATOM     27  C   LIG A   1      -8.395  -5.144 135.789  0.00  0.00    +0.150 C 
ATOM     28  C   LIG A   1      -7.549  -6.396 135.988  0.00  0.00    +0.037 C 
ATOM     29  C   LIG A   1      -6.324  -6.116 135.157  0.00  0.00    +0.037 C 
BRANCH  27  30
ATOM     30  C   LIG A   1      -9.329  -4.808 136.982  0.00  0.00    +0.086 C 
ATOM     31  C   LIG A   1     -10.554  -5.729 137.028  0.00  0.00    +0.043 C 
ATOM     32  C   LIG A   1      -8.575  -4.894 138.310  0.00  0.00    +0.043 C 
BRANCH  30  33
ATOM     33  O   LIG A   1      -9.817  -3.464 136.855  0.00  0.00    -0.387 OA
ATOM     34  H   LIG A   1      -9.128  -2.973 136.369  0.00  0.00    +0.210 HD
ENDBRANCH  30  33
ENDBRANCH  27  30
ENDBRANCH   6  24
BRANCH  21  35
ATOM     35  N   LIG A   1     -10.501   4.328 130.554  0.00  0.00    -0.236 N 
ATOM     36  H   LIG A   1     -10.515   4.181 131.566  0.00  0.00    +0.174 HD
BRANCH  35  37
ATOM     37  C   LIG A   1     -11.119   5.518 130.128  0.00  0.00    +0.079 A 
ATOM     38  C   LIG A   1     -10.534   6.793 130.316  0.00  0.00    +0.151 A 
ATOM     39  C   LIG A   1     -11.190   7.963 129.892  0.00  0.00    +0.067 A 
ATOM     40  C   LIG A   1     -12.440   7.845 129.286  0.00  0.00    +0.129 A 
ATOM     41  C   LIG A   1     -13.059   6.611 129.104  0.00  0.00    +0.035 A 
ATOM     42  C   LIG A   1     -12.403   5.463 129.542  0.00  0.00    +0.029 A 
BRANCH  38  43
ATOM     43  N   LIG A   1      -9.210   6.941 130.946  0.00  0.00    +0.058 N 
ATOM     44  O   LIG A   1      -8.272   7.365 130.265  0.00  0.00    -0.126 OA
ATOM     45  O   LIG A   1      -9.115   6.649 132.151  0.00  0.00    -0.126 OA
ENDBRANCH  38  43
BRANCH  40  46
ATOM     46  N   LIG A   1     -13.124   9.040 128.834  0.00  0.00    +0.057 N 
ATOM     47  O   LIG A   1     -13.887   8.910 127.865  0.00  0.00    -0.126 OA
ATOM     48  O   LIG A   1     -12.900  10.082 129.450  0.00  0.00    -0.126 OA
ENDBRANCH  40  46
ENDBRANCH  35  37
ENDBRANCH  21  35
TORSDOF 7
ENDMDL
MODEL 6
REMARK VINA RESULT:      -9.6      3.531      5.329
REMARK  Name = NuBBE_1727
REMARK  15 active torsions:
REMARK  status: ('A' for Active; 'I' for Inactive)
REMARK    1  A    between atoms: C_1  and  C_2
REMARK    2  A    between atoms: C_3  and  C_4
REMARK    3  A    between atoms: C_7  and  C_11
REMARK    4  A    between atoms: C_11  and  C_12
REMARK    5  A    between atoms: C_14  and  C_18
REMARK    6  A    between atoms: C_18  and  C_19
REMARK    7  A    between atoms: C_18  and  C_20
REMARK    8  A    between atoms: C_18  and  O_21
REMARK    9  A    between atoms: C_26  and  C_27
REMARK   10  A    between atoms: C_32  and  C_33
REMARK   11  A    between atoms: C_32  and  C_34
REMARK   12  A    between atoms: N_36  and  N_37
REMARK   13  A    between atoms: N_37  and  C_38
REMARK   14  A    between atoms: C_39  and  N_40
REMARK   15  A    between atoms: C_44  and  N_47
REMARK                            x       y       z     vdW  Elec       q    Type
REMARK                         _______ _______ _______ _____ _____    ______ ____
ROOT
ATOM      1  C   LIG A   1      -5.794  -4.203 130.234  0.00  0.00    +0.012 C 
ATOM      2  C   LIG A   1      -6.502  -2.830 130.384  0.00  0.00    -0.023 C 
ATOM      3  C   LIG A   1      -6.601  -2.386 131.933  0.00  0.00    -0.023 C 
ATOM      4  C   LIG A   1      -7.767  -1.366 132.163  0.00  0.00    +0.012 C 
ATOM      5  C   LIG A   1      -5.300  -1.695 132.485  0.00  0.00    +0.001 C 
ATOM      6  C   LIG A   1      -5.040  -2.291 133.907  0.00  0.00    +0.024 C 
ATOM      7  C   LIG A   1      -6.341  -3.016 134.270  0.00  0.00    +0.007 C 
ATOM      8  C   LIG A   1      -6.830  -3.549 132.930  0.00  0.00    +0.008 C 
ATOM      9  C   LIG A   1      -4.074  -1.809 131.590  0.00  0.00    +0.005 C 
ATOM     10  C   LIG A   1      -4.350  -1.345 130.167  0.00  0.00    +0.005 C 
ATOM     11  C   LIG A   1      -5.755  -1.684 129.607  0.00  0.00    +0.002 C 
ATOM     12  C   LIG A   1      -5.791  -1.755 128.021  0.00  0.00    -0.025 C 
ATOM     13  C   LIG A   1      -4.901  -2.901 127.475  0.00  0.00    +0.012 C 
ATOM     14  C   LIG A   1      -7.299  -1.879 127.587  0.00  0.00    +0.006 C 
ATOM     15  C   LIG A   1      -7.955  -3.120 128.227  0.00  0.00    +0.005 C 
ATOM     16  C   LIG A   1      -7.922  -3.023 129.758  0.00  0.00    +0.008 C 
ATOM     17  C   LIG A   1      -7.602  -1.679 126.059  0.00  0.00    +0.008 C 
ATOM     18  C   LIG A   1      -7.117  -2.807 125.136  0.00  0.00    +0.017 C 
ATOM     19  C   LIG A   1      -9.136  -1.574 125.845  0.00  0.00    +0.017 C 
ATOM     20  C   LIG A   1      -6.909  -0.354 125.643  0.00  0.00    +0.043 C 
ATOM     21  N   LIG A   1      -7.609   0.547 125.020  0.00  0.00    -0.191 NA
ATOM     22  C   LIG A   1      -5.434  -0.232 125.974  0.00  0.00    +0.053 C 
ATOM     23  C   LIG A   1      -5.238  -0.408 127.469  0.00  0.00    +0.013 C 
ENDROOT
BRANCH   6  24
ATOM     24  C   LIG A   1      -4.547  -1.289 134.988  0.00  0.00    +0.070 C 
ATOM     25  C   LIG A   1      -3.081  -1.572 135.366  0.00  0.00    +0.042 C 
ATOM     26  O   LIG A   1      -4.557   0.052 134.439  0.00  0.00    -0.367 OA
ATOM     27  C   LIG A   1      -5.156   0.961 135.392  0.00  0.00    +0.150 C 
ATOM     28  C   LIG A   1      -5.277   0.190 136.702  0.00  0.00    +0.037 C 
ATOM     29  C   LIG A   1      -5.420  -1.238 136.244  0.00  0.00    +0.037 C 
BRANCH  27  30
ATOM     30  C   LIG A   1      -4.335   2.275 135.499  0.00  0.00    +0.086 C 
ATOM     31  C   LIG A   1      -3.571   2.580 134.206  0.00  0.00    +0.043 C 
ATOM     32  C   LIG A   1      -5.238   3.458 135.851  0.00  0.00    +0.043 C 
BRANCH  30  33
ATOM     33  O   LIG A   1      -3.361   2.156 136.547  0.00  0.00    -0.387 OA
ATOM     34  H   LIG A   1      -3.008   1.249 136.485  0.00  0.00    +0.210 HD
ENDBRANCH  30  33
ENDBRANCH  27  30
ENDBRANCH   6  24
BRANCH  21  35
ATOM     35  N   LIG A   1      -7.044   1.724 124.690  0.00  0.00    -0.236 N 
ATOM     36  H   LIG A   1      -6.196   2.084 125.135  0.00  0.00    +0.174 HD
BRANCH  35  37
ATOM     37  C   LIG A   1      -7.361   2.331 123.462  0.00  0.00    +0.079 A 
ATOM     38  C   LIG A   1      -8.664   2.305 122.910  0.00  0.00    +0.151 A 
ATOM     39  C   LIG A   1      -8.941   2.909 121.669  0.00  0.00    +0.067 A 
ATOM     40  C   LIG A   1      -7.899   3.532 120.984  0.00  0.00    +0.129 A 
ATOM     41  C   LIG A   1      -6.599   3.560 121.482  0.00  0.00    +0.035 A 
ATOM     42  C   LIG A   1      -6.339   2.946 122.705  0.00  0.00    +0.029 A 
BRANCH  38  43
ATOM     43  N   LIG A   1      -9.782   1.658 123.621  0.00  0.00    +0.058 N 
ATOM     44  O   LIG A   1     -10.105   2.085 124.732  0.00  0.00    -0.126 OA
ATOM     45  O   LIG A   1     -10.361   0.723 123.043  0.00  0.00    -0.126 OA
ENDBRANCH  38  43
BRANCH  40  46
ATOM     46  N   LIG A   1      -8.170   4.168 119.710  0.00  0.00    +0.057 N 
ATOM     47  O   LIG A   1      -7.187   4.579 119.074  0.00  0.00    -0.126 OA
ATOM     48  O   LIG A   1      -9.347   4.242 119.358  0.00  0.00    -0.126 OA
ENDBRANCH  40  46
ENDBRANCH  35  37
ENDBRANCH  21  35
TORSDOF 7
ENDMDL
MODEL 7
REMARK VINA RESULT:      -9.5      1.646      2.005
REMARK  Name = NuBBE_1727
REMARK  15 active torsions:
REMARK  status: ('A' for Active; 'I' for Inactive)
REMARK    1  A    between atoms: C_1  and  C_2
REMARK    2  A    between atoms: C_3  and  C_4
REMARK    3  A    between atoms: C_7  and  C_11
REMARK    4  A    between atoms: C_11  and  C_12
REMARK    5  A    between atoms: C_14  and  C_18
REMARK    6  A    between atoms: C_18  and  C_19
REMARK    7  A    between atoms: C_18  and  C_20
REMARK    8  A    between atoms: C_18  and  O_21
REMARK    9  A    between atoms: C_26  and  C_27
REMARK   10  A    between atoms: C_32  and  C_33
REMARK   11  A    between atoms: C_32  and  C_34
REMARK   12  A    between atoms: N_36  and  N_37
REMARK   13  A    between atoms: N_37  and  C_38
REMARK   14  A    between atoms: C_39  and  N_40
REMARK   15  A    between atoms: C_44  and  N_47
REMARK                            x       y       z     vdW  Elec       q    Type
REMARK                         _______ _______ _______ _____ _____    ______ ____
ROOT
ATOM      1  C   LIG A   1      -5.150  -0.490 133.739  0.00  0.00    +0.012 C 
ATOM      2  C   LIG A   1      -5.990   0.295 132.697  0.00  0.00    -0.023 C 
ATOM      3  C   LIG A   1      -6.179   1.837 133.135  0.00  0.00    -0.023 C 
ATOM      4  C   LIG A   1      -7.444   2.472 132.464  0.00  0.00    +0.012 C 
ATOM      5  C   LIG A   1      -4.968   2.765 132.751  0.00  0.00    +0.001 C 
ATOM      6  C   LIG A   1      -4.697   3.688 133.984  0.00  0.00    +0.024 C 
ATOM      7  C   LIG A   1      -5.934   3.522 134.875  0.00  0.00    +0.007 C 
ATOM      8  C   LIG A   1      -6.327   2.067 134.659  0.00  0.00    +0.008 C 
ATOM      9  C   LIG A   1      -3.709   2.037 132.301  0.00  0.00    +0.005 C 
ATOM     10  C   LIG A   1      -3.983   1.044 131.182  0.00  0.00    +0.005 C 
ATOM     11  C   LIG A   1      -5.330   0.284 131.268  0.00  0.00    +0.002 C 
ATOM     12  C   LIG A   1      -5.309  -1.107 130.502  0.00  0.00    -0.025 C 
ATOM     13  C   LIG A   1      -4.297  -2.097 131.133  0.00  0.00    +0.012 C 
ATOM     14  C   LIG A   1      -6.785  -1.657 130.478  0.00  0.00    +0.006 C 
ATOM     15  C   LIG A   1      -7.340  -1.805 131.910  0.00  0.00    +0.005 C 
ATOM     16  C   LIG A   1      -7.364  -0.447 132.625  0.00  0.00    +0.008 C 
ATOM     17  C   LIG A   1      -7.056  -2.878 129.530  0.00  0.00    +0.008 C 
ATOM     18  C   LIG A   1      -6.437  -4.211 129.975  0.00  0.00    +0.017 C 
ATOM     19  C   LIG A   1      -8.587  -3.125 129.428  0.00  0.00    +0.017 C 
ATOM     20  C   LIG A   1      -6.481  -2.494 128.141  0.00  0.00    +0.043 C 
ATOM     21  N   LIG A   1      -7.243  -2.612 127.095  0.00  0.00    -0.191 NA
ATOM     22  C   LIG A   1      -5.035  -2.036 128.115  0.00  0.00    +0.053 C 
ATOM     23  C   LIG A   1      -4.871  -0.837 129.033  0.00  0.00    +0.013 C 
ENDROOT
BRANCH   6  24
ATOM     24  C   LIG A   1      -4.337   5.166 133.665  0.00  0.00    +0.070 C 
ATOM     25  C   LIG A   1      -4.899   6.109 134.746  0.00  0.00    +0.042 C 
ATOM     26  O   LIG A   1      -2.898   5.331 133.712  0.00  0.00    -0.367 OA
ATOM     27  C   LIG A   1      -2.460   6.089 132.561  0.00  0.00    +0.150 C 
ATOM     28  C   LIG A   1      -3.721   6.650 131.912  0.00  0.00    +0.037 C 
ATOM     29  C   LIG A   1      -4.771   5.633 132.274  0.00  0.00    +0.037 C 
BRANCH  27  30
ATOM     30  C   LIG A   1      -1.419   7.166 132.968  0.00  0.00    +0.086 C 
ATOM     31  C   LIG A   1      -1.930   8.587 132.705  0.00  0.00    +0.043 C 
ATOM     32  C   LIG A   1      -1.032   7.026 134.441  0.00  0.00    +0.043 C 
BRANCH  30  33
ATOM     33  O   LIG A   1      -0.219   6.999 132.196  0.00  0.00    -0.387 OA
ATOM     34  H   LIG A   1      -0.083   7.843 131.726  0.00  0.00    +0.210 HD
ENDBRANCH  30  33
ENDBRANCH  27  30
ENDBRANCH   6  24
BRANCH  21  35
ATOM     35  N   LIG A   1      -6.783  -2.240 125.885  0.00  0.00    -0.236 N 
ATOM     36  H   LIG A   1      -6.308  -2.880 125.244  0.00  0.00    +0.174 HD
BRANCH  35  37
ATOM     37  C   LIG A   1      -7.273  -1.066 125.283  0.00  0.00    +0.079 A 
ATOM     38  C   LIG A   1      -8.362  -1.068 124.380  0.00  0.00    +0.151 A 
ATOM     39  C   LIG A   1      -8.814   0.124 123.783  0.00  0.00    +0.067 A 
ATOM     40  C   LIG A   1      -8.159   1.315 124.094  0.00  0.00    +0.129 A 
ATOM     41  C   LIG A   1      -7.069   1.355 124.961  0.00  0.00    +0.035 A 
ATOM     42  C   LIG A   1      -6.626   0.164 125.531  0.00  0.00    +0.029 A 
BRANCH  38  43
ATOM     43  N   LIG A   1      -9.074  -2.314 124.043  0.00  0.00    +0.058 N 
ATOM     44  O   LIG A   1      -8.917  -2.803 122.921  0.00  0.00    -0.126 OA
ATOM     45  O   LIG A   1      -9.782  -2.824 124.929  0.00  0.00    -0.126 OA
ENDBRANCH  38  43
BRANCH  40  46
ATOM     46  N   LIG A   1      -8.619   2.552 123.497  0.00  0.00    +0.057 N 
ATOM     47  O   LIG A   1      -8.449   3.587 124.160  0.00  0.00    -0.126 OA
ATOM     48  O   LIG A   1      -9.132   2.481 122.380  0.00  0.00    -0.126 OA
ENDBRANCH  40  46
ENDBRANCH  35  37
ENDBRANCH  21  35
TORSDOF 7
ENDMDL
MODEL 8
REMARK VINA RESULT:      -9.4      3.690      9.214
REMARK  Name = NuBBE_1727
REMARK  15 active torsions:
REMARK  status: ('A' for Active; 'I' for Inactive)
REMARK    1  A    between atoms: C_1  and  C_2
REMARK    2  A    between atoms: C_3  and  C_4
REMARK    3  A    between atoms: C_7  and  C_11
REMARK    4  A    between atoms: C_11  and  C_12
REMARK    5  A    between atoms: C_14  and  C_18
REMARK    6  A    between atoms: C_18  and  C_19
REMARK    7  A    between atoms: C_18  and  C_20
REMARK    8  A    between atoms: C_18  and  O_21
REMARK    9  A    between atoms: C_26  and  C_27
REMARK   10  A    between atoms: C_32  and  C_33
REMARK   11  A    between atoms: C_32  and  C_34
REMARK   12  A    between atoms: N_36  and  N_37
REMARK   13  A    between atoms: N_37  and  C_38
REMARK   14  A    between atoms: C_39  and  N_40
REMARK   15  A    between atoms: C_44  and  N_47
REMARK                            x       y       z     vdW  Elec       q    Type
REMARK                         _______ _______ _______ _____ _____    ______ ____
ROOT
ATOM      1  C   LIG A   1      -9.180   0.870 132.019  0.00  0.00    +0.012 C 
ATOM      2  C   LIG A   1      -7.674   1.024 131.675  0.00  0.00    -0.023 C 
ATOM      3  C   LIG A   1      -7.223  -0.022 130.531  0.00  0.00    -0.023 C 
ATOM      4  C   LIG A   1      -5.682  -0.297 130.581  0.00  0.00    +0.012 C 
ATOM      5  C   LIG A   1      -7.533   0.460 129.065  0.00  0.00    +0.001 C 
ATOM      6  C   LIG A   1      -8.108  -0.774 128.295  0.00  0.00    +0.024 C 
ATOM      7  C   LIG A   1      -7.793  -1.975 129.194  0.00  0.00    +0.007 C 
ATOM      8  C   LIG A   1      -7.920  -1.403 130.599  0.00  0.00    +0.008 C 
ATOM      9  C   LIG A   1      -8.450   1.671 128.959  0.00  0.00    +0.005 C 
ATOM     10  C   LIG A   1      -7.966   2.840 129.805  0.00  0.00    +0.005 C 
ATOM     11  C   LIG A   1      -7.322   2.469 131.164  0.00  0.00    +0.002 C 
ATOM     12  C   LIG A   1      -7.405   3.643 132.231  0.00  0.00    -0.025 C 
ATOM     13  C   LIG A   1      -8.871   3.978 132.607  0.00  0.00    +0.012 C 
ATOM     14  C   LIG A   1      -6.526   3.221 133.468  0.00  0.00    +0.006 C 
ATOM     15  C   LIG A   1      -7.014   1.882 134.057  0.00  0.00    +0.005 C 
ATOM     16  C   LIG A   1      -6.913   0.761 133.015  0.00  0.00    +0.008 C 
ATOM     17  C   LIG A   1      -6.228   4.344 134.524  0.00  0.00    +0.008 C 
ATOM     18  C   LIG A   1      -7.428   4.789 135.373  0.00  0.00    +0.017 C 
ATOM     19  C   LIG A   1      -5.152   3.841 135.525  0.00  0.00    +0.017 C 
ATOM     20  C   LIG A   1      -5.692   5.565 133.730  0.00  0.00    +0.043 C 
ATOM     21  N   LIG A   1      -4.575   6.112 134.104  0.00  0.00    -0.191 NA
ATOM     22  C   LIG A   1      -6.554   6.050 132.579  0.00  0.00    +0.053 C 
ATOM     23  C   LIG A   1      -6.765   4.913 131.595  0.00  0.00    +0.013 C 
ENDROOT
BRANCH   6  24
ATOM     24  C   LIG A   1      -7.636  -0.940 126.823  0.00  0.00    +0.070 C 
ATOM     25  C   LIG A   1      -6.179  -1.439 126.772  0.00  0.00    +0.042 C 
ATOM     26  O   LIG A   1      -8.424  -1.971 126.180  0.00  0.00    -0.367 OA
ATOM     27  C   LIG A   1      -8.846  -1.513 124.874  0.00  0.00    +0.150 C 
ATOM     28  C   LIG A   1      -8.053  -0.243 124.589  0.00  0.00    +0.037 C 
ATOM     29  C   LIG A   1      -7.798   0.316 125.964  0.00  0.00    +0.037 C 
BRANCH  27  30
ATOM     30  C   LIG A   1      -8.668  -2.629 123.809  0.00  0.00    +0.086 C 
ATOM     31  C   LIG A   1      -8.001  -2.103 122.534  0.00  0.00    +0.043 C 
ATOM     32  C   LIG A   1      -7.853  -3.796 124.369  0.00  0.00    +0.043 C 
BRANCH  30  33
ATOM     33  O   LIG A   1      -9.952  -3.149 123.431  0.00  0.00    -0.387 OA
ATOM     34  H   LIG A   1     -10.003  -4.044 123.816  0.00  0.00    +0.210 HD
ENDBRANCH  30  33
ENDBRANCH  27  30
ENDBRANCH   6  24
BRANCH  21  35
ATOM     35  N   LIG A   1      -4.064   7.142 133.402  0.00  0.00    -0.236 N 
ATOM     36  H   LIG A   1      -3.733   8.007 133.836  0.00  0.00    +0.174 HD
BRANCH  35  37
ATOM     37  C   LIG A   1      -3.601   6.932 132.090  0.00  0.00    +0.079 A 
ATOM     38  C   LIG A   1      -2.503   6.090 131.793  0.00  0.00    +0.151 A 
ATOM     39  C   LIG A   1      -2.057   5.917 130.470  0.00  0.00    +0.067 A 
ATOM     40  C   LIG A   1      -2.717   6.601 129.449  0.00  0.00    +0.129 A 
ATOM     41  C   LIG A   1      -3.787   7.455 129.703  0.00  0.00    +0.035 A 
ATOM     42  C   LIG A   1      -4.207   7.626 131.020  0.00  0.00    +0.029 A 
BRANCH  38  43
ATOM     43  N   LIG A   1      -1.797   5.352 132.855  0.00  0.00    +0.058 N 
ATOM     44  O   LIG A   1      -1.156   5.988 133.695  0.00  0.00    -0.126 OA
ATOM     45  O   LIG A   1      -1.908   4.114 132.860  0.00  0.00    -0.126 OA
ENDBRANCH  38  43
BRANCH  40  46
ATOM     46  N   LIG A   1      -2.276   6.425 128.080  0.00  0.00    +0.057 N 
ATOM     47  O   LIG A   1      -2.385   5.285 127.603  0.00  0.00    -0.126 OA
ATOM     48  O   LIG A   1      -1.839   7.418 127.498  0.00  0.00    -0.126 OA
ENDBRANCH  40  46
ENDBRANCH  35  37
ENDBRANCH  21  35
TORSDOF 7
ENDMDL
MODEL 9
REMARK VINA RESULT:      -9.3      3.506      8.404
REMARK  Name = NuBBE_1727
REMARK  15 active torsions:
REMARK  status: ('A' for Active; 'I' for Inactive)
REMARK    1  A    between atoms: C_1  and  C_2
REMARK    2  A    between atoms: C_3  and  C_4
REMARK    3  A    between atoms: C_7  and  C_11
REMARK    4  A    between atoms: C_11  and  C_12
REMARK    5  A    between atoms: C_14  and  C_18
REMARK    6  A    between atoms: C_18  and  C_19
REMARK    7  A    between atoms: C_18  and  C_20
REMARK    8  A    between atoms: C_18  and  O_21
REMARK    9  A    between atoms: C_26  and  C_27
REMARK   10  A    between atoms: C_32  and  C_33
REMARK   11  A    between atoms: C_32  and  C_34
REMARK   12  A    between atoms: N_36  and  N_37
REMARK   13  A    between atoms: N_37  and  C_38
REMARK   14  A    between atoms: C_39  and  N_40
REMARK   15  A    between atoms: C_44  and  N_47
REMARK                            x       y       z     vdW  Elec       q    Type
REMARK                         _______ _______ _______ _____ _____    ______ ____
ROOT
ATOM      1  C   LIG A   1      -5.519  -1.925 130.869  0.00  0.00    +0.012 C 
ATOM      2  C   LIG A   1      -5.562  -0.557 130.137  0.00  0.00    -0.023 C 
ATOM      3  C   LIG A   1      -5.710  -0.750 128.541  0.00  0.00    -0.023 C 
ATOM      4  C   LIG A   1      -5.183   0.502 127.761  0.00  0.00    +0.012 C 
ATOM      5  C   LIG A   1      -7.190  -0.974 128.058  0.00  0.00    +0.001 C 
ATOM      6  C   LIG A   1      -7.150  -2.120 126.994  0.00  0.00    +0.024 C 
ATOM      7  C   LIG A   1      -5.666  -2.275 126.644  0.00  0.00    +0.007 C 
ATOM      8  C   LIG A   1      -4.963  -1.976 127.961  0.00  0.00    +0.008 C 
ATOM      9  C   LIG A   1      -8.198  -1.262 129.162  0.00  0.00    +0.005 C 
ATOM     10  C   LIG A   1      -8.160  -0.217 130.267  0.00  0.00    +0.005 C 
ATOM     11  C   LIG A   1      -6.759   0.342 130.620  0.00  0.00    +0.002 C 
ATOM     12  C   LIG A   1      -6.672   0.911 132.101  0.00  0.00    -0.025 C 
ATOM     13  C   LIG A   1      -6.893  -0.201 133.159  0.00  0.00    +0.012 C 
ATOM     14  C   LIG A   1      -5.285   1.642 132.246  0.00  0.00    +0.006 C 
ATOM     15  C   LIG A   1      -4.121   0.678 131.939  0.00  0.00    +0.005 C 
ATOM     16  C   LIG A   1      -4.217   0.152 130.500  0.00  0.00    +0.008 C 
ATOM     17  C   LIG A   1      -5.097   2.525 133.531  0.00  0.00    +0.008 C 
ATOM     18  C   LIG A   1      -4.966   1.752 134.851  0.00  0.00    +0.017 C 
ATOM     19  C   LIG A   1      -3.799   3.368 133.393  0.00  0.00    +0.017 C 
ATOM     20  C   LIG A   1      -6.335   3.455 133.612  0.00  0.00    +0.043 C 
ATOM     21  N   LIG A   1      -6.149   4.733 133.751  0.00  0.00    -0.191 NA
ATOM     22  C   LIG A   1      -7.691   2.777 133.555  0.00  0.00    +0.053 C 
ATOM     23  C   LIG A   1      -7.798   1.973 132.272  0.00  0.00    +0.013 C 
ENDROOT
BRANCH   6  24
ATOM     24  C   LIG A   1      -8.079  -1.940 125.760  0.00  0.00    +0.070 C 
ATOM     25  C   LIG A   1      -9.415  -2.676 125.973  0.00  0.00    +0.042 C 
ATOM     26  O   LIG A   1      -8.423  -0.539 125.619  0.00  0.00    -0.367 OA
ATOM     27  C   LIG A   1      -8.281  -0.143 124.235  0.00  0.00    +0.150 C 
ATOM     28  C   LIG A   1      -8.099  -1.430 123.438  0.00  0.00    +0.037 C 
ATOM     29  C   LIG A   1      -7.448  -2.356 124.430  0.00  0.00    +0.037 C 
BRANCH  27  30
ATOM     30  C   LIG A   1      -9.483   0.726 123.779  0.00  0.00    +0.086 C 
ATOM     31  C   LIG A   1      -9.072   2.176 123.504  0.00  0.00    +0.043 C 
ATOM     32  C   LIG A   1     -10.144   0.136 122.532  0.00  0.00    +0.043 C 
BRANCH  30  33
ATOM     33  O   LIG A   1     -10.479   0.758 124.813  0.00  0.00    -0.387 OA
ATOM     34  H   LIG A   1     -10.840   1.665 124.811  0.00  0.00    +0.210 HD
ENDBRANCH  30  33
ENDBRANCH  27  30
ENDBRANCH   6  24
BRANCH  21  35
ATOM     35  N   LIG A   1      -7.206   5.567 133.775  0.00  0.00    -0.236 N 
ATOM     36  H   LIG A   1      -7.321   6.308 134.472  0.00  0.00    +0.174 HD
BRANCH  35  37
ATOM     37  C   LIG A   1      -8.004   5.716 132.627  0.00  0.00    +0.079 A 
ATOM     38  C   LIG A   1      -7.458   5.943 131.341  0.00  0.00    +0.151 A 
ATOM     39  C   LIG A   1      -8.289   6.104 130.216  0.00  0.00    +0.067 A 
ATOM     40  C   LIG A   1      -9.671   6.045 130.394  0.00  0.00    +0.129 A 
ATOM     41  C   LIG A   1     -10.247   5.846 131.646  0.00  0.00    +0.035 A 
ATOM     42  C   LIG A   1      -9.411   5.703 132.751  0.00  0.00    +0.029 A 
BRANCH  38  43
ATOM     43  N   LIG A   1      -6.001   6.001 131.129  0.00  0.00    +0.058 N 
ATOM     44  O   LIG A   1      -5.450   5.070 130.535  0.00  0.00    -0.126 OA
ATOM     45  O   LIG A   1      -5.403   7.009 131.544  0.00  0.00    -0.126 OA
ENDBRANCH  38  43
BRANCH  40  46
ATOM     46  N   LIG A   1     -10.539   6.199 129.244  0.00  0.00    +0.057 N 
ATOM     47  O   LIG A   1     -10.000   6.547 128.183  0.00  0.00    -0.126 OA
ATOM     48  O   LIG A   1     -11.737   5.965 129.409  0.00  0.00    -0.126 OA
ENDBRANCH  40  46
ENDBRANCH  35  37
ENDBRANCH  21  35
TORSDOF 7
ENDMDL
