MODEL 1
REMARK VINA RESULT:      -6.4      0.000      0.000
REMARK  Name = NuBBE_2013
REMARK  7 active torsions:
REMARK  status: ('A' for Active; 'I' for Inactive)
REMARK    1  A    between atoms: C_1  and  O_2
REMARK    2  A    between atoms: C_1  and  C_4
REMARK    3  A    between atoms: O_2  and  C_3
REMARK    4  A    between atoms: C_8  and  C_15
REMARK    5  A    between atoms: C_10  and  O_14
REMARK    6  A    between atoms: C_15  and  C_17
REMARK    7  A    between atoms: C_18  and  C_21
REMARK                            x       y       z     vdW  Elec       q    Type
REMARK                         _______ _______ _______ _____ _____    ______ ____
ROOT
ATOM      1  C   LIG A   1      -7.817   2.633 122.946  0.00  0.00    -0.011 A 
ATOM      2  C   LIG A   1      -8.017   1.395 123.600  0.00  0.00    +0.029 A 
ATOM      3  C   LIG A   1      -7.184   0.978 124.663  0.00  0.00    -0.033 A 
ATOM      4  C   LIG A   1      -7.306  -0.403 125.283  0.00  0.00    +0.046 C 
ATOM      5  C   LIG A   1      -8.513  -1.262 124.857  0.00  0.00    +0.055 C 
ATOM      6  C   LIG A   1      -8.856  -1.004 123.384  0.00  0.00    +0.193 C 
ATOM      7  C   LIG A   1      -9.113   0.484 123.192  0.00  0.00    +0.193 C 
ATOM      8  O   LIG A   1     -10.164   0.901 122.722  0.00  0.00    -0.289 OA
ATOM      9  C   LIG A   1      -6.163   1.846 125.114  0.00  0.00    -0.047 A 
ATOM     10  C   LIG A   1      -5.997   3.092 124.498  0.00  0.00    +0.004 A 
ATOM     11  C   LIG A   1      -6.805   3.475 123.430  0.00  0.00    +0.007 A 
ATOM     12  C   LIG A   1      -5.265   1.490 126.270  0.00  0.00    +0.044 C 
ENDROOT
BRANCH   5  13
ATOM     13  C   LIG A   1      -8.234  -2.736 125.191  0.00  0.00    -0.073 C 
ATOM     14  C   LIG A   1      -7.449  -3.505 124.414  0.00  0.00    +0.008 C 
ATOM     15  C   LIG A   1      -8.878  -3.320 126.422  0.00  0.00    +0.038 C 
ENDBRANCH   5  13
BRANCH   6  16
ATOM     16  O   LIG A   1     -10.025  -1.734 123.004  0.00  0.00    -0.383 OA
ATOM     17  H   LIG A   1     -10.678  -1.072 122.697  0.00  0.00    +0.210 HD
ENDBRANCH   6  16
BRANCH   1  18
ATOM     18  C   LIG A   1      -8.650   3.085 121.762  0.00  0.00    +0.195 C 
BRANCH  18  19
ATOM     19  O   LIG A   1      -7.829   3.803 120.830  0.00  0.00    -0.378 OA
ATOM     20  C   LIG A   1      -8.540   4.145 119.648  0.00  0.00    +0.194 C 
ENDBRANCH  18  19
ENDBRANCH   1  18
TORSDOF 4
ENDMDL
MODEL 2
REMARK VINA RESULT:      -6.2      2.797      5.627
REMARK  Name = NuBBE_2013
REMARK  7 active torsions:
REMARK  status: ('A' for Active; 'I' for Inactive)
REMARK    1  A    between atoms: C_1  and  O_2
REMARK    2  A    between atoms: C_1  and  C_4
REMARK    3  A    between atoms: O_2  and  C_3
REMARK    4  A    between atoms: C_8  and  C_15
REMARK    5  A    between atoms: C_10  and  O_14
REMARK    6  A    between atoms: C_15  and  C_17
REMARK    7  A    between atoms: C_18  and  C_21
REMARK                            x       y       z     vdW  Elec       q    Type
REMARK                         _______ _______ _______ _____ _____    ______ ____
ROOT
ATOM      1  C   LIG A   1      -8.256   2.754 123.685  0.00  0.00    -0.011 A 
ATOM      2  C   LIG A   1      -7.164   3.216 124.456  0.00  0.00    +0.029 A 
ATOM      3  C   LIG A   1      -6.012   3.767 123.848  0.00  0.00    -0.033 A 
ATOM      4  C   LIG A   1      -4.782   4.143 124.655  0.00  0.00    +0.046 C 
ATOM      5  C   LIG A   1      -4.908   4.101 126.191  0.00  0.00    +0.055 C 
ATOM      6  C   LIG A   1      -5.836   2.958 126.619  0.00  0.00    +0.193 C 
ATOM      7  C   LIG A   1      -7.185   3.138 125.935  0.00  0.00    +0.193 C 
ATOM      8  O   LIG A   1      -8.227   3.208 126.575  0.00  0.00    -0.289 OA
ATOM      9  C   LIG A   1      -5.981   3.907 122.441  0.00  0.00    -0.047 A 
ATOM     10  C   LIG A   1      -7.083   3.494 121.684  0.00  0.00    +0.004 A 
ATOM     11  C   LIG A   1      -8.196   2.923 122.294  0.00  0.00    +0.007 A 
ATOM     12  C   LIG A   1      -4.808   4.525 121.726  0.00  0.00    +0.044 C 
ENDROOT
BRANCH   5  13
ATOM     13  C   LIG A   1      -3.505   4.043 126.817  0.00  0.00    -0.073 C 
ATOM     14  C   LIG A   1      -2.665   3.018 126.584  0.00  0.00    +0.008 C 
ATOM     15  C   LIG A   1      -3.084   5.171 127.723  0.00  0.00    +0.038 C 
ENDBRANCH   5  13
BRANCH   6  16
ATOM     16  O   LIG A   1      -6.024   2.965 128.036  0.00  0.00    -0.383 OA
ATOM     17  H   LIG A   1      -5.146   3.139 128.432  0.00  0.00    +0.210 HD
ENDBRANCH   6  16
BRANCH   1  18
ATOM     18  C   LIG A   1      -9.480   2.100 124.299  0.00  0.00    +0.195 C 
BRANCH  18  19
ATOM     19  O   LIG A   1      -9.621   0.762 123.802  0.00  0.00    -0.378 OA
ATOM     20  C   LIG A   1      -8.796  -0.156 124.506  0.00  0.00    +0.194 C 
ENDBRANCH  18  19
ENDBRANCH   1  18
TORSDOF 4
ENDMDL
MODEL 3
REMARK VINA RESULT:      -6.2      3.323      5.142
REMARK  Name = NuBBE_2013
REMARK  7 active torsions:
REMARK  status: ('A' for Active; 'I' for Inactive)
REMARK    1  A    between atoms: C_1  and  O_2
REMARK    2  A    between atoms: C_1  and  C_4
REMARK    3  A    between atoms: O_2  and  C_3
REMARK    4  A    between atoms: C_8  and  C_15
REMARK    5  A    between atoms: C_10  and  O_14
REMARK    6  A    between atoms: C_15  and  C_17
REMARK    7  A    between atoms: C_18  and  C_21
REMARK                            x       y       z     vdW  Elec       q    Type
REMARK                         _______ _______ _______ _____ _____    ______ ____
ROOT
ATOM      1  C   LIG A   1      -7.873   0.948 128.538  0.00  0.00    -0.011 A 
ATOM      2  C   LIG A   1      -8.218  -0.028 127.574  0.00  0.00    +0.029 A 
ATOM      3  C   LIG A   1      -8.106  -1.410 127.849  0.00  0.00    -0.033 A 
ATOM      4  C   LIG A   1      -8.346  -2.462 126.779  0.00  0.00    +0.046 C 
ATOM      5  C   LIG A   1      -8.922  -1.980 125.434  0.00  0.00    +0.055 C 
ATOM      6  C   LIG A   1      -8.379  -0.587 125.090  0.00  0.00    +0.193 C 
ATOM      7  C   LIG A   1      -8.709   0.365 126.232  0.00  0.00    +0.193 C 
ATOM      8  O   LIG A   1      -9.339   1.399 126.047  0.00  0.00    -0.289 OA
ATOM      9  C   LIG A   1      -7.692  -1.821 129.137  0.00  0.00    -0.047 A 
ATOM     10  C   LIG A   1      -7.399  -0.855 130.106  0.00  0.00    +0.004 A 
ATOM     11  C   LIG A   1      -7.482   0.504 129.810  0.00  0.00    +0.007 A 
ATOM     12  C   LIG A   1      -7.593  -3.274 129.518  0.00  0.00    +0.044 C 
ENDROOT
BRANCH   5  13
ATOM     13  C   LIG A   1      -8.661  -3.043 124.355  0.00  0.00    -0.073 C 
ATOM     14  C   LIG A   1      -9.592  -3.373 123.443  0.00  0.00    +0.008 C 
ATOM     15  C   LIG A   1      -7.320  -3.732 124.347  0.00  0.00    +0.038 C 
ENDBRANCH   5  13
BRANCH   6  16
ATOM     16  O   LIG A   1      -8.974  -0.097 123.885  0.00  0.00    -0.383 OA
ATOM     17  H   LIG A   1      -9.328   0.792 124.092  0.00  0.00    +0.210 HD
ENDBRANCH   6  16
BRANCH   1  18
ATOM     18  C   LIG A   1      -7.920   2.438 128.258  0.00  0.00    +0.195 C 
BRANCH  18  19
ATOM     19  O   LIG A   1      -9.055   3.024 128.910  0.00  0.00    -0.378 OA
ATOM     20  C   LIG A   1      -8.683   4.100 129.761  0.00  0.00    +0.194 C 
ENDBRANCH  18  19
ENDBRANCH   1  18
TORSDOF 4
ENDMDL
MODEL 4
REMARK VINA RESULT:      -6.1      9.776     11.421
REMARK  Name = NuBBE_2013
REMARK  7 active torsions:
REMARK  status: ('A' for Active; 'I' for Inactive)
REMARK    1  A    between atoms: C_1  and  O_2
REMARK    2  A    between atoms: C_1  and  C_4
REMARK    3  A    between atoms: O_2  and  C_3
REMARK    4  A    between atoms: C_8  and  C_15
REMARK    5  A    between atoms: C_10  and  O_14
REMARK    6  A    between atoms: C_15  and  C_17
REMARK    7  A    between atoms: C_18  and  C_21
REMARK                            x       y       z     vdW  Elec       q    Type
REMARK                         _______ _______ _______ _____ _____    ______ ____
ROOT
ATOM      1  C   LIG A   1      -8.243   5.901 132.801  0.00  0.00    -0.011 A 
ATOM      2  C   LIG A   1      -6.869   6.034 132.491  0.00  0.00    +0.029 A 
ATOM      3  C   LIG A   1      -5.868   5.813 133.464  0.00  0.00    -0.033 A 
ATOM      4  C   LIG A   1      -4.400   6.081 133.179  0.00  0.00    +0.046 C 
ATOM      5  C   LIG A   1      -4.013   6.403 131.722  0.00  0.00    +0.055 C 
ATOM      6  C   LIG A   1      -5.128   7.204 131.039  0.00  0.00    +0.193 C 
ATOM      7  C   LIG A   1      -6.427   6.414 131.128  0.00  0.00    +0.193 C 
ATOM      8  O   LIG A   1      -7.070   6.116 130.130  0.00  0.00    -0.289 OA
ATOM      9  C   LIG A   1      -6.251   5.397 134.760  0.00  0.00    -0.047 A 
ATOM     10  C   LIG A   1      -7.608   5.218 135.051  0.00  0.00    +0.004 A 
ATOM     11  C   LIG A   1      -8.585   5.471 134.091  0.00  0.00    +0.007 A 
ATOM     12  C   LIG A   1      -5.240   5.099 135.835  0.00  0.00    +0.044 C 
ENDROOT
BRANCH   5  13
ATOM     13  C   LIG A   1      -2.638   7.089 131.698  0.00  0.00    -0.073 C 
ATOM     14  C   LIG A   1      -1.566   6.513 131.122  0.00  0.00    +0.008 C 
ATOM     15  C   LIG A   1      -2.505   8.439 132.355  0.00  0.00    +0.038 C 
ENDBRANCH   5  13
BRANCH   6  16
ATOM     16  O   LIG A   1      -4.814   7.433 129.663  0.00  0.00    -0.383 OA
ATOM     17  H   LIG A   1      -5.394   8.163 129.363  0.00  0.00    +0.210 HD
ENDBRANCH   6  16
BRANCH   1  18
ATOM     18  C   LIG A   1      -9.346   6.191 131.801  0.00  0.00    +0.195 C 
BRANCH  18  19
ATOM     19  O   LIG A   1     -10.557   6.528 132.492  0.00  0.00    -0.378 OA
ATOM     20  C   LIG A   1     -11.688   6.492 131.632  0.00  0.00    +0.194 C 
ENDBRANCH  18  19
ENDBRANCH   1  18
TORSDOF 4
ENDMDL
MODEL 5
REMARK VINA RESULT:      -6.0      2.578      4.098
REMARK  Name = NuBBE_2013
REMARK  7 active torsions:
REMARK  status: ('A' for Active; 'I' for Inactive)
REMARK    1  A    between atoms: C_1  and  O_2
REMARK    2  A    between atoms: C_1  and  C_4
REMARK    3  A    between atoms: O_2  and  C_3
REMARK    4  A    between atoms: C_8  and  C_15
REMARK    5  A    between atoms: C_10  and  O_14
REMARK    6  A    between atoms: C_15  and  C_17
REMARK    7  A    between atoms: C_18  and  C_21
REMARK                            x       y       z     vdW  Elec       q    Type
REMARK                         _______ _______ _______ _____ _____    ______ ____
ROOT
ATOM      1  C   LIG A   1      -9.024   1.038 124.231  0.00  0.00    -0.011 A 
ATOM      2  C   LIG A   1      -8.501   0.105 125.156  0.00  0.00    +0.029 A 
ATOM      3  C   LIG A   1      -8.580  -1.288 124.925  0.00  0.00    -0.033 A 
ATOM      4  C   LIG A   1      -8.143  -2.299 125.970  0.00  0.00    +0.046 C 
ATOM      5  C   LIG A   1      -7.412  -1.756 127.214  0.00  0.00    +0.055 C 
ATOM      6  C   LIG A   1      -7.972  -0.383 127.604  0.00  0.00    +0.193 C 
ATOM      7  C   LIG A   1      -7.851   0.555 126.410  0.00  0.00    +0.193 C 
ATOM      8  O   LIG A   1      -7.255   1.622 126.487  0.00  0.00    -0.289 OA
ATOM      9  C   LIG A   1      -9.144  -1.750 123.714  0.00  0.00    -0.047 A 
ATOM     10  C   LIG A   1      -9.616  -0.824 122.777  0.00  0.00    +0.004 A 
ATOM     11  C   LIG A   1      -9.562   0.544 123.034  0.00  0.00    +0.007 A 
ATOM     12  C   LIG A   1      -9.221  -3.216 123.378  0.00  0.00    +0.044 C 
ENDROOT
BRANCH   5  13
ATOM     13  C   LIG A   1      -7.469  -2.803 128.338  0.00  0.00    -0.073 C 
ATOM     14  C   LIG A   1      -8.589  -3.500 128.603  0.00  0.00    +0.008 C 
ATOM     15  C   LIG A   1      -6.227  -3.031 129.161  0.00  0.00    +0.038 C 
ENDBRANCH   5  13
BRANCH   6  16
ATOM     16  O   LIG A   1      -7.243   0.165 128.705  0.00  0.00    -0.383 OA
ATOM     17  H   LIG A   1      -6.464   0.618 128.324  0.00  0.00    +0.210 HD
ENDBRANCH   6  16
BRANCH   1  18
ATOM     18  C   LIG A   1      -9.014   2.536 124.474  0.00  0.00    +0.195 C 
BRANCH  18  19
ATOM     19  O   LIG A   1      -8.549   3.220 123.302  0.00  0.00    -0.378 OA
ATOM     20  C   LIG A   1      -7.132   3.322 123.274  0.00  0.00    +0.194 C 
ENDBRANCH  18  19
ENDBRANCH   1  18
TORSDOF 4
ENDMDL
MODEL 6
REMARK VINA RESULT:      -5.9      4.226      6.786
REMARK  Name = NuBBE_2013
REMARK  7 active torsions:
REMARK  status: ('A' for Active; 'I' for Inactive)
REMARK    1  A    between atoms: C_1  and  O_2
REMARK    2  A    between atoms: C_1  and  C_4
REMARK    3  A    between atoms: O_2  and  C_3
REMARK    4  A    between atoms: C_8  and  C_15
REMARK    5  A    between atoms: C_10  and  O_14
REMARK    6  A    between atoms: C_15  and  C_17
REMARK    7  A    between atoms: C_18  and  C_21
REMARK                            x       y       z     vdW  Elec       q    Type
REMARK                         _______ _______ _______ _____ _____    ______ ____
ROOT
ATOM      1  C   LIG A   1      -5.825   4.352 129.117  0.00  0.00    -0.011 A 
ATOM      2  C   LIG A   1      -5.948   4.029 127.745  0.00  0.00    +0.029 A 
ATOM      3  C   LIG A   1      -4.825   3.660 126.970  0.00  0.00    -0.033 A 
ATOM      4  C   LIG A   1      -4.924   3.440 125.470  0.00  0.00    +0.046 C 
ATOM      5  C   LIG A   1      -6.336   3.426 124.852  0.00  0.00    +0.055 C 
ATOM      6  C   LIG A   1      -7.248   4.417 125.585  0.00  0.00    +0.193 C 
ATOM      7  C   LIG A   1      -7.265   4.066 127.067  0.00  0.00    +0.193 C 
ATOM      8  O   LIG A   1      -8.310   3.835 127.662  0.00  0.00    -0.289 OA
ATOM      9  C   LIG A   1      -3.562   3.561 127.598  0.00  0.00    -0.047 A 
ATOM     10  C   LIG A   1      -3.450   3.833 128.966  0.00  0.00    +0.004 A 
ATOM     11  C   LIG A   1      -4.560   4.228 129.709  0.00  0.00    +0.007 A 
ATOM     12  C   LIG A   1      -2.329   3.131 126.848  0.00  0.00    +0.044 C 
ENDROOT
BRANCH   5  13
ATOM     13  C   LIG A   1      -6.232   3.665 123.337  0.00  0.00    -0.073 C 
ATOM     14  C   LIG A   1      -5.289   4.464 122.807  0.00  0.00    +0.008 C 
ATOM     15  C   LIG A   1      -7.234   2.984 122.440  0.00  0.00    +0.038 C 
ENDBRANCH   5  13
BRANCH   6  16
ATOM     16  O   LIG A   1      -8.581   4.348 125.072  0.00  0.00    -0.383 OA
ATOM     17  H   LIG A   1      -8.640   5.018 124.360  0.00  0.00    +0.210 HD
ENDBRANCH   6  16
BRANCH   1  18
ATOM     18  C   LIG A   1      -6.997   4.813 129.964  0.00  0.00    +0.195 C 
BRANCH  18  19
ATOM     19  O   LIG A   1      -7.011   6.245 130.044  0.00  0.00    -0.378 OA
ATOM     20  C   LIG A   1      -6.941   6.704 131.387  0.00  0.00    +0.194 C 
ENDBRANCH  18  19
ENDBRANCH   1  18
TORSDOF 4
ENDMDL
MODEL 7
REMARK VINA RESULT:      -5.8      4.342      7.252
REMARK  Name = NuBBE_2013
REMARK  7 active torsions:
REMARK  status: ('A' for Active; 'I' for Inactive)
REMARK    1  A    between atoms: C_1  and  O_2
REMARK    2  A    between atoms: C_1  and  C_4
REMARK    3  A    between atoms: O_2  and  C_3
REMARK    4  A    between atoms: C_8  and  C_15
REMARK    5  A    between atoms: C_10  and  O_14
REMARK    6  A    between atoms: C_15  and  C_17
REMARK    7  A    between atoms: C_18  and  C_21
REMARK                            x       y       z     vdW  Elec       q    Type
REMARK                         _______ _______ _______ _____ _____    ______ ____
ROOT
ATOM      1  C   LIG A   1      -6.514  -1.477 129.939  0.00  0.00    -0.011 A 
ATOM      2  C   LIG A   1      -6.561  -1.390 128.529  0.00  0.00    +0.029 A 
ATOM      3  C   LIG A   1      -7.366  -2.264 127.762  0.00  0.00    -0.033 A 
ATOM      4  C   LIG A   1      -7.323  -2.267 126.243  0.00  0.00    +0.046 C 
ATOM      5  C   LIG A   1      -6.528  -1.138 125.558  0.00  0.00    +0.055 C 
ATOM      6  C   LIG A   1      -5.301  -0.765 126.400  0.00  0.00    +0.193 C 
ATOM      7  C   LIG A   1      -5.764  -0.377 127.798  0.00  0.00    +0.193 C 
ATOM      8  O   LIG A   1      -5.486   0.710 128.290  0.00  0.00    -0.289 OA
ATOM      9  C   LIG A   1      -8.181  -3.207 128.429  0.00  0.00    -0.047 A 
ATOM     10  C   LIG A   1      -8.170  -3.259 129.827  0.00  0.00    +0.004 A 
ATOM     11  C   LIG A   1      -7.347  -2.414 130.568  0.00  0.00    +0.007 A 
ATOM     12  C   LIG A   1      -9.097  -4.140 127.682  0.00  0.00    +0.044 C 
ENDROOT
BRANCH   5  13
ATOM     13  C   LIG A   1      -6.201  -1.548 124.114  0.00  0.00    -0.073 C 
ATOM     14  C   LIG A   1      -6.766  -0.937 123.057  0.00  0.00    +0.008 C 
ATOM     15  C   LIG A   1      -5.226  -2.677 123.898  0.00  0.00    +0.038 C 
ENDBRANCH   5  13
BRANCH   6  16
ATOM     16  O   LIG A   1      -4.605   0.338 125.814  0.00  0.00    -0.383 OA
ATOM     17  H   LIG A   1      -4.013  -0.038 125.131  0.00  0.00    +0.210 HD
ENDBRANCH   6  16
BRANCH   1  18
ATOM     18  C   LIG A   1      -5.615  -0.599 130.790  0.00  0.00    +0.195 C 
BRANCH  18  19
ATOM     19  O   LIG A   1      -4.639  -1.405 131.465  0.00  0.00    -0.378 OA
ATOM     20  C   LIG A   1      -3.481  -1.615 130.670  0.00  0.00    +0.194 C 
ENDBRANCH  18  19
ENDBRANCH   1  18
TORSDOF 4
ENDMDL
MODEL 8
REMARK VINA RESULT:      -5.7      3.562      6.148
REMARK  Name = NuBBE_2013
REMARK  7 active torsions:
REMARK  status: ('A' for Active; 'I' for Inactive)
REMARK    1  A    between atoms: C_1  and  O_2
REMARK    2  A    between atoms: C_1  and  C_4
REMARK    3  A    between atoms: O_2  and  C_3
REMARK    4  A    between atoms: C_8  and  C_15
REMARK    5  A    between atoms: C_10  and  O_14
REMARK    6  A    between atoms: C_15  and  C_17
REMARK    7  A    between atoms: C_18  and  C_21
REMARK                            x       y       z     vdW  Elec       q    Type
REMARK                         _______ _______ _______ _____ _____    ______ ____
ROOT
ATOM      1  C   LIG A   1      -8.703  -2.337 126.295  0.00  0.00    -0.011 A 
ATOM      2  C   LIG A   1      -8.310  -1.226 127.078  0.00  0.00    +0.029 A 
ATOM      3  C   LIG A   1      -7.973  -1.367 128.444  0.00  0.00    -0.033 A 
ATOM      4  C   LIG A   1      -7.679  -0.166 129.325  0.00  0.00    +0.046 C 
ATOM      5  C   LIG A   1      -7.553   1.204 128.630  0.00  0.00    +0.055 C 
ATOM      6  C   LIG A   1      -8.521   1.290 127.443  0.00  0.00    +0.193 C 
ATOM      7  C   LIG A   1      -8.239   0.133 126.493  0.00  0.00    +0.193 C 
ATOM      8  O   LIG A   1      -7.974   0.320 125.312  0.00  0.00    -0.289 OA
ATOM      9  C   LIG A   1      -7.978  -2.659 129.021  0.00  0.00    -0.047 A 
ATOM     10  C   LIG A   1      -8.319  -3.763 128.232  0.00  0.00    +0.004 A 
ATOM     11  C   LIG A   1      -8.681  -3.604 126.897  0.00  0.00    +0.007 A 
ATOM     12  C   LIG A   1      -7.588  -2.893 130.456  0.00  0.00    +0.044 C 
ENDROOT
BRANCH   5  13
ATOM     13  C   LIG A   1      -7.728   2.323 129.669  0.00  0.00    -0.073 C 
ATOM     14  C   LIG A   1      -6.691   3.072 130.088  0.00  0.00    +0.008 C 
ATOM     15  C   LIG A   1      -9.105   2.562 130.232  0.00  0.00    +0.038 C 
ENDBRANCH   5  13
BRANCH   6  16
ATOM     16  O   LIG A   1      -8.350   2.525 126.742  0.00  0.00    -0.383 OA
ATOM     17  H   LIG A   1      -8.238   3.218 127.424  0.00  0.00    +0.210 HD
ENDBRANCH   6  16
BRANCH   1  18
ATOM     18  C   LIG A   1      -9.132  -2.214 124.845  0.00  0.00    +0.195 C 
BRANCH  18  19
ATOM     19  O   LIG A   1      -8.129  -2.779 123.989  0.00  0.00    -0.378 OA
ATOM     20  C   LIG A   1      -8.022  -2.075 122.759  0.00  0.00    +0.194 C 
ENDBRANCH  18  19
ENDBRANCH   1  18
TORSDOF 4
ENDMDL
MODEL 9
REMARK VINA RESULT:      -5.7      3.248      5.028
REMARK  Name = NuBBE_2013
REMARK  7 active torsions:
REMARK  status: ('A' for Active; 'I' for Inactive)
REMARK    1  A    between atoms: C_1  and  O_2
REMARK    2  A    between atoms: C_1  and  C_4
REMARK    3  A    between atoms: O_2  and  C_3
REMARK    4  A    between atoms: C_8  and  C_15
REMARK    5  A    between atoms: C_10  and  O_14
REMARK    6  A    between atoms: C_15  and  C_17
REMARK    7  A    between atoms: C_18  and  C_21
REMARK                            x       y       z     vdW  Elec       q    Type
REMARK                         _______ _______ _______ _____ _____    ______ ____
ROOT
ATOM      1  C   LIG A   1      -7.475   0.842 128.431  0.00  0.00    -0.011 A 
ATOM      2  C   LIG A   1      -7.885  -0.102 127.461  0.00  0.00    +0.029 A 
ATOM      3  C   LIG A   1      -7.979  -1.479 127.765  0.00  0.00    -0.033 A 
ATOM      4  C   LIG A   1      -8.290  -2.516 126.699  0.00  0.00    +0.046 C 
ATOM      5  C   LIG A   1      -8.708  -1.994 125.310  0.00  0.00    +0.055 C 
ATOM      6  C   LIG A   1      -7.961  -0.696 124.982  0.00  0.00    +0.193 C 
ATOM      7  C   LIG A   1      -8.231   0.320 126.084  0.00  0.00    +0.193 C 
ATOM      8  O   LIG A   1      -8.702   1.424 125.840  0.00  0.00    -0.289 OA
ATOM      9  C   LIG A   1      -7.709  -1.910 129.085  0.00  0.00    -0.047 A 
ATOM     10  C   LIG A   1      -7.351  -0.968 130.056  0.00  0.00    +0.004 A 
ATOM     11  C   LIG A   1      -7.230   0.381 129.733  0.00  0.00    +0.007 A 
ATOM     12  C   LIG A   1      -7.832  -3.354 129.495  0.00  0.00    +0.044 C 
ENDROOT
BRANCH   5  13
ATOM     13  C   LIG A   1      -8.524  -3.110 124.269  0.00  0.00    -0.073 C 
ATOM     14  C   LIG A   1      -7.344  -3.730 124.094  0.00  0.00    +0.008 C 
ATOM     15  C   LIG A   1      -9.711  -3.495 123.423  0.00  0.00    +0.038 C 
ENDBRANCH   5  13
BRANCH   6  16
ATOM     16  O   LIG A   1      -8.405  -0.161 123.732  0.00  0.00    -0.383 OA
ATOM     17  H   LIG A   1      -9.224  -0.645 123.498  0.00  0.00    +0.210 HD
ENDBRANCH   6  16
BRANCH   1  18
ATOM     18  C   LIG A   1      -7.301   2.318 128.125  0.00  0.00    +0.195 C 
BRANCH  18  19
ATOM     19  O   LIG A   1      -5.912   2.617 127.928  0.00  0.00    -0.378 OA
ATOM     20  C   LIG A   1      -5.449   3.610 128.833  0.00  0.00    +0.194 C 
ENDBRANCH  18  19
ENDBRANCH   1  18
TORSDOF 4
ENDMDL
