MODEL 1
REMARK VINA RESULT:      -8.8      0.000      0.000
REMARK  Name = NuBBE_1107
REMARK  6 active torsions:
REMARK  status: ('A' for Active; 'I' for Inactive)
REMARK    1  A    between atoms: N_9  and  C_10
REMARK    2  A    between atoms: N_12  and  C_13
REMARK    3  A    between atoms: C_13  and  C_14
REMARK    4  A    between atoms: C_14  and  C_15
REMARK    5  A    between atoms: C_25  and  C_26
REMARK    6  A    between atoms: C_25  and  C_27
REMARK                            x       y       z     vdW  Elec       q    Type
REMARK                         _______ _______ _______ _____ _____    ______ ____
ROOT
ATOM      1  C   LIG A   1      -6.694   1.224 128.412  0.00  0.00    -0.020 A 
ATOM      2  C   LIG A   1      -7.172   1.268 129.710  0.00  0.00    +0.087 A 
ATOM      3  N   LIG A   1      -7.698   0.052 130.026  0.00  0.00    -0.360 N 
ATOM      4  C   LIG A   1      -7.575  -0.811 128.964  0.00  0.00    +0.048 A 
ATOM      5  C   LIG A   1      -6.948  -0.118 127.915  0.00  0.00    +0.013 A 
ATOM      6  C   LIG A   1      -6.732  -0.844 126.707  0.00  0.00    +0.026 A 
ATOM      7  C   LIG A   1      -7.139  -2.187 126.614  0.00  0.00    +0.130 A 
ATOM      8  C   LIG A   1      -7.746  -2.828 127.687  0.00  0.00    +0.048 A 
ATOM      9  C   LIG A   1      -7.980  -2.150 128.878  0.00  0.00    +0.030 A 
ATOM     10  O   LIG A   1      -6.955  -2.964 125.502  0.00  0.00    -0.482 OA
ATOM     11  C   LIG A   1      -6.560  -2.325 124.273  0.00  0.00    +0.123 C 
ATOM     12  C   LIG A   1      -7.788  -2.323 123.354  0.00  0.00    +0.060 C 
ATOM     13  C   LIG A   1      -5.467  -3.215 123.669  0.00  0.00    +0.060 C 
ATOM     14  C   LIG A   1      -6.024  -0.923 124.420  0.00  0.00    +0.020 C 
ATOM     15  C   LIG A   1      -6.085  -0.229 125.561  0.00  0.00    +0.012 C 
ATOM     16  H   LIG A   1      -8.120  -0.191 130.911  0.00  0.00    +0.165 HD
ENDROOT
BRANCH   1  17
ATOM     17  C   LIG A   1      -6.048   2.401 127.730  0.00  0.00    +0.059 C 
BRANCH  17  18
ATOM     18  C   LIG A   1      -7.079   3.376 127.140  0.00  0.00    +0.134 C 
BRANCH  18  30
ATOM     19  O   LIG A   1      -5.175   4.671 125.600  0.00  0.00    -0.267 OA
ATOM     20  C   LIG A   1      -6.058   4.045 125.022  0.00  0.00    +0.264 A 
ATOM     21  C   LIG A   1      -6.040   3.969 123.550  0.00  0.00    +0.063 A 
ATOM     22  C   LIG A   1      -7.078   3.321 122.888  0.00  0.00    +0.058 A 
ATOM     23  C   LIG A   1      -7.036   3.260 121.484  0.00  0.00    +0.026 A 
ATOM     24  C   LIG A   1      -5.976   3.831 120.770  0.00  0.00    +0.002 A 
ATOM     25  C   LIG A   1      -4.945   4.471 121.446  0.00  0.00    +0.001 A 
ATOM     26  C   LIG A   1      -4.976   4.543 122.838  0.00  0.00    +0.015 A 
ATOM     27  N   LIG A   1      -8.138   2.746 123.640  0.00  0.00    -0.296 N 
ATOM     28  C   LIG A   1      -9.238   2.090 122.943  0.00  0.00    +0.154 C 
ATOM     29  C   LIG A   1      -8.155   2.760 125.031  0.00  0.00    +0.332 A 
ATOM     30  N   LIG A   1      -7.092   3.384 125.673  0.00  0.00    -0.260 N 
ATOM     31  O   LIG A   1      -9.075   2.241 125.668  0.00  0.00    -0.246 OA
ENDBRANCH  18  30
ENDBRANCH  17  18
ENDBRANCH   1  17
TORSDOF 3
ENDMDL
MODEL 2
REMARK VINA RESULT:      -8.7      2.064      3.666
REMARK  Name = NuBBE_1107
REMARK  6 active torsions:
REMARK  status: ('A' for Active; 'I' for Inactive)
REMARK    1  A    between atoms: N_9  and  C_10
REMARK    2  A    between atoms: N_12  and  C_13
REMARK    3  A    between atoms: C_13  and  C_14
REMARK    4  A    between atoms: C_14  and  C_15
REMARK    5  A    between atoms: C_25  and  C_26
REMARK    6  A    between atoms: C_25  and  C_27
REMARK                            x       y       z     vdW  Elec       q    Type
REMARK                         _______ _______ _______ _____ _____    ______ ____
ROOT
ATOM      1  C   LIG A   1      -7.623  -0.443 125.755  0.00  0.00    -0.020 A 
ATOM      2  C   LIG A   1      -8.219  -0.871 124.581  0.00  0.00    +0.087 A 
ATOM      3  N   LIG A   1      -8.828  -2.068 124.809  0.00  0.00    -0.360 N 
ATOM      4  C   LIG A   1      -8.657  -2.448 126.119  0.00  0.00    +0.048 A 
ATOM      5  C   LIG A   1      -7.898  -1.455 126.760  0.00  0.00    +0.013 A 
ATOM      6  C   LIG A   1      -7.603  -1.666 128.139  0.00  0.00    +0.026 A 
ATOM      7  C   LIG A   1      -8.070  -2.824 128.786  0.00  0.00    +0.130 A 
ATOM      8  C   LIG A   1      -8.825  -3.771 128.106  0.00  0.00    +0.048 A 
ATOM      9  C   LIG A   1      -9.127  -3.603 126.758  0.00  0.00    +0.030 A 
ATOM     10  O   LIG A   1      -7.850  -3.099 130.110  0.00  0.00    -0.482 OA
ATOM     11  C   LIG A   1      -6.884  -2.307 130.826  0.00  0.00    +0.123 C 
ATOM     12  C   LIG A   1      -5.649  -3.190 131.038  0.00  0.00    +0.060 C 
ATOM     13  C   LIG A   1      -7.526  -1.987 132.182  0.00  0.00    +0.060 C 
ATOM     14  C   LIG A   1      -6.487  -1.016 130.156  0.00  0.00    +0.020 C 
ATOM     15  C   LIG A   1      -6.834  -0.701 128.904  0.00  0.00    +0.012 C 
ATOM     16  H   LIG A   1      -9.335  -2.607 124.121  0.00  0.00    +0.165 HD
ENDROOT
BRANCH   1  17
ATOM     17  C   LIG A   1      -6.854   0.846 125.866  0.00  0.00    +0.059 C 
BRANCH  17  18
ATOM     18  C   LIG A   1      -7.726   2.078 125.574  0.00  0.00    +0.134 C 
BRANCH  18  30
ATOM     19  O   LIG A   1      -5.414   3.478 124.970  0.00  0.00    -0.267 OA
ATOM     20  C   LIG A   1      -6.246   3.324 124.082  0.00  0.00    +0.264 A 
ATOM     21  C   LIG A   1      -5.960   3.842 122.731  0.00  0.00    +0.063 A 
ATOM     22  C   LIG A   1      -6.930   3.733 121.739  0.00  0.00    +0.058 A 
ATOM     23  C   LIG A   1      -6.632   4.232 120.459  0.00  0.00    +0.026 A 
ATOM     24  C   LIG A   1      -5.391   4.820 120.186  0.00  0.00    +0.002 A 
ATOM     25  C   LIG A   1      -4.431   4.918 121.187  0.00  0.00    +0.001 A 
ATOM     26  C   LIG A   1      -4.715   4.431 122.462  0.00  0.00    +0.015 A 
ATOM     27  N   LIG A   1      -8.178   3.126 122.044  0.00  0.00    -0.296 N 
ATOM     28  C   LIG A   1      -9.202   3.035 121.010  0.00  0.00    +0.154 C 
ATOM     29  C   LIG A   1      -8.456   2.584 123.295  0.00  0.00    +0.332 A 
ATOM     30  N   LIG A   1      -7.461   2.675 124.261  0.00  0.00    -0.260 N 
ATOM     31  O   LIG A   1      -9.539   2.046 123.537  0.00  0.00    -0.246 OA
ENDBRANCH  18  30
ENDBRANCH  17  18
ENDBRANCH   1  17
TORSDOF 3
ENDMDL
MODEL 3
REMARK VINA RESULT:      -8.6      2.302      3.077
REMARK  Name = NuBBE_1107
REMARK  6 active torsions:
REMARK  status: ('A' for Active; 'I' for Inactive)
REMARK    1  A    between atoms: N_9  and  C_10
REMARK    2  A    between atoms: N_12  and  C_13
REMARK    3  A    between atoms: C_13  and  C_14
REMARK    4  A    between atoms: C_14  and  C_15
REMARK    5  A    between atoms: C_25  and  C_26
REMARK    6  A    between atoms: C_25  and  C_27
REMARK                            x       y       z     vdW  Elec       q    Type
REMARK                         _______ _______ _______ _____ _____    ______ ____
ROOT
ATOM      1  C   LIG A   1      -7.834   2.674 128.962  0.00  0.00    -0.020 A 
ATOM      2  C   LIG A   1      -8.411   3.734 129.640  0.00  0.00    +0.087 A 
ATOM      3  N   LIG A   1      -8.975   3.265 130.788  0.00  0.00    -0.360 N 
ATOM      4  C   LIG A   1      -8.779   1.909 130.897  0.00  0.00    +0.048 A 
ATOM      5  C   LIG A   1      -8.064   1.485 129.764  0.00  0.00    +0.013 A 
ATOM      6  C   LIG A   1      -7.762   0.094 129.682  0.00  0.00    +0.026 A 
ATOM      7  C   LIG A   1      -8.178  -0.775 130.708  0.00  0.00    +0.130 A 
ATOM      8  C   LIG A   1      -8.874  -0.300 131.812  0.00  0.00    +0.048 A 
ATOM      9  C   LIG A   1      -9.193   1.049 131.923  0.00  0.00    +0.030 A 
ATOM     10  O   LIG A   1      -7.916  -2.119 130.721  0.00  0.00    -0.482 OA
ATOM     11  C   LIG A   1      -7.419  -2.735 129.518  0.00  0.00    +0.123 C 
ATOM     12  C   LIG A   1      -8.570  -3.556 128.926  0.00  0.00    +0.060 C 
ATOM     13  C   LIG A   1      -6.292  -3.676 129.963  0.00  0.00    +0.060 C 
ATOM     14  C   LIG A   1      -6.879  -1.781 128.483  0.00  0.00    +0.020 C 
ATOM     15  C   LIG A   1      -7.021  -0.454 128.560  0.00  0.00    +0.012 C 
ATOM     16  H   LIG A   1      -9.468   3.825 131.469  0.00  0.00    +0.165 HD
ENDROOT
BRANCH   1  17
ATOM     17  C   LIG A   1      -7.123   2.828 127.644  0.00  0.00    +0.059 C 
BRANCH  17  18
ATOM     18  C   LIG A   1      -7.668   4.002 126.816  0.00  0.00    +0.134 C 
BRANCH  18  30
ATOM     19  O   LIG A   1      -5.516   5.120 125.477  0.00  0.00    -0.267 OA
ATOM     20  C   LIG A   1      -6.303   4.433 124.835  0.00  0.00    +0.264 A 
ATOM     21  C   LIG A   1      -6.046   4.193 123.402  0.00  0.00    +0.063 A 
ATOM     22  C   LIG A   1      -6.974   3.475 122.654  0.00  0.00    +0.058 A 
ATOM     23  C   LIG A   1      -6.704   3.258 121.292  0.00  0.00    +0.026 A 
ATOM     24  C   LIG A   1      -5.532   3.747 120.703  0.00  0.00    +0.002 A 
ATOM     25  C   LIG A   1      -4.614   4.460 121.465  0.00  0.00    +0.001 A 
ATOM     26  C   LIG A   1      -4.870   4.686 122.816  0.00  0.00    +0.015 A 
ATOM     27  N   LIG A   1      -8.151   2.986 123.281  0.00  0.00    -0.296 N 
ATOM     28  C   LIG A   1      -9.134   2.255 122.489  0.00  0.00    +0.154 C 
ATOM     29  C   LIG A   1      -8.395   3.154 124.640  0.00  0.00    +0.332 A 
ATOM     30  N   LIG A   1      -7.441   3.847 125.375  0.00  0.00    -0.260 N 
ATOM     31  O   LIG A   1      -9.416   2.708 125.170  0.00  0.00    -0.246 OA
ENDBRANCH  18  30
ENDBRANCH  17  18
ENDBRANCH   1  17
TORSDOF 3
ENDMDL
MODEL 4
REMARK VINA RESULT:      -8.4      2.020      3.399
REMARK  Name = NuBBE_1107
REMARK  6 active torsions:
REMARK  status: ('A' for Active; 'I' for Inactive)
REMARK    1  A    between atoms: N_9  and  C_10
REMARK    2  A    between atoms: N_12  and  C_13
REMARK    3  A    between atoms: C_13  and  C_14
REMARK    4  A    between atoms: C_14  and  C_15
REMARK    5  A    between atoms: C_25  and  C_26
REMARK    6  A    between atoms: C_25  and  C_27
REMARK                            x       y       z     vdW  Elec       q    Type
REMARK                         _______ _______ _______ _____ _____    ______ ____
ROOT
ATOM      1  C   LIG A   1      -6.732  -1.509 129.427  0.00  0.00    -0.020 A 
ATOM      2  C   LIG A   1      -7.546  -2.012 130.427  0.00  0.00    +0.087 A 
ATOM      3  N   LIG A   1      -8.428  -2.891 129.875  0.00  0.00    -0.360 N 
ATOM      4  C   LIG A   1      -8.215  -2.993 128.522  0.00  0.00    +0.048 A 
ATOM      5  C   LIG A   1      -7.154  -2.136 128.186  0.00  0.00    +0.013 A 
ATOM      6  C   LIG A   1      -6.777  -2.091 126.811  0.00  0.00    +0.026 A 
ATOM      7  C   LIG A   1      -7.461  -2.884 125.872  0.00  0.00    +0.130 A 
ATOM      8  C   LIG A   1      -8.498  -3.722 126.260  0.00  0.00    +0.048 A 
ATOM      9  C   LIG A   1      -8.898  -3.787 127.591  0.00  0.00    +0.030 A 
ATOM     10  O   LIG A   1      -7.156  -2.918 124.537  0.00  0.00    -0.482 OA
ATOM     11  C   LIG A   1      -6.268  -1.914 124.008  0.00  0.00    +0.123 C 
ATOM     12  C   LIG A   1      -7.128  -0.942 123.192  0.00  0.00    +0.060 C 
ATOM     13  C   LIG A   1      -5.304  -2.656 123.075  0.00  0.00    +0.060 C 
ATOM     14  C   LIG A   1      -5.468  -1.157 125.037  0.00  0.00    +0.020 C 
ATOM     15  C   LIG A   1      -5.689  -1.247 126.353  0.00  0.00    +0.012 C 
ATOM     16  H   LIG A   1      -9.140  -3.400 130.380  0.00  0.00    +0.165 HD
ENDROOT
BRANCH   1  17
ATOM     17  C   LIG A   1      -5.641  -0.503 129.679  0.00  0.00    +0.059 C 
BRANCH  17  18
ATOM     18  C   LIG A   1      -6.157   0.944 129.648  0.00  0.00    +0.134 C 
BRANCH  18  30
ATOM     19  O   LIG A   1      -8.130   1.123 127.711  0.00  0.00    -0.267 OA
ATOM     20  C   LIG A   1      -7.045   1.647 127.481  0.00  0.00    +0.264 A 
ATOM     21  C   LIG A   1      -6.855   2.385 126.219  0.00  0.00    +0.063 A 
ATOM     22  C   LIG A   1      -5.605   2.920 125.923  0.00  0.00    +0.058 A 
ATOM     23  C   LIG A   1      -5.451   3.621 124.714  0.00  0.00    +0.026 A 
ATOM     24  C   LIG A   1      -6.526   3.782 123.833  0.00  0.00    +0.002 A 
ATOM     25  C   LIG A   1      -7.770   3.245 124.145  0.00  0.00    +0.001 A 
ATOM     26  C   LIG A   1      -7.936   2.544 125.338  0.00  0.00    +0.015 A 
ATOM     27  N   LIG A   1      -4.534   2.745 126.839  0.00  0.00    -0.296 N 
ATOM     28  C   LIG A   1      -3.218   3.284 126.515  0.00  0.00    +0.154 C 
ATOM     29  C   LIG A   1      -4.697   2.097 128.060  0.00  0.00    +0.332 A 
ATOM     30  N   LIG A   1      -5.962   1.599 128.350  0.00  0.00    -0.260 N 
ATOM     31  O   LIG A   1      -3.759   1.969 128.851  0.00  0.00    -0.246 OA
ENDBRANCH  18  30
ENDBRANCH  17  18
ENDBRANCH   1  17
TORSDOF 3
ENDMDL
MODEL 5
REMARK VINA RESULT:      -8.4      4.019      5.571
REMARK  Name = NuBBE_1107
REMARK  6 active torsions:
REMARK  status: ('A' for Active; 'I' for Inactive)
REMARK    1  A    between atoms: N_9  and  C_10
REMARK    2  A    between atoms: N_12  and  C_13
REMARK    3  A    between atoms: C_13  and  C_14
REMARK    4  A    between atoms: C_14  and  C_15
REMARK    5  A    between atoms: C_25  and  C_26
REMARK    6  A    between atoms: C_25  and  C_27
REMARK                            x       y       z     vdW  Elec       q    Type
REMARK                         _______ _______ _______ _____ _____    ______ ____
ROOT
ATOM      1  C   LIG A   1      -8.264   1.132 129.874  0.00  0.00    -0.020 A 
ATOM      2  C   LIG A   1      -8.144   1.087 131.252  0.00  0.00    +0.087 A 
ATOM      3  N   LIG A   1      -7.786  -0.175 131.620  0.00  0.00    -0.360 N 
ATOM      4  C   LIG A   1      -7.656  -0.976 130.511  0.00  0.00    +0.048 A 
ATOM      5  C   LIG A   1      -7.951  -0.197 129.379  0.00  0.00    +0.013 A 
ATOM      6  C   LIG A   1      -7.878  -0.852 128.115  0.00  0.00    +0.026 A 
ATOM      7  C   LIG A   1      -7.524  -2.212 128.049  0.00  0.00    +0.130 A 
ATOM      8  C   LIG A   1      -7.232  -2.933 129.201  0.00  0.00    +0.048 A 
ATOM      9  C   LIG A   1      -7.299  -2.329 130.452  0.00  0.00    +0.030 A 
ATOM     10  O   LIG A   1      -7.411  -2.915 126.880  0.00  0.00    -0.482 OA
ATOM     11  C   LIG A   1      -7.924  -2.325 125.670  0.00  0.00    +0.123 C 
ATOM     12  C   LIG A   1      -9.214  -3.074 125.318  0.00  0.00    +0.060 C 
ATOM     13  C   LIG A   1      -6.865  -2.590 124.593  0.00  0.00    +0.060 C 
ATOM     14  C   LIG A   1      -8.191  -0.843 125.740  0.00  0.00    +0.020 C 
ATOM     15  C   LIG A   1      -8.155  -0.143 126.878  0.00  0.00    +0.012 C 
ATOM     16  H   LIG A   1      -7.635  -0.487 132.569  0.00  0.00    +0.165 HD
ENDROOT
BRANCH   1  17
ATOM     17  C   LIG A   1      -8.653   2.377 129.121  0.00  0.00    +0.059 C 
BRANCH  17  18
ATOM     18  C   LIG A   1      -8.040   3.648 129.730  0.00  0.00    +0.134 C 
BRANCH  18  30
ATOM     19  O   LIG A   1      -8.579   5.340 127.604  0.00  0.00    -0.267 OA
ATOM     20  C   LIG A   1      -9.188   5.518 128.654  0.00  0.00    +0.264 A 
ATOM     21  C   LIG A   1     -10.206   6.583 128.724  0.00  0.00    +0.063 A 
ATOM     22  C   LIG A   1     -10.848   6.835 129.933  0.00  0.00    +0.058 A 
ATOM     23  C   LIG A   1     -11.816   7.854 129.972  0.00  0.00    +0.026 A 
ATOM     24  C   LIG A   1     -12.131   8.593 128.825  0.00  0.00    +0.002 A 
ATOM     25  C   LIG A   1     -11.484   8.326 127.625  0.00  0.00    +0.001 A 
ATOM     26  C   LIG A   1     -10.518   7.322 127.572  0.00  0.00    +0.015 A 
ATOM     27  N   LIG A   1     -10.511   6.065 131.078  0.00  0.00    -0.296 N 
ATOM     28  C   LIG A   1     -11.166   6.348 132.350  0.00  0.00    +0.154 C 
ATOM     29  C   LIG A   1      -9.592   5.022 131.029  0.00  0.00    +0.332 A 
ATOM     30  N   LIG A   1      -8.986   4.766 129.805  0.00  0.00    -0.260 N 
ATOM     31  O   LIG A   1      -9.324   4.353 132.030  0.00  0.00    -0.246 OA
ENDBRANCH  18  30
ENDBRANCH  17  18
ENDBRANCH   1  17
TORSDOF 3
ENDMDL
MODEL 6
REMARK VINA RESULT:      -8.3      5.763      7.938
REMARK  Name = NuBBE_1107
REMARK  6 active torsions:
REMARK  status: ('A' for Active; 'I' for Inactive)
REMARK    1  A    between atoms: N_9  and  C_10
REMARK    2  A    between atoms: N_12  and  C_13
REMARK    3  A    between atoms: C_13  and  C_14
REMARK    4  A    between atoms: C_14  and  C_15
REMARK    5  A    between atoms: C_25  and  C_26
REMARK    6  A    between atoms: C_25  and  C_27
REMARK                            x       y       z     vdW  Elec       q    Type
REMARK                         _______ _______ _______ _____ _____    ______ ____
ROOT
ATOM      1  C   LIG A   1      -7.257   4.524 132.817  0.00  0.00    -0.020 A 
ATOM      2  C   LIG A   1      -7.135   3.300 133.450  0.00  0.00    +0.087 A 
ATOM      3  N   LIG A   1      -8.138   2.484 133.023  0.00  0.00    -0.360 N 
ATOM      4  C   LIG A   1      -8.927   3.138 132.107  0.00  0.00    +0.048 A 
ATOM      5  C   LIG A   1      -8.414   4.435 131.944  0.00  0.00    +0.013 A 
ATOM      6  C   LIG A   1      -9.102   5.285 131.029  0.00  0.00    +0.026 A 
ATOM      7  C   LIG A   1     -10.235   4.808 130.345  0.00  0.00    +0.130 A 
ATOM      8  C   LIG A   1     -10.695   3.511 130.537  0.00  0.00    +0.048 A 
ATOM      9  C   LIG A   1     -10.053   2.655 131.426  0.00  0.00    +0.030 A 
ATOM     10  O   LIG A   1     -10.944   5.547 129.437  0.00  0.00    -0.482 OA
ATOM     11  C   LIG A   1     -10.693   6.963 129.355  0.00  0.00    +0.123 C 
ATOM     12  C   LIG A   1     -11.893   7.670 129.995  0.00  0.00    +0.060 C 
ATOM     13  C   LIG A   1     -10.639   7.293 127.858  0.00  0.00    +0.060 C 
ATOM     14  C   LIG A   1      -9.414   7.427 130.005  0.00  0.00    +0.020 C 
ATOM     15  C   LIG A   1      -8.654   6.643 130.776  0.00  0.00    +0.012 C 
ATOM     16  H   LIG A   1      -8.290   1.532 133.328  0.00  0.00    +0.165 HD
ENDROOT
BRANCH   1  17
ATOM     17  C   LIG A   1      -6.314   5.674 133.058  0.00  0.00    +0.059 C 
BRANCH  17  18
ATOM     18  C   LIG A   1      -4.840   5.264 132.915  0.00  0.00    +0.134 C 
BRANCH  18  30
ATOM     19  O   LIG A   1      -4.340   2.922 131.522  0.00  0.00    -0.267 OA
ATOM     20  C   LIG A   1      -4.200   3.988 130.931  0.00  0.00    +0.264 A 
ATOM     21  C   LIG A   1      -3.824   3.976 129.505  0.00  0.00    +0.063 A 
ATOM     22  C   LIG A   1      -3.595   5.182 128.850  0.00  0.00    +0.058 A 
ATOM     23  C   LIG A   1      -3.240   5.143 127.490  0.00  0.00    +0.026 A 
ATOM     24  C   LIG A   1      -3.125   3.925 126.810  0.00  0.00    +0.002 A 
ATOM     25  C   LIG A   1      -3.360   2.729 127.478  0.00  0.00    +0.001 A 
ATOM     26  C   LIG A   1      -3.709   2.752 128.827  0.00  0.00    +0.015 A 
ATOM     27  N   LIG A   1      -3.725   6.403 129.565  0.00  0.00    -0.296 N 
ATOM     28  C   LIG A   1      -3.459   7.664 128.883  0.00  0.00    +0.154 C 
ATOM     29  C   LIG A   1      -4.127   6.446 130.896  0.00  0.00    +0.332 A 
ATOM     30  N   LIG A   1      -4.382   5.232 131.522  0.00  0.00    -0.260 N 
ATOM     31  O   LIG A   1      -4.250   7.517 131.496  0.00  0.00    -0.246 OA
ENDBRANCH  18  30
ENDBRANCH  17  18
ENDBRANCH   1  17
TORSDOF 3
ENDMDL
MODEL 7
REMARK VINA RESULT:      -8.3      4.066      6.635
REMARK  Name = NuBBE_1107
REMARK  6 active torsions:
REMARK  status: ('A' for Active; 'I' for Inactive)
REMARK    1  A    between atoms: N_9  and  C_10
REMARK    2  A    between atoms: N_12  and  C_13
REMARK    3  A    between atoms: C_13  and  C_14
REMARK    4  A    between atoms: C_14  and  C_15
REMARK    5  A    between atoms: C_25  and  C_26
REMARK    6  A    between atoms: C_25  and  C_27
REMARK                            x       y       z     vdW  Elec       q    Type
REMARK                         _______ _______ _______ _____ _____    ______ ____
ROOT
ATOM      1  C   LIG A   1      -7.654   3.274 126.404  0.00  0.00    -0.020 A 
ATOM      2  C   LIG A   1      -7.321   4.449 125.754  0.00  0.00    +0.087 A 
ATOM      3  N   LIG A   1      -7.056   4.168 124.448  0.00  0.00    -0.360 N 
ATOM      4  C   LIG A   1      -7.213   2.824 124.208  0.00  0.00    +0.048 A 
ATOM      5  C   LIG A   1      -7.589   2.212 125.415  0.00  0.00    +0.013 A 
ATOM      6  C   LIG A   1      -7.798   0.801 125.380  0.00  0.00    +0.026 A 
ATOM      7  C   LIG A   1      -7.626   0.098 124.174  0.00  0.00    +0.130 A 
ATOM      8  C   LIG A   1      -7.262   0.755 123.006  0.00  0.00    +0.048 A 
ATOM      9  C   LIG A   1      -7.043   2.129 123.003  0.00  0.00    +0.030 A 
ATOM     10  O   LIG A   1      -7.823  -1.251 124.044  0.00  0.00    -0.482 OA
ATOM     11  C   LIG A   1      -7.962  -2.045 125.238  0.00  0.00    +0.123 C 
ATOM     12  C   LIG A   1      -6.660  -2.839 125.402  0.00  0.00    +0.060 C 
ATOM     13  C   LIG A   1      -9.123  -3.010 124.968  0.00  0.00    +0.060 C 
ATOM     14  C   LIG A   1      -8.254  -1.268 126.496  0.00  0.00    +0.020 C 
ATOM     15  C   LIG A   1      -8.196   0.066 126.567  0.00  0.00    +0.012 C 
ATOM     16  H   LIG A   1      -6.782   4.843 123.747  0.00  0.00    +0.165 HD
ENDROOT
BRANCH   1  17
ATOM     17  C   LIG A   1      -8.004   3.212 127.867  0.00  0.00    +0.059 C 
BRANCH  17  18
ATOM     18  C   LIG A   1      -7.540   4.459 128.635  0.00  0.00    +0.134 C 
BRANCH  18  30
ATOM     19  O   LIG A   1      -9.508   6.174 127.708  0.00  0.00    -0.267 OA
ATOM     20  C   LIG A   1      -9.532   5.853 128.891  0.00  0.00    +0.264 A 
ATOM     21  C   LIG A   1     -10.623   6.349 129.750  0.00  0.00    +0.063 A 
ATOM     22  C   LIG A   1     -10.614   6.047 131.108  0.00  0.00    +0.058 A 
ATOM     23  C   LIG A   1     -11.667   6.529 131.904  0.00  0.00    +0.026 A 
ATOM     24  C   LIG A   1     -12.702   7.290 131.346  0.00  0.00    +0.002 A 
ATOM     25  C   LIG A   1     -12.698   7.581 129.987  0.00  0.00    +0.001 A 
ATOM     26  C   LIG A   1     -11.658   7.112 129.186  0.00  0.00    +0.015 A 
ATOM     27  N   LIG A   1      -9.554   5.268 131.645  0.00  0.00    -0.296 N 
ATOM     28  C   LIG A   1      -9.533   4.973 133.073  0.00  0.00    +0.154 C 
ATOM     29  C   LIG A   1      -8.539   4.745 130.850  0.00  0.00    +0.332 A 
ATOM     30  N   LIG A   1      -8.585   5.032 129.491  0.00  0.00    -0.260 N 
ATOM     31  O   LIG A   1      -7.635   4.057 131.331  0.00  0.00    -0.246 OA
ENDBRANCH  18  30
ENDBRANCH  17  18
ENDBRANCH   1  17
TORSDOF 3
ENDMDL
MODEL 8
REMARK VINA RESULT:      -8.3      5.002      8.027
REMARK  Name = NuBBE_1107
REMARK  6 active torsions:
REMARK  status: ('A' for Active; 'I' for Inactive)
REMARK    1  A    between atoms: N_9  and  C_10
REMARK    2  A    between atoms: N_12  and  C_13
REMARK    3  A    between atoms: C_13  and  C_14
REMARK    4  A    between atoms: C_14  and  C_15
REMARK    5  A    between atoms: C_25  and  C_26
REMARK    6  A    between atoms: C_25  and  C_27
REMARK                            x       y       z     vdW  Elec       q    Type
REMARK                         _______ _______ _______ _____ _____    ______ ____
ROOT
ATOM      1  C   LIG A   1      -2.928   5.074 130.067  0.00  0.00    -0.020 A 
ATOM      2  C   LIG A   1      -2.204   5.984 129.317  0.00  0.00    +0.087 A 
ATOM      3  N   LIG A   1      -2.229   5.595 128.012  0.00  0.00    -0.360 N 
ATOM      4  C   LIG A   1      -2.965   4.443 127.872  0.00  0.00    +0.048 A 
ATOM      5  C   LIG A   1      -3.427   4.069 129.145  0.00  0.00    +0.013 A 
ATOM      6  C   LIG A   1      -4.214   2.882 129.217  0.00  0.00    +0.026 A 
ATOM      7  C   LIG A   1      -4.490   2.152 128.047  0.00  0.00    +0.130 A 
ATOM      8  C   LIG A   1      -4.015   2.573 126.811  0.00  0.00    +0.048 A 
ATOM      9  C   LIG A   1      -3.239   3.722 126.702  0.00  0.00    +0.030 A 
ATOM     10  O   LIG A   1      -5.251   1.014 128.020  0.00  0.00    -0.482 OA
ATOM     11  C   LIG A   1      -5.578   0.376 129.269  0.00  0.00    +0.123 C 
ATOM     12  C   LIG A   1      -4.725  -0.894 129.360  0.00  0.00    +0.060 C 
ATOM     13  C   LIG A   1      -7.061  -0.007 129.169  0.00  0.00    +0.060 C 
ATOM     14  C   LIG A   1      -5.374   1.224 130.498  0.00  0.00    +0.020 C 
ATOM     15  C   LIG A   1      -4.751   2.407 130.480  0.00  0.00    +0.012 C 
ATOM     16  H   LIG A   1      -1.776   6.077 127.248  0.00  0.00    +0.165 HD
ENDROOT
BRANCH   1  17
ATOM     17  C   LIG A   1      -3.106   5.192 131.558  0.00  0.00    +0.059 C 
BRANCH  17  18
ATOM     18  C   LIG A   1      -3.795   6.503 131.965  0.00  0.00    +0.134 C 
BRANCH  18  30
ATOM     19  O   LIG A   1      -5.785   7.448 130.285  0.00  0.00    -0.267 OA
ATOM     20  C   LIG A   1      -6.122   6.836 131.293  0.00  0.00    +0.264 A 
ATOM     21  C   LIG A   1      -7.554   6.588 131.541  0.00  0.00    +0.063 A 
ATOM     22  C   LIG A   1      -7.945   5.958 132.718  0.00  0.00    +0.058 A 
ATOM     23  C   LIG A   1      -9.316   5.732 132.928  0.00  0.00    +0.026 A 
ATOM     24  C   LIG A   1     -10.265   6.125 131.977  0.00  0.00    +0.002 A 
ATOM     25  C   LIG A   1      -9.859   6.750 130.804  0.00  0.00    +0.001 A 
ATOM     26  C   LIG A   1      -8.503   6.985 130.584  0.00  0.00    +0.015 A 
ATOM     27  N   LIG A   1      -6.958   5.565 133.662  0.00  0.00    -0.296 N 
ATOM     28  C   LIG A   1      -7.372   4.927 134.907  0.00  0.00    +0.154 C 
ATOM     29  C   LIG A   1      -5.598   5.740 133.433  0.00  0.00    +0.332 A 
ATOM     30  N   LIG A   1      -5.228   6.343 132.236  0.00  0.00    -0.260 N 
ATOM     31  O   LIG A   1      -4.754   5.378 134.257  0.00  0.00    -0.246 OA
ENDBRANCH  18  30
ENDBRANCH  17  18
ENDBRANCH   1  17
TORSDOF 3
ENDMDL
MODEL 9
REMARK VINA RESULT:      -8.3      3.984      7.656
REMARK  Name = NuBBE_1107
REMARK  6 active torsions:
REMARK  status: ('A' for Active; 'I' for Inactive)
REMARK    1  A    between atoms: N_9  and  C_10
REMARK    2  A    between atoms: N_12  and  C_13
REMARK    3  A    between atoms: C_13  and  C_14
REMARK    4  A    between atoms: C_14  and  C_15
REMARK    5  A    between atoms: C_25  and  C_26
REMARK    6  A    between atoms: C_25  and  C_27
REMARK                            x       y       z     vdW  Elec       q    Type
REMARK                         _______ _______ _______ _____ _____    ______ ____
ROOT
ATOM      1  C   LIG A   1      -8.127   1.678 131.876  0.00  0.00    -0.020 A 
ATOM      2  C   LIG A   1      -7.260   1.154 132.819  0.00  0.00    +0.087 A 
ATOM      3  N   LIG A   1      -7.091   2.067 133.815  0.00  0.00    -0.360 N 
ATOM      4  C   LIG A   1      -7.836   3.194 133.560  0.00  0.00    +0.048 A 
ATOM      5  C   LIG A   1      -8.509   3.000 132.343  0.00  0.00    +0.013 A 
ATOM      6  C   LIG A   1      -9.340   4.068 131.893  0.00  0.00    +0.026 A 
ATOM      7  C   LIG A   1      -9.452   5.240 132.663  0.00  0.00    +0.130 A 
ATOM      8  C   LIG A   1      -8.771   5.375 133.867  0.00  0.00    +0.048 A 
ATOM      9  C   LIG A   1      -7.946   4.357 134.333  0.00  0.00    +0.030 A 
ATOM     10  O   LIG A   1     -10.240   6.305 132.319  0.00  0.00    -0.482 OA
ATOM     11  C   LIG A   1     -10.785   6.356 130.986  0.00  0.00    +0.123 C 
ATOM     12  C   LIG A   1     -10.004   7.431 130.223  0.00  0.00    +0.060 C 
ATOM     13  C   LIG A   1     -12.245   6.798 131.147  0.00  0.00    +0.060 C 
ATOM     14  C   LIG A   1     -10.749   5.054 130.227  0.00  0.00    +0.020 C 
ATOM     15  C   LIG A   1     -10.089   3.973 130.653  0.00  0.00    +0.012 C 
ATOM     16  H   LIG A   1      -6.505   1.945 134.629  0.00  0.00    +0.165 HD
ENDROOT
BRANCH   1  17
ATOM     17  C   LIG A   1      -8.537   0.937 130.631  0.00  0.00    +0.059 C 
BRANCH  17  18
ATOM     18  C   LIG A   1      -7.511   1.084 129.496  0.00  0.00    +0.134 C 
BRANCH  18  30
ATOM     19  O   LIG A   1      -7.062  -1.607 129.017  0.00  0.00    -0.267 OA
ATOM     20  C   LIG A   1      -7.658  -0.960 128.163  0.00  0.00    +0.264 A 
ATOM     21  C   LIG A   1      -8.148  -1.644 126.952  0.00  0.00    +0.063 A 
ATOM     22  C   LIG A   1      -8.760  -0.900 125.948  0.00  0.00    +0.058 A 
ATOM     23  C   LIG A   1      -9.221  -1.577 124.806  0.00  0.00    +0.026 A 
ATOM     24  C   LIG A   1      -9.073  -2.963 124.681  0.00  0.00    +0.002 A 
ATOM     25  C   LIG A   1      -8.463  -3.693 125.694  0.00  0.00    +0.001 A 
ATOM     26  C   LIG A   1      -7.997  -3.034 126.831  0.00  0.00    +0.015 A 
ATOM     27  N   LIG A   1      -8.902   0.505 126.106  0.00  0.00    -0.296 N 
ATOM     28  C   LIG A   1      -9.521   1.287 125.041  0.00  0.00    +0.154 C 
ATOM     29  C   LIG A   1      -8.494   1.170 127.258  0.00  0.00    +0.332 A 
ATOM     30  N   LIG A   1      -7.914   0.403 128.261  0.00  0.00    -0.260 N 
ATOM     31  O   LIG A   1      -8.639   2.388 127.384  0.00  0.00    -0.246 OA
ENDBRANCH  18  30
ENDBRANCH  17  18
ENDBRANCH   1  17
TORSDOF 3
ENDMDL
