MODEL 1
REMARK VINA RESULT:      -6.8      0.000      0.000
REMARK  Name = NuBBE_1983
REMARK  10 active torsions:
REMARK  status: ('A' for Active; 'I' for Inactive)
REMARK    1  A    between atoms: C_1  and  C_2
REMARK    2  A    between atoms: C_1  and  C_13
REMARK    3  A    between atoms: C_2  and  C_3
REMARK    4  A    between atoms: C_3  and  C_4
REMARK    5  A    between atoms: C_6  and  O_7
REMARK    6  A    between atoms: O_7  and  C_8
REMARK    7  A    between atoms: C_10  and  O_12
REMARK    8  A    between atoms: C_15  and  O_16
REMARK    9  A    between atoms: C_17  and  O_20
REMARK   10  A    between atoms: O_20  and  C_21
REMARK                            x       y       z     vdW  Elec       q    Type
REMARK                         _______ _______ _______ _____ _____    ______ ____
ROOT
ATOM      1  C   LIG A   1      -9.504   1.512 123.691  0.00  0.00    +0.009 C 
ENDROOT
BRANCH   1   2
ATOM      2  C   LIG A   1      -8.153   2.238 123.694  0.00  0.00    +0.035 C 
BRANCH   2   3
ATOM      3  C   LIG A   1      -7.856   2.948 122.397  0.00  0.00    -0.044 A 
ATOM      4  C   LIG A   1      -8.887   3.231 121.494  0.00  0.00    +0.052 A 
ATOM      5  C   LIG A   1      -8.612   3.843 120.263  0.00  0.00    +0.159 A 
ATOM      6  C   LIG A   1      -7.298   4.168 119.909  0.00  0.00    +0.161 A 
ATOM      7  C   LIG A   1      -6.273   3.887 120.818  0.00  0.00    +0.049 A 
ATOM      8  C   LIG A   1      -6.545   3.293 122.051  0.00  0.00    +0.007 A 
BRANCH   5   9
ATOM      9  O   LIG A   1      -9.665   4.102 119.428  0.00  0.00    -0.503 OA
ATOM     10  H   LIG A   1      -9.482   4.913 118.927  0.00  0.00    +0.292 HD
ENDBRANCH   5   9
BRANCH   6  11
ATOM     11  O   LIG A   1      -6.844   4.743 118.754  0.00  0.00    -0.491 OA
ATOM     12  C   LIG A   1      -5.808   5.709 118.851  0.00  0.00    +0.277 C 
ENDBRANCH   6  11
ENDBRANCH   2   3
ENDBRANCH   1   2
BRANCH   1  13
ATOM     13  C   LIG A   1      -9.448   0.128 123.031  0.00  0.00    +0.035 C 
BRANCH  13  14
ATOM     14  C   LIG A   1      -8.480  -0.813 123.707  0.00  0.00    -0.041 A 
ATOM     15  C   LIG A   1      -8.688  -1.206 125.040  0.00  0.00    +0.049 A 
ATOM     16  C   LIG A   1      -7.812  -2.100 125.660  0.00  0.00    +0.124 A 
ATOM     17  C   LIG A   1      -6.706  -2.584 124.961  0.00  0.00    +0.091 A 
ATOM     18  C   LIG A   1      -6.500  -2.193 123.641  0.00  0.00    +0.121 A 
ATOM     19  C   LIG A   1      -7.378  -1.321 123.011  0.00  0.00    +0.049 A 
BRANCH  16  20
ATOM     20  O   LIG A   1      -7.914  -2.525 126.958  0.00  0.00    -0.495 OA
ATOM     21  C   LIG A   1      -8.847  -3.578 127.187  0.00  0.00    +0.277 C 
ENDBRANCH  16  20
BRANCH  18  22
ATOM     22  O   LIG A   1      -5.437  -2.649 122.922  0.00  0.00    -0.507 OA
ATOM     23  H   LIG A   1      -4.903  -3.223 123.494  0.00  0.00    +0.292 HD
ENDBRANCH  18  22
ENDBRANCH  13  14
ENDBRANCH   1  13
TORSDOF 8
ENDMDL
MODEL 2
REMARK VINA RESULT:      -6.7      9.558     11.832
REMARK  Name = NuBBE_1983
REMARK  10 active torsions:
REMARK  status: ('A' for Active; 'I' for Inactive)
REMARK    1  A    between atoms: C_1  and  C_2
REMARK    2  A    between atoms: C_1  and  C_13
REMARK    3  A    between atoms: C_2  and  C_3
REMARK    4  A    between atoms: C_3  and  C_4
REMARK    5  A    between atoms: C_6  and  O_7
REMARK    6  A    between atoms: O_7  and  C_8
REMARK    7  A    between atoms: C_10  and  O_12
REMARK    8  A    between atoms: C_15  and  O_16
REMARK    9  A    between atoms: C_17  and  O_20
REMARK   10  A    between atoms: O_20  and  C_21
REMARK                            x       y       z     vdW  Elec       q    Type
REMARK                         _______ _______ _______ _____ _____    ______ ____
ROOT
ATOM      1  C   LIG A   1     -10.149   5.440 131.796  0.00  0.00    +0.009 C 
ENDROOT
BRANCH   1   2
ATOM      2  C   LIG A   1      -9.165   5.754 132.930  0.00  0.00    +0.035 C 
BRANCH   2   3
ATOM      3  C   LIG A   1      -7.770   6.056 132.442  0.00  0.00    -0.044 A 
ATOM      4  C   LIG A   1      -6.658   5.681 133.206  0.00  0.00    +0.052 A 
ATOM      5  C   LIG A   1      -5.361   6.004 132.785  0.00  0.00    +0.159 A 
ATOM      6  C   LIG A   1      -5.155   6.722 131.602  0.00  0.00    +0.161 A 
ATOM      7  C   LIG A   1      -6.270   7.089 130.842  0.00  0.00    +0.049 A 
ATOM      8  C   LIG A   1      -7.563   6.755 131.249  0.00  0.00    +0.007 A 
BRANCH   5   9
ATOM      9  O   LIG A   1      -4.315   5.601 133.570  0.00  0.00    -0.503 OA
ATOM     10  H   LIG A   1      -4.344   4.636 133.668  0.00  0.00    +0.292 HD
ENDBRANCH   5   9
BRANCH   6  11
ATOM     11  O   LIG A   1      -3.975   7.140 131.052  0.00  0.00    -0.491 OA
ATOM     12  C   LIG A   1      -3.855   7.129 129.638  0.00  0.00    +0.277 C 
ENDBRANCH   6  11
ENDBRANCH   2   3
ENDBRANCH   1   2
BRANCH   1  13
ATOM     13  C   LIG A   1     -11.328   6.421 131.726  0.00  0.00    +0.035 C 
BRANCH  13  14
ATOM     14  C   LIG A   1     -11.472   7.080 130.376  0.00  0.00    -0.041 A 
ATOM     15  C   LIG A   1     -12.376   8.140 130.198  0.00  0.00    +0.049 A 
ATOM     16  C   LIG A   1     -12.492   8.773 128.957  0.00  0.00    +0.124 A 
ATOM     17  C   LIG A   1     -11.724   8.329 127.880  0.00  0.00    +0.091 A 
ATOM     18  C   LIG A   1     -10.830   7.278 128.057  0.00  0.00    +0.121 A 
ATOM     19  C   LIG A   1     -10.695   6.659 129.292  0.00  0.00    +0.049 A 
BRANCH  16  20
ATOM     20  O   LIG A   1     -13.357   9.796 128.676  0.00  0.00    -0.495 OA
ATOM     21  C   LIG A   1     -13.481  10.790 129.689  0.00  0.00    +0.277 C 
ENDBRANCH  16  20
BRANCH  18  22
ATOM     22  O   LIG A   1     -10.057   6.822 127.032  0.00  0.00    -0.507 OA
ATOM     23  H   LIG A   1     -10.469   7.087 126.195  0.00  0.00    +0.292 HD
ENDBRANCH  18  22
ENDBRANCH  13  14
ENDBRANCH   1  13
TORSDOF 8
ENDMDL
MODEL 3
REMARK VINA RESULT:      -6.5     10.380     11.663
REMARK  Name = NuBBE_1983
REMARK  10 active torsions:
REMARK  status: ('A' for Active; 'I' for Inactive)
REMARK    1  A    between atoms: C_1  and  C_2
REMARK    2  A    between atoms: C_1  and  C_13
REMARK    3  A    between atoms: C_2  and  C_3
REMARK    4  A    between atoms: C_3  and  C_4
REMARK    5  A    between atoms: C_6  and  O_7
REMARK    6  A    between atoms: O_7  and  C_8
REMARK    7  A    between atoms: C_10  and  O_12
REMARK    8  A    between atoms: C_15  and  O_16
REMARK    9  A    between atoms: C_17  and  O_20
REMARK   10  A    between atoms: O_20  and  C_21
REMARK                            x       y       z     vdW  Elec       q    Type
REMARK                         _______ _______ _______ _____ _____    ______ ____
ROOT
ATOM      1  C   LIG A   1      -8.183   6.214 132.610  0.00  0.00    +0.009 C 
ENDROOT
BRANCH   1   2
ATOM      2  C   LIG A   1      -9.506   5.524 132.257  0.00  0.00    +0.035 C 
BRANCH   2   3
ATOM      3  C   LIG A   1     -10.392   6.356 131.363  0.00  0.00    -0.044 A 
ATOM      4  C   LIG A   1      -9.856   7.006 130.244  0.00  0.00    +0.052 A 
ATOM      5  C   LIG A   1     -10.661   7.823 129.439  0.00  0.00    +0.159 A 
ATOM      6  C   LIG A   1     -12.011   8.017 129.748  0.00  0.00    +0.161 A 
ATOM      7  C   LIG A   1     -12.541   7.362 130.865  0.00  0.00    +0.049 A 
ATOM      8  C   LIG A   1     -11.747   6.534 131.660  0.00  0.00    +0.007 A 
BRANCH   5   9
ATOM      9  O   LIG A   1     -10.081   8.422 128.354  0.00  0.00    -0.503 OA
ATOM     10  H   LIG A   1      -9.540   7.769 127.881  0.00  0.00    +0.292 HD
ENDBRANCH   5   9
BRANCH   6  11
ATOM     11  O   LIG A   1     -12.934   8.789 129.096  0.00  0.00    -0.491 OA
ATOM     12  C   LIG A   1     -13.140  10.115 129.556  0.00  0.00    +0.277 C 
ENDBRANCH   6  11
ENDBRANCH   2   3
ENDBRANCH   1   2
BRANCH   1  13
ATOM     13  C   LIG A   1      -6.948   5.371 132.266  0.00  0.00    +0.035 C 
BRANCH  13  14
ATOM     14  C   LIG A   1      -5.724   6.203 131.973  0.00  0.00    -0.041 A 
ATOM     15  C   LIG A   1      -4.648   6.225 132.876  0.00  0.00    +0.049 A 
ATOM     16  C   LIG A   1      -3.500   6.971 132.595  0.00  0.00    +0.124 A 
ATOM     17  C   LIG A   1      -3.434   7.724 131.422  0.00  0.00    +0.091 A 
ATOM     18  C   LIG A   1      -4.501   7.703 130.529  0.00  0.00    +0.121 A 
ATOM     19  C   LIG A   1      -5.636   6.947 130.791  0.00  0.00    +0.049 A 
BRANCH  16  20
ATOM     20  O   LIG A   1      -2.411   7.075 133.418  0.00  0.00    -0.495 OA
ATOM     21  C   LIG A   1      -1.234   7.603 132.813  0.00  0.00    +0.277 C 
ENDBRANCH  16  20
BRANCH  18  22
ATOM     22  O   LIG A   1      -4.471   8.417 129.369  0.00  0.00    -0.507 OA
ATOM     23  H   LIG A   1      -4.313   7.804 128.634  0.00  0.00    +0.292 HD
ENDBRANCH  18  22
ENDBRANCH  13  14
ENDBRANCH   1  13
TORSDOF 8
ENDMDL
MODEL 4
REMARK VINA RESULT:      -6.4      5.423     10.058
REMARK  Name = NuBBE_1983
REMARK  10 active torsions:
REMARK  status: ('A' for Active; 'I' for Inactive)
REMARK    1  A    between atoms: C_1  and  C_2
REMARK    2  A    between atoms: C_1  and  C_13
REMARK    3  A    between atoms: C_2  and  C_3
REMARK    4  A    between atoms: C_3  and  C_4
REMARK    5  A    between atoms: C_6  and  O_7
REMARK    6  A    between atoms: O_7  and  C_8
REMARK    7  A    between atoms: C_10  and  O_12
REMARK    8  A    between atoms: C_15  and  O_16
REMARK    9  A    between atoms: C_17  and  O_20
REMARK   10  A    between atoms: O_20  and  C_21
REMARK                            x       y       z     vdW  Elec       q    Type
REMARK                         _______ _______ _______ _____ _____    ______ ____
ROOT
ATOM      1  C   LIG A   1      -7.744  -2.590 128.833  0.00  0.00    +0.009 C 
ENDROOT
BRANCH   1   2
ATOM      2  C   LIG A   1      -7.800  -3.022 130.304  0.00  0.00    +0.035 C 
BRANCH   2   3
ATOM      3  C   LIG A   1      -6.441  -3.313 130.891  0.00  0.00    -0.044 A 
ATOM      4  C   LIG A   1      -5.300  -3.284 130.081  0.00  0.00    +0.052 A 
ATOM      5  C   LIG A   1      -4.041  -3.604 130.608  0.00  0.00    +0.159 A 
ATOM      6  C   LIG A   1      -3.906  -3.975 131.949  0.00  0.00    +0.161 A 
ATOM      7  C   LIG A   1      -5.049  -3.997 132.754  0.00  0.00    +0.049 A 
ATOM      8  C   LIG A   1      -6.302  -3.663 132.238  0.00  0.00    +0.007 A 
BRANCH   5   9
ATOM      9  O   LIG A   1      -2.963  -3.548 129.767  0.00  0.00    -0.503 OA
ATOM     10  H   LIG A   1      -2.148  -3.602 130.290  0.00  0.00    +0.292 HD
ENDBRANCH   5   9
BRANCH   6  11
ATOM     11  O   LIG A   1      -2.772  -4.338 132.624  0.00  0.00    -0.491 OA
ATOM     12  C   LIG A   1      -2.915  -4.881 133.927  0.00  0.00    +0.277 C 
ENDBRANCH   6  11
ENDBRANCH   2   3
ENDBRANCH   1   2
BRANCH   1  13
ATOM     13  C   LIG A   1      -8.586  -3.479 127.907  0.00  0.00    +0.035 C 
BRANCH  13  14
ATOM     14  C   LIG A   1      -8.354  -3.197 126.443  0.00  0.00    -0.041 A 
ATOM     15  C   LIG A   1      -7.092  -2.772 125.994  0.00  0.00    +0.049 A 
ATOM     16  C   LIG A   1      -6.864  -2.538 124.636  0.00  0.00    +0.124 A 
ATOM     17  C   LIG A   1      -7.906  -2.699 123.721  0.00  0.00    +0.091 A 
ATOM     18  C   LIG A   1      -9.155  -3.120 124.167  0.00  0.00    +0.121 A 
ATOM     19  C   LIG A   1      -9.383  -3.374 125.512  0.00  0.00    +0.049 A 
BRANCH  16  20
ATOM     20  O   LIG A   1      -5.682  -2.100 124.103  0.00  0.00    -0.495 OA
ATOM     21  C   LIG A   1      -4.832  -3.117 123.578  0.00  0.00    +0.277 C 
ENDBRANCH  16  20
BRANCH  18  22
ATOM     22  O   LIG A   1     -10.195  -3.297 123.304  0.00  0.00    -0.507 OA
ATOM     23  H   LIG A   1     -10.260  -2.513 122.737  0.00  0.00    +0.292 HD
ENDBRANCH  18  22
ENDBRANCH  13  14
ENDBRANCH   1  13
TORSDOF 8
ENDMDL
MODEL 5
REMARK VINA RESULT:      -6.4      8.854     11.181
REMARK  Name = NuBBE_1983
REMARK  10 active torsions:
REMARK  status: ('A' for Active; 'I' for Inactive)
REMARK    1  A    between atoms: C_1  and  C_2
REMARK    2  A    between atoms: C_1  and  C_13
REMARK    3  A    between atoms: C_2  and  C_3
REMARK    4  A    between atoms: C_3  and  C_4
REMARK    5  A    between atoms: C_6  and  O_7
REMARK    6  A    between atoms: O_7  and  C_8
REMARK    7  A    between atoms: C_10  and  O_12
REMARK    8  A    between atoms: C_15  and  O_16
REMARK    9  A    between atoms: C_17  and  O_20
REMARK   10  A    between atoms: O_20  and  C_21
REMARK                            x       y       z     vdW  Elec       q    Type
REMARK                         _______ _______ _______ _____ _____    ______ ____
ROOT
ATOM      1  C   LIG A   1     -10.594   5.683 131.332  0.00  0.00    +0.009 C 
ENDROOT
BRANCH   1   2
ATOM      2  C   LIG A   1      -9.361   6.404 131.891  0.00  0.00    +0.035 C 
BRANCH   2   3
ATOM      3  C   LIG A   1      -8.085   6.047 131.170  0.00  0.00    -0.044 A 
ATOM      4  C   LIG A   1      -8.045   4.945 130.307  0.00  0.00    +0.052 A 
ATOM      5  C   LIG A   1      -6.849   4.576 129.675  0.00  0.00    +0.159 A 
ATOM      6  C   LIG A   1      -5.672   5.294 129.907  0.00  0.00    +0.161 A 
ATOM      7  C   LIG A   1      -5.720   6.396 130.766  0.00  0.00    +0.049 A 
ATOM      8  C   LIG A   1      -6.912   6.777 131.385  0.00  0.00    +0.007 A 
BRANCH   5   9
ATOM      9  O   LIG A   1      -6.878   3.496 128.835  0.00  0.00    -0.503 OA
ATOM     10  H   LIG A   1      -6.250   3.640 128.110  0.00  0.00    +0.292 HD
ENDBRANCH   5   9
BRANCH   6  11
ATOM     11  O   LIG A   1      -4.421   5.069 129.399  0.00  0.00    -0.491 OA
ATOM     12  C   LIG A   1      -3.674   6.186 128.944  0.00  0.00    +0.277 C 
ENDBRANCH   6  11
ENDBRANCH   2   3
ENDBRANCH   1   2
BRANCH   1  13
ATOM     13  C   LIG A   1     -11.886   6.503 131.456  0.00  0.00    +0.035 C 
BRANCH  13  14
ATOM     14  C   LIG A   1     -12.274   7.196 130.172  0.00  0.00    -0.041 A 
ATOM     15  C   LIG A   1     -12.771   8.509 130.198  0.00  0.00    +0.049 A 
ATOM     16  C   LIG A   1     -13.104   9.165 129.010  0.00  0.00    +0.124 A 
ATOM     17  C   LIG A   1     -12.969   8.500 127.790  0.00  0.00    +0.091 A 
ATOM     18  C   LIG A   1     -12.476   7.199 127.766  0.00  0.00    +0.121 A 
ATOM     19  C   LIG A   1     -12.124   6.548 128.941  0.00  0.00    +0.049 A 
BRANCH  16  20
ATOM     20  O   LIG A   1     -13.618  10.432 128.930  0.00  0.00    -0.495 OA
ATOM     21  C   LIG A   1     -13.576  11.187 130.138  0.00  0.00    +0.277 C 
ENDBRANCH  16  20
BRANCH  18  22
ATOM     22  O   LIG A   1     -12.322   6.519 126.596  0.00  0.00    -0.507 OA
ATOM     23  H   LIG A   1     -11.593   5.887 126.701  0.00  0.00    +0.292 HD
ENDBRANCH  18  22
ENDBRANCH  13  14
ENDBRANCH   1  13
TORSDOF 8
ENDMDL
MODEL 6
REMARK VINA RESULT:      -6.4      2.561      4.380
REMARK  Name = NuBBE_1983
REMARK  10 active torsions:
REMARK  status: ('A' for Active; 'I' for Inactive)
REMARK    1  A    between atoms: C_1  and  C_2
REMARK    2  A    between atoms: C_1  and  C_13
REMARK    3  A    between atoms: C_2  and  C_3
REMARK    4  A    between atoms: C_3  and  C_4
REMARK    5  A    between atoms: C_6  and  O_7
REMARK    6  A    between atoms: O_7  and  C_8
REMARK    7  A    between atoms: C_10  and  O_12
REMARK    8  A    between atoms: C_15  and  O_16
REMARK    9  A    between atoms: C_17  and  O_20
REMARK   10  A    between atoms: O_20  and  C_21
REMARK                            x       y       z     vdW  Elec       q    Type
REMARK                         _______ _______ _______ _____ _____    ______ ____
ROOT
ATOM      1  C   LIG A   1      -8.526  -3.611 124.499  0.00  0.00    +0.009 C 
ENDROOT
BRANCH   1   2
ATOM      2  C   LIG A   1      -9.002  -2.762 123.314  0.00  0.00    +0.035 C 
BRANCH   2   3
ATOM      3  C   LIG A   1      -8.532  -1.330 123.380  0.00  0.00    -0.044 A 
ATOM      4  C   LIG A   1      -9.453  -0.292 123.563  0.00  0.00    +0.052 A 
ATOM      5  C   LIG A   1      -9.031   1.045 123.572  0.00  0.00    +0.159 A 
ATOM      6  C   LIG A   1      -7.683   1.366 123.383  0.00  0.00    +0.161 A 
ATOM      7  C   LIG A   1      -6.768   0.324 123.205  0.00  0.00    +0.049 A 
ATOM      8  C   LIG A   1      -7.181  -1.010 123.211  0.00  0.00    +0.007 A 
BRANCH   5   9
ATOM      9  O   LIG A   1      -9.979   2.013 123.766  0.00  0.00    -0.503 OA
ATOM     10  H   LIG A   1     -10.278   2.342 122.904  0.00  0.00    +0.292 HD
ENDBRANCH   5   9
BRANCH   6  11
ATOM     11  O   LIG A   1      -7.098   2.602 123.341  0.00  0.00    -0.491 OA
ATOM     12  C   LIG A   1      -6.813   3.163 122.069  0.00  0.00    +0.277 C 
ENDBRANCH   6  11
ENDBRANCH   2   3
ENDBRANCH   1   2
BRANCH   1  13
ATOM     13  C   LIG A   1      -9.206  -3.239 125.824  0.00  0.00    +0.035 C 
BRANCH  13  14
ATOM     14  C   LIG A   1      -8.226  -2.912 126.923  0.00  0.00    -0.041 A 
ATOM     15  C   LIG A   1      -8.468  -3.339 128.240  0.00  0.00    +0.049 A 
ATOM     16  C   LIG A   1      -7.549  -3.065 129.255  0.00  0.00    +0.124 A 
ATOM     17  C   LIG A   1      -6.394  -2.336 128.966  0.00  0.00    +0.091 A 
ATOM     18  C   LIG A   1      -6.156  -1.913 127.662  0.00  0.00    +0.121 A 
ATOM     19  C   LIG A   1      -7.055  -2.200 126.644  0.00  0.00    +0.049 A 
BRANCH  16  20
ATOM     20  O   LIG A   1      -7.704  -3.416 130.570  0.00  0.00    -0.495 OA
ATOM     21  C   LIG A   1      -7.238  -2.460 131.518  0.00  0.00    +0.277 C 
ENDBRANCH  16  20
BRANCH  18  22
ATOM     22  O   LIG A   1      -5.037  -1.206 127.338  0.00  0.00    -0.507 OA
ATOM     23  H   LIG A   1      -4.889  -1.286 126.383  0.00  0.00    +0.292 HD
ENDBRANCH  18  22
ENDBRANCH  13  14
ENDBRANCH   1  13
TORSDOF 8
ENDMDL
MODEL 7
REMARK VINA RESULT:      -6.4      8.212     10.753
REMARK  Name = NuBBE_1983
REMARK  10 active torsions:
REMARK  status: ('A' for Active; 'I' for Inactive)
REMARK    1  A    between atoms: C_1  and  C_2
REMARK    2  A    between atoms: C_1  and  C_13
REMARK    3  A    between atoms: C_2  and  C_3
REMARK    4  A    between atoms: C_3  and  C_4
REMARK    5  A    between atoms: C_6  and  O_7
REMARK    6  A    between atoms: O_7  and  C_8
REMARK    7  A    between atoms: C_10  and  O_12
REMARK    8  A    between atoms: C_15  and  O_16
REMARK    9  A    between atoms: C_17  and  O_20
REMARK   10  A    between atoms: O_20  and  C_21
REMARK                            x       y       z     vdW  Elec       q    Type
REMARK                         _______ _______ _______ _____ _____    ______ ____
ROOT
ATOM      1  C   LIG A   1      -9.999   6.247 132.257  0.00  0.00    +0.009 C 
ENDROOT
BRANCH   1   2
ATOM      2  C   LIG A   1      -9.546   4.795 132.451  0.00  0.00    +0.035 C 
BRANCH   2   3
ATOM      3  C   LIG A   1      -8.978   4.175 131.199  0.00  0.00    -0.044 A 
ATOM      4  C   LIG A   1      -7.919   4.792 130.524  0.00  0.00    +0.052 A 
ATOM      5  C   LIG A   1      -7.420   4.250 129.330  0.00  0.00    +0.159 A 
ATOM      6  C   LIG A   1      -7.983   3.092 128.785  0.00  0.00    +0.161 A 
ATOM      7  C   LIG A   1      -9.039   2.479 129.468  0.00  0.00    +0.049 A 
ATOM      8  C   LIG A   1      -9.528   3.005 130.665  0.00  0.00    +0.007 A 
BRANCH   5   9
ATOM      9  O   LIG A   1      -6.376   4.895 128.723  0.00  0.00    -0.503 OA
ATOM     10  H   LIG A   1      -6.441   5.846 128.904  0.00  0.00    +0.292 HD
ENDBRANCH   5   9
BRANCH   6  11
ATOM     11  O   LIG A   1      -7.645   2.440 127.631  0.00  0.00    -0.491 OA
ATOM     12  C   LIG A   1      -8.380   1.279 127.280  0.00  0.00    +0.277 C 
ENDBRANCH   6  11
ENDBRANCH   2   3
ENDBRANCH   1   2
BRANCH   1  13
ATOM     13  C   LIG A   1     -11.450   6.371 131.772  0.00  0.00    +0.035 C 
BRANCH  13  14
ATOM     14  C   LIG A   1     -11.572   7.061 130.435  0.00  0.00    -0.041 A 
ATOM     15  C   LIG A   1     -12.462   8.136 130.271  0.00  0.00    +0.049 A 
ATOM     16  C   LIG A   1     -12.557   8.797 129.044  0.00  0.00    +0.124 A 
ATOM     17  C   LIG A   1     -11.783   8.367 127.965  0.00  0.00    +0.091 A 
ATOM     18  C   LIG A   1     -10.903   7.303 128.129  0.00  0.00    +0.121 A 
ATOM     19  C   LIG A   1     -10.788   6.655 129.351  0.00  0.00    +0.049 A 
BRANCH  16  20
ATOM     20  O   LIG A   1     -13.407   9.836 128.776  0.00  0.00    -0.495 OA
ATOM     21  C   LIG A   1     -13.493  10.835 129.789  0.00  0.00    +0.277 C 
ENDBRANCH  16  20
BRANCH  18  22
ATOM     22  O   LIG A   1     -10.125   6.860 127.102  0.00  0.00    -0.507 OA
ATOM     23  H   LIG A   1     -10.455   7.248 126.277  0.00  0.00    +0.292 HD
ENDBRANCH  18  22
ENDBRANCH  13  14
ENDBRANCH   1  13
TORSDOF 8
ENDMDL
MODEL 8
REMARK VINA RESULT:      -6.3      4.705      7.639
REMARK  Name = NuBBE_1983
REMARK  10 active torsions:
REMARK  status: ('A' for Active; 'I' for Inactive)
REMARK    1  A    between atoms: C_1  and  C_2
REMARK    2  A    between atoms: C_1  and  C_13
REMARK    3  A    between atoms: C_2  and  C_3
REMARK    4  A    between atoms: C_3  and  C_4
REMARK    5  A    between atoms: C_6  and  O_7
REMARK    6  A    between atoms: O_7  and  C_8
REMARK    7  A    between atoms: C_10  and  O_12
REMARK    8  A    between atoms: C_15  and  O_16
REMARK    9  A    between atoms: C_17  and  O_20
REMARK   10  A    between atoms: O_20  and  C_21
REMARK                            x       y       z     vdW  Elec       q    Type
REMARK                         _______ _______ _______ _____ _____    ______ ____
ROOT
ATOM      1  C   LIG A   1      -7.969  -3.055 129.262  0.00  0.00    +0.009 C 
ENDROOT
BRANCH   1   2
ATOM      2  C   LIG A   1      -8.828  -3.674 128.152  0.00  0.00    +0.035 C 
BRANCH   2   3
ATOM      3  C   LIG A   1      -8.558  -3.084 126.791  0.00  0.00    -0.044 A 
ATOM      4  C   LIG A   1      -9.425  -3.344 125.723  0.00  0.00    +0.052 A 
ATOM      5  C   LIG A   1      -9.153  -2.842 124.443  0.00  0.00    +0.159 A 
ATOM      6  C   LIG A   1      -8.001  -2.086 124.206  0.00  0.00    +0.161 A 
ATOM      7  C   LIG A   1      -7.141  -1.826 125.278  0.00  0.00    +0.049 A 
ATOM      8  C   LIG A   1      -7.416  -2.310 126.558  0.00  0.00    +0.007 A 
BRANCH   5   9
ATOM      9  O   LIG A   1     -10.045  -3.123 123.443  0.00  0.00    -0.503 OA
ATOM     10  H   LIG A   1      -9.648  -2.893 122.589  0.00  0.00    +0.292 HD
ENDBRANCH   5   9
BRANCH   6  11
ATOM     11  O   LIG A   1      -7.566  -1.539 123.030  0.00  0.00    -0.491 OA
ATOM     12  C   LIG A   1      -6.263  -1.874 122.579  0.00  0.00    +0.277 C 
ENDBRANCH   6  11
ENDBRANCH   2   3
ENDBRANCH   1   2
BRANCH   1  13
ATOM     13  C   LIG A   1      -6.837  -3.975 129.739  0.00  0.00    +0.035 C 
BRANCH  13  14
ATOM     14  C   LIG A   1      -5.635  -3.219 130.251  0.00  0.00    -0.041 A 
ATOM     15  C   LIG A   1      -4.834  -3.767 131.267  0.00  0.00    +0.049 A 
ATOM     16  C   LIG A   1      -3.703  -3.085 131.724  0.00  0.00    +0.124 A 
ATOM     17  C   LIG A   1      -3.384  -1.837 131.187  0.00  0.00    +0.091 A 
ATOM     18  C   LIG A   1      -4.179  -1.295 130.182  0.00  0.00    +0.121 A 
ATOM     19  C   LIG A   1      -5.292  -1.977 129.709  0.00  0.00    +0.049 A 
BRANCH  16  20
ATOM     20  O   LIG A   1      -2.874  -3.521 132.722  0.00  0.00    -0.495 OA
ATOM     21  C   LIG A   1      -3.391  -4.573 133.533  0.00  0.00    +0.277 C 
ENDBRANCH  16  20
BRANCH  18  22
ATOM     22  O   LIG A   1      -3.895  -0.083 129.627  0.00  0.00    -0.507 OA
ATOM     23  H   LIG A   1      -4.630   0.168 129.047  0.00  0.00    +0.292 HD
ENDBRANCH  18  22
ENDBRANCH  13  14
ENDBRANCH   1  13
TORSDOF 8
ENDMDL
MODEL 9
REMARK VINA RESULT:      -6.3      2.761      7.949
REMARK  Name = NuBBE_1983
REMARK  10 active torsions:
REMARK  status: ('A' for Active; 'I' for Inactive)
REMARK    1  A    between atoms: C_1  and  C_2
REMARK    2  A    between atoms: C_1  and  C_13
REMARK    3  A    between atoms: C_2  and  C_3
REMARK    4  A    between atoms: C_3  and  C_4
REMARK    5  A    between atoms: C_6  and  O_7
REMARK    6  A    between atoms: O_7  and  C_8
REMARK    7  A    between atoms: C_10  and  O_12
REMARK    8  A    between atoms: C_15  and  O_16
REMARK    9  A    between atoms: C_17  and  O_20
REMARK   10  A    between atoms: O_20  and  C_21
REMARK                            x       y       z     vdW  Elec       q    Type
REMARK                         _______ _______ _______ _____ _____    ______ ____
ROOT
ATOM      1  C   LIG A   1      -8.751  -2.976 123.571  0.00  0.00    +0.009 C 
ENDROOT
BRANCH   1   2
ATOM      2  C   LIG A   1      -7.978  -3.874 124.545  0.00  0.00    +0.035 C 
BRANCH   2   3
ATOM      3  C   LIG A   1      -7.895  -3.307 125.940  0.00  0.00    -0.044 A 
ATOM      4  C   LIG A   1      -6.914  -2.361 126.261  0.00  0.00    +0.052 A 
ATOM      5  C   LIG A   1      -6.797  -1.868 127.568  0.00  0.00    +0.159 A 
ATOM      6  C   LIG A   1      -7.649  -2.326 128.579  0.00  0.00    +0.161 A 
ATOM      7  C   LIG A   1      -8.629  -3.267 128.250  0.00  0.00    +0.049 A 
ATOM      8  C   LIG A   1      -8.760  -3.748 126.947  0.00  0.00    +0.007 A 
BRANCH   5   9
ATOM      9  O   LIG A   1      -5.825  -0.937 127.816  0.00  0.00    -0.503 OA
ATOM     10  H   LIG A   1      -5.722  -0.832 128.775  0.00  0.00    +0.292 HD
ENDBRANCH   5   9
BRANCH   6  11
ATOM     11  O   LIG A   1      -7.667  -1.978 129.902  0.00  0.00    -0.491 OA
ATOM     12  C   LIG A   1      -7.413  -2.991 130.863  0.00  0.00    +0.277 C 
ENDBRANCH   6  11
ENDBRANCH   2   3
ENDBRANCH   1   2
BRANCH   1  13
ATOM     13  C   LIG A   1      -7.863  -1.941 122.864  0.00  0.00    +0.035 C 
BRANCH  13  14
ATOM     14  C   LIG A   1      -8.191  -0.519 123.246  0.00  0.00    -0.041 A 
ATOM     15  C   LIG A   1      -7.170   0.440 123.352  0.00  0.00    +0.049 A 
ATOM     16  C   LIG A   1      -7.472   1.765 123.676  0.00  0.00    +0.124 A 
ATOM     17  C   LIG A   1      -8.796   2.133 123.925  0.00  0.00    +0.091 A 
ATOM     18  C   LIG A   1      -9.806   1.182 123.821  0.00  0.00    +0.121 A 
ATOM     19  C   LIG A   1      -9.515  -0.132 123.479  0.00  0.00    +0.049 A 
BRANCH  16  20
ATOM     20  O   LIG A   1      -6.550   2.766 123.827  0.00  0.00    -0.495 OA
ATOM     21  C   LIG A   1      -6.249   3.506 122.647  0.00  0.00    +0.277 C 
ENDBRANCH  16  20
BRANCH  18  22
ATOM     22  O   LIG A   1     -11.110   1.503 124.047  0.00  0.00    -0.507 OA
ATOM     23  H   LIG A   1     -11.173   2.463 124.173  0.00  0.00    +0.292 HD
ENDBRANCH  18  22
ENDBRANCH  13  14
ENDBRANCH   1  13
TORSDOF 8
ENDMDL
