MODEL 1
REMARK VINA RESULT:      -6.9      0.000      0.000
REMARK  Name = NuBBE_2065
REMARK  7 active torsions:
REMARK  status: ('A' for Active; 'I' for Inactive)
REMARK    1  A    between atoms: C_1  and  O_2
REMARK    2  A    between atoms: O_2  and  C_3
REMARK    3  A    between atoms: C_12  and  O_14
REMARK    4  A    between atoms: C_17  and  O_18
REMARK    5  A    between atoms: O_18  and  C_19
REMARK    6  A    between atoms: C_20  and  O_21
REMARK    7  A    between atoms: O_21  and  C_22
REMARK                            x       y       z     vdW  Elec       q    Type
REMARK                         _______ _______ _______ _____ _____    ______ ____
ROOT
ATOM      1  C   LIG A   1      -6.137  -2.397 124.074  0.00  0.00    +0.143 C 
ATOM      2  C   LIG A   1      -7.490  -2.243 123.420  0.00  0.00    +0.004 C 
ATOM      3  C   LIG A   1      -8.626  -2.256 124.134  0.00  0.00    +0.004 C 
ATOM      4  C   LIG A   1      -8.514  -2.409 125.554  0.00  0.00    -0.026 C 
ATOM      5  C   LIG A   1      -9.208  -3.275 126.296  0.00  0.00    -0.006 C 
ATOM      6  C   LIG A   1      -8.535  -3.443 127.615  0.00  0.00    +0.113 C 
ATOM      7  N   LIG A   1      -7.199  -2.857 127.396  0.00  0.00    -0.282 NA
ATOM      8  C   LIG A   1      -6.536  -2.391 128.614  0.00  0.00    +0.122 C 
ATOM      9  C   LIG A   1      -7.144  -1.137 129.270  0.00  0.00    +0.159 C 
ATOM     10  C   LIG A   1      -7.600  -0.115 128.258  0.00  0.00    -0.009 A 
ATOM     11  C   LIG A   1      -7.951   1.170 128.706  0.00  0.00    +0.056 A 
ATOM     12  C   LIG A   1      -8.401   2.162 127.825  0.00  0.00    +0.162 A 
ATOM     13  C   LIG A   1      -8.457   1.890 126.452  0.00  0.00    +0.162 A 
ATOM     14  C   LIG A   1      -8.117   0.604 126.009  0.00  0.00    +0.055 A 
ATOM     15  C   LIG A   1      -7.704  -0.423 126.891  0.00  0.00    -0.013 A 
ATOM     16  C   LIG A   1      -7.344  -1.825 126.330  0.00  0.00    +0.076 C 
ATOM     17  C   LIG A   1      -6.060  -1.716 125.457  0.00  0.00    +0.068 C 
ENDROOT
BRANCH   1  19
ATOM     18  C   LIG A   1      -4.549  -4.159 123.740  0.00  0.00    +0.194 C 
ATOM     19  O   LIG A   1      -5.877  -3.802 124.087  0.00  0.00    -0.376 OA
ENDBRANCH   1  19
BRANCH   9  20
ATOM     20  O   LIG A   1      -8.220  -1.507 130.135  0.00  0.00    -0.386 OA
ATOM     21  H   LIG A   1      -8.267  -0.848 130.850  0.00  0.00    +0.210 HD
ENDBRANCH   9  20
BRANCH  12  22
ATOM     22  O   LIG A   1      -8.698   3.344 128.452  0.00  0.00    -0.491 OA
ATOM     23  C   LIG A   1      -9.021   3.269 129.836  0.00  0.00    +0.277 C 
ENDBRANCH  12  22
BRANCH  13  24
ATOM     24  O   LIG A   1      -8.823   2.906 125.610  0.00  0.00    -0.491 OA
ATOM     25  C   LIG A   1      -8.799   2.660 124.209  0.00  0.00    +0.277 C 
ENDBRANCH  13  24
TORSDOF 4
ENDMDL
MODEL 2
REMARK VINA RESULT:      -6.6      2.231      4.713
REMARK  Name = NuBBE_2065
REMARK  7 active torsions:
REMARK  status: ('A' for Active; 'I' for Inactive)
REMARK    1  A    between atoms: C_1  and  O_2
REMARK    2  A    between atoms: O_2  and  C_3
REMARK    3  A    between atoms: C_12  and  O_14
REMARK    4  A    between atoms: C_17  and  O_18
REMARK    5  A    between atoms: O_18  and  C_19
REMARK    6  A    between atoms: C_20  and  O_21
REMARK    7  A    between atoms: O_21  and  C_22
REMARK                            x       y       z     vdW  Elec       q    Type
REMARK                         _______ _______ _______ _____ _____    ______ ____
ROOT
ATOM      1  C   LIG A   1      -5.314  -2.883 129.308  0.00  0.00    +0.143 C 
ATOM      2  C   LIG A   1      -6.532  -3.704 129.658  0.00  0.00    +0.004 C 
ATOM      3  C   LIG A   1      -7.716  -3.134 129.930  0.00  0.00    +0.004 C 
ATOM      4  C   LIG A   1      -7.792  -1.704 129.864  0.00  0.00    -0.026 C 
ATOM      5  C   LIG A   1      -8.319  -0.914 130.803  0.00  0.00    -0.006 C 
ATOM      6  C   LIG A   1      -7.845   0.483 130.592  0.00  0.00    +0.113 C 
ATOM      7  N   LIG A   1      -6.715   0.325 129.658  0.00  0.00    -0.282 NA
ATOM      8  C   LIG A   1      -6.416   1.517 128.865  0.00  0.00    +0.122 C 
ATOM      9  C   LIG A   1      -7.452   1.883 127.786  0.00  0.00    +0.159 C 
ATOM     10  C   LIG A   1      -8.015   0.670 127.086  0.00  0.00    -0.009 A 
ATOM     11  C   LIG A   1      -8.784   0.856 125.924  0.00  0.00    +0.056 A 
ATOM     12  C   LIG A   1      -9.353  -0.223 125.235  0.00  0.00    +0.162 A 
ATOM     13  C   LIG A   1      -9.110  -1.529 125.678  0.00  0.00    +0.162 A 
ATOM     14  C   LIG A   1      -8.351  -1.712 126.842  0.00  0.00    +0.055 A 
ATOM     15  C   LIG A   1      -7.808  -0.630 127.577  0.00  0.00    -0.013 A 
ATOM     16  C   LIG A   1      -6.977  -0.907 128.859  0.00  0.00    +0.076 C 
ATOM     17  C   LIG A   1      -5.656  -1.632 128.471  0.00  0.00    +0.068 C 
ENDROOT
BRANCH   1  19
ATOM     18  C   LIG A   1      -3.542  -1.753 130.458  0.00  0.00    +0.194 C 
ATOM     19  O   LIG A   1      -4.669  -2.608 130.553  0.00  0.00    -0.376 OA
ENDBRANCH   1  19
BRANCH   9  20
ATOM     20  O   LIG A   1      -8.502   2.668 128.358  0.00  0.00    -0.386 OA
ATOM     21  H   LIG A   1      -8.095   3.314 128.960  0.00  0.00    +0.210 HD
ENDBRANCH   9  20
BRANCH  12  22
ATOM     22  O   LIG A   1     -10.071   0.162 124.133  0.00  0.00    -0.491 OA
ATOM     23  C   LIG A   1      -9.916   1.511 123.708  0.00  0.00    +0.277 C 
ENDBRANCH  12  22
BRANCH  13  24
ATOM     24  O   LIG A   1      -9.612  -2.564 124.936  0.00  0.00    -0.491 OA
ATOM     25  C   LIG A   1      -8.767  -3.168 123.964  0.00  0.00    +0.277 C 
ENDBRANCH  13  24
TORSDOF 4
ENDMDL
MODEL 3
REMARK VINA RESULT:      -6.4      2.115      4.527
REMARK  Name = NuBBE_2065
REMARK  7 active torsions:
REMARK  status: ('A' for Active; 'I' for Inactive)
REMARK    1  A    between atoms: C_1  and  O_2
REMARK    2  A    between atoms: O_2  and  C_3
REMARK    3  A    between atoms: C_12  and  O_14
REMARK    4  A    between atoms: C_17  and  O_18
REMARK    5  A    between atoms: O_18  and  C_19
REMARK    6  A    between atoms: C_20  and  O_21
REMARK    7  A    between atoms: O_21  and  C_22
REMARK                            x       y       z     vdW  Elec       q    Type
REMARK                         _______ _______ _______ _____ _____    ______ ____
ROOT
ATOM      1  C   LIG A   1      -7.515  -2.138 128.563  0.00  0.00    +0.143 C 
ATOM      2  C   LIG A   1      -6.157  -1.479 128.552  0.00  0.00    +0.004 C 
ATOM      3  C   LIG A   1      -5.454  -1.326 127.420  0.00  0.00    +0.004 C 
ATOM      4  C   LIG A   1      -6.046  -1.801 126.204  0.00  0.00    -0.026 C 
ATOM      5  C   LIG A   1      -5.442  -2.576 125.301  0.00  0.00    -0.006 C 
ATOM      6  C   LIG A   1      -6.470  -3.200 124.420  0.00  0.00    +0.113 C 
ATOM      7  N   LIG A   1      -7.731  -2.977 125.154  0.00  0.00    -0.282 NA
ATOM      8  C   LIG A   1      -8.928  -2.983 124.314  0.00  0.00    +0.122 C 
ATOM      9  C   LIG A   1      -9.089  -1.778 123.369  0.00  0.00    +0.159 C 
ATOM     10  C   LIG A   1      -8.657  -0.479 124.003  0.00  0.00    -0.009 A 
ATOM     11  C   LIG A   1      -8.969   0.728 123.354  0.00  0.00    +0.056 A 
ATOM     12  C   LIG A   1      -8.583   1.969 123.876  0.00  0.00    +0.162 A 
ATOM     13  C   LIG A   1      -7.912   2.021 125.105  0.00  0.00    +0.162 A 
ATOM     14  C   LIG A   1      -7.592   0.815 125.745  0.00  0.00    +0.055 A 
ATOM     15  C   LIG A   1      -7.935  -0.449 125.208  0.00  0.00    -0.013 A 
ATOM     16  C   LIG A   1      -7.548  -1.744 125.972  0.00  0.00    +0.076 C 
ATOM     17  C   LIG A   1      -8.348  -1.814 127.305  0.00  0.00    +0.068 C 
ENDROOT
BRANCH   1  19
ATOM     18  C   LIG A   1      -6.587  -3.835 129.977  0.00  0.00    +0.194 C 
ATOM     19  O   LIG A   1      -7.263  -3.529 128.769  0.00  0.00    -0.376 OA
ENDBRANCH   1  19
BRANCH   9  20
ATOM     20  O   LIG A   1      -8.375  -2.008 122.151  0.00  0.00    -0.386 OA
ATOM     21  H   LIG A   1      -8.961  -1.768 121.413  0.00  0.00    +0.210 HD
ENDBRANCH   9  20
BRANCH  12  22
ATOM     22  O   LIG A   1      -8.974   3.026 123.097  0.00  0.00    -0.491 OA
ATOM     23  C   LIG A   1      -8.304   3.185 121.852  0.00  0.00    +0.277 C 
ENDBRANCH  12  22
BRANCH  13  24
ATOM     24  O   LIG A   1      -7.620   3.252 125.627  0.00  0.00    -0.491 OA
ATOM     25  C   LIG A   1      -6.373   3.847 125.290  0.00  0.00    +0.277 C 
ENDBRANCH  13  24
TORSDOF 4
ENDMDL
MODEL 4
REMARK VINA RESULT:      -6.3      1.854      4.402
REMARK  Name = NuBBE_2065
REMARK  7 active torsions:
REMARK  status: ('A' for Active; 'I' for Inactive)
REMARK    1  A    between atoms: C_1  and  O_2
REMARK    2  A    between atoms: O_2  and  C_3
REMARK    3  A    between atoms: C_12  and  O_14
REMARK    4  A    between atoms: C_17  and  O_18
REMARK    5  A    between atoms: O_18  and  C_19
REMARK    6  A    between atoms: C_20  and  O_21
REMARK    7  A    between atoms: O_21  and  C_22
REMARK                            x       y       z     vdW  Elec       q    Type
REMARK                         _______ _______ _______ _____ _____    ______ ____
ROOT
ATOM      1  C   LIG A   1      -8.882  -2.844 124.203  0.00  0.00    +0.143 C 
ATOM      2  C   LIG A   1      -7.609  -3.637 124.370  0.00  0.00    +0.004 C 
ATOM      3  C   LIG A   1      -6.490  -3.083 124.861  0.00  0.00    +0.004 C 
ATOM      4  C   LIG A   1      -6.546  -1.702 125.237  0.00  0.00    -0.026 C 
ATOM      5  C   LIG A   1      -5.664  -0.765 124.878  0.00  0.00    -0.006 C 
ATOM      6  C   LIG A   1      -6.264   0.582 125.088  0.00  0.00    +0.113 C 
ATOM      7  N   LIG A   1      -7.701   0.296 125.261  0.00  0.00    -0.282 NA
ATOM      8  C   LIG A   1      -8.436   1.317 126.007  0.00  0.00    +0.122 C 
ATOM      9  C   LIG A   1      -8.119   1.406 127.511  0.00  0.00    +0.159 C 
ATOM     10  C   LIG A   1      -7.918   0.051 128.144  0.00  0.00    -0.009 A 
ATOM     11  C   LIG A   1      -7.861  -0.038 129.546  0.00  0.00    +0.056 A 
ATOM     12  C   LIG A   1      -7.659  -1.260 130.200  0.00  0.00    +0.162 A 
ATOM     13  C   LIG A   1      -7.561  -2.437 129.447  0.00  0.00    +0.162 A 
ATOM     14  C   LIG A   1      -7.607  -2.344 128.049  0.00  0.00    +0.055 A 
ATOM     15  C   LIG A   1      -7.765  -1.112 127.371  0.00  0.00    -0.013 A 
ATOM     16  C   LIG A   1      -7.807  -1.083 125.819  0.00  0.00    +0.076 C 
ATOM     17  C   LIG A   1      -9.093  -1.806 125.325  0.00  0.00    +0.068 C 
ENDROOT
BRANCH   1  19
ATOM     18  C   LIG A   1      -9.560  -1.098 122.710  0.00  0.00    +0.194 C 
ATOM     19  O   LIG A   1      -8.819  -2.293 122.886  0.00  0.00    -0.376 OA
ENDBRANCH   1  19
BRANCH   9  20
ATOM     20  O   LIG A   1      -6.975   2.238 127.725  0.00  0.00    -0.386 OA
ATOM     21  H   LIG A   1      -7.108   2.718 128.560  0.00  0.00    +0.210 HD
ENDBRANCH   9  20
BRANCH  12  22
ATOM     22  O   LIG A   1      -7.628  -1.141 131.565  0.00  0.00    -0.491 OA
ATOM     23  C   LIG A   1      -8.504  -0.180 132.142  0.00  0.00    +0.277 C 
ENDBRANCH  12  22
BRANCH  13  24
ATOM     24  O   LIG A   1      -7.444  -3.624 130.120  0.00  0.00    -0.491 OA
ATOM     25  C   LIG A   1      -6.143  -4.168 130.305  0.00  0.00    +0.277 C 
ENDBRANCH  13  24
TORSDOF 4
ENDMDL
MODEL 5
REMARK VINA RESULT:      -6.1      3.372      6.700
REMARK  Name = NuBBE_2065
REMARK  7 active torsions:
REMARK  status: ('A' for Active; 'I' for Inactive)
REMARK    1  A    between atoms: C_1  and  O_2
REMARK    2  A    between atoms: O_2  and  C_3
REMARK    3  A    between atoms: C_12  and  O_14
REMARK    4  A    between atoms: C_17  and  O_18
REMARK    5  A    between atoms: O_18  and  C_19
REMARK    6  A    between atoms: C_20  and  O_21
REMARK    7  A    between atoms: O_21  and  C_22
REMARK                            x       y       z     vdW  Elec       q    Type
REMARK                         _______ _______ _______ _____ _____    ______ ____
ROOT
ATOM      1  C   LIG A   1      -3.512   2.740 127.985  0.00  0.00    +0.143 C 
ATOM      2  C   LIG A   1      -4.363   1.959 128.957  0.00  0.00    +0.004 C 
ATOM      3  C   LIG A   1      -5.702   1.937 128.865  0.00  0.00    +0.004 C 
ATOM      4  C   LIG A   1      -6.304   2.674 127.795  0.00  0.00    -0.026 C 
ATOM      5  C   LIG A   1      -7.320   3.531 127.921  0.00  0.00    -0.006 C 
ATOM      6  C   LIG A   1      -7.386   4.400 126.713  0.00  0.00    +0.113 C 
ATOM      7  N   LIG A   1      -6.081   4.180 126.061  0.00  0.00    -0.282 NA
ATOM      8  C   LIG A   1      -6.069   4.454 124.624  0.00  0.00    +0.122 C 
ATOM      9  C   LIG A   1      -6.845   3.456 123.745  0.00  0.00    +0.159 C 
ATOM     10  C   LIG A   1      -6.691   2.029 124.212  0.00  0.00    -0.009 A 
ATOM     11  C   LIG A   1      -7.140   0.992 123.375  0.00  0.00    +0.056 A 
ATOM     12  C   LIG A   1      -7.046  -0.354 123.753  0.00  0.00    +0.162 A 
ATOM     13  C   LIG A   1      -6.443  -0.688 124.972  0.00  0.00    +0.162 A 
ATOM     14  C   LIG A   1      -6.005   0.349 125.809  0.00  0.00    +0.055 A 
ATOM     15  C   LIG A   1      -6.134   1.715 125.463  0.00  0.00    -0.013 A 
ATOM     16  C   LIG A   1      -5.628   2.811 126.440  0.00  0.00    +0.076 C 
ATOM     17  C   LIG A   1      -4.078   2.727 126.549  0.00  0.00    +0.068 C 
ENDROOT
BRANCH   1  19
ATOM     18  C   LIG A   1      -2.668   4.969 127.751  0.00  0.00    +0.194 C 
ATOM     19  O   LIG A   1      -3.372   4.041 128.558  0.00  0.00    -0.376 OA
ENDBRANCH   1  19
BRANCH   9  20
ATOM     20  O   LIG A   1      -8.226   3.822 123.686  0.00  0.00    -0.386 OA
ATOM     21  H   LIG A   1      -8.736   3.024 123.461  0.00  0.00    +0.210 HD
ENDBRANCH   9  20
BRANCH  12  22
ATOM     22  O   LIG A   1      -7.542  -1.213 122.807  0.00  0.00    -0.491 OA
ATOM     23  C   LIG A   1      -8.911  -1.580 122.932  0.00  0.00    +0.277 C 
ENDBRANCH  12  22
BRANCH  13  24
ATOM     24  O   LIG A   1      -6.293  -2.015 125.274  0.00  0.00    -0.491 OA
ATOM     25  C   LIG A   1      -7.009  -2.536 126.386  0.00  0.00    +0.277 C 
ENDBRANCH  13  24
TORSDOF 4
ENDMDL
MODEL 6
REMARK VINA RESULT:      -6.1      2.916      5.975
REMARK  Name = NuBBE_2065
REMARK  7 active torsions:
REMARK  status: ('A' for Active; 'I' for Inactive)
REMARK    1  A    between atoms: C_1  and  O_2
REMARK    2  A    between atoms: O_2  and  C_3
REMARK    3  A    between atoms: C_12  and  O_14
REMARK    4  A    between atoms: C_17  and  O_18
REMARK    5  A    between atoms: O_18  and  C_19
REMARK    6  A    between atoms: C_20  and  O_21
REMARK    7  A    between atoms: O_21  and  C_22
REMARK                            x       y       z     vdW  Elec       q    Type
REMARK                         _______ _______ _______ _____ _____    ______ ____
ROOT
ATOM      1  C   LIG A   1      -5.035   0.867 128.683  0.00  0.00    +0.143 C 
ATOM      2  C   LIG A   1      -6.118   0.331 129.589  0.00  0.00    +0.004 C 
ATOM      3  C   LIG A   1      -7.302   0.949 129.718  0.00  0.00    +0.004 C 
ATOM      4  C   LIG A   1      -7.514   2.140 128.950  0.00  0.00    -0.026 C 
ATOM      5  C   LIG A   1      -7.982   3.295 129.428  0.00  0.00    -0.006 C 
ATOM      6  C   LIG A   1      -7.668   4.389 128.466  0.00  0.00    +0.113 C 
ATOM      7  N   LIG A   1      -6.660   3.784 127.575  0.00  0.00    -0.282 NA
ATOM      8  C   LIG A   1      -6.576   4.400 126.251  0.00  0.00    +0.122 C 
ATOM      9  C   LIG A   1      -7.773   4.148 125.317  0.00  0.00    +0.159 C 
ATOM     10  C   LIG A   1      -8.312   2.743 125.427  0.00  0.00    -0.009 A 
ATOM     11  C   LIG A   1      -9.241   2.297 124.471  0.00  0.00    +0.056 A 
ATOM     12  C   LIG A   1      -9.795   1.012 124.524  0.00  0.00    +0.162 A 
ATOM     13  C   LIG A   1      -9.380   0.122 125.523  0.00  0.00    +0.162 A 
ATOM     14  C   LIG A   1      -8.461   0.572 126.482  0.00  0.00    +0.055 A 
ATOM     15  C   LIG A   1      -7.926   1.883 126.469  0.00  0.00    -0.013 A 
ATOM     16  C   LIG A   1      -6.913   2.314 127.564  0.00  0.00    +0.076 C 
ATOM     17  C   LIG A   1      -5.595   1.504 127.394  0.00  0.00    +0.068 C 
ENDROOT
BRANCH   1  19
ATOM     18  C   LIG A   1      -3.523   2.723 128.774  0.00  0.00    +0.194 C 
ATOM     19  O   LIG A   1      -4.260   1.749 129.496  0.00  0.00    -0.376 OA
ENDBRANCH   1  19
BRANCH   9  20
ATOM     20  O   LIG A   1      -8.805   5.105 125.569  0.00  0.00    -0.386 OA
ATOM     21  H   LIG A   1      -9.661   4.657 125.457  0.00  0.00    +0.210 HD
ENDBRANCH   9  20
BRANCH  12  22
ATOM     22  O   LIG A   1     -10.684   0.768 123.509  0.00  0.00    -0.491 OA
ATOM     23  C   LIG A   1     -10.138   0.300 122.281  0.00  0.00    +0.277 C 
ENDBRANCH  12  22
BRANCH  13  24
ATOM     24  O   LIG A   1      -9.880  -1.152 125.499  0.00  0.00    -0.491 OA
ATOM     25  C   LIG A   1      -9.037  -2.214 125.927  0.00  0.00    +0.277 C 
ENDBRANCH  13  24
TORSDOF 4
ENDMDL
MODEL 7
REMARK VINA RESULT:      -6.0      4.556      8.377
REMARK  Name = NuBBE_2065
REMARK  7 active torsions:
REMARK  status: ('A' for Active; 'I' for Inactive)
REMARK    1  A    between atoms: C_1  and  O_2
REMARK    2  A    between atoms: O_2  and  C_3
REMARK    3  A    between atoms: C_12  and  O_14
REMARK    4  A    between atoms: C_17  and  O_18
REMARK    5  A    between atoms: O_18  and  C_19
REMARK    6  A    between atoms: C_20  and  O_21
REMARK    7  A    between atoms: O_21  and  C_22
REMARK                            x       y       z     vdW  Elec       q    Type
REMARK                         _______ _______ _______ _____ _____    ______ ____
ROOT
ATOM      1  C   LIG A   1     -11.427   6.175 130.533  0.00  0.00    +0.143 C 
ATOM      2  C   LIG A   1     -10.368   7.147 130.071  0.00  0.00    +0.004 C 
ATOM      3  C   LIG A   1      -9.090   7.039 130.464  0.00  0.00    +0.004 C 
ATOM      4  C   LIG A   1      -8.755   5.952 131.335  0.00  0.00    -0.026 C 
ATOM      5  C   LIG A   1      -8.054   6.055 132.467  0.00  0.00    -0.006 C 
ATOM      6  C   LIG A   1      -8.271   4.834 133.293  0.00  0.00    +0.113 C 
ATOM      7  N   LIG A   1      -9.448   4.202 132.669  0.00  0.00    -0.282 NA
ATOM      8  C   LIG A   1      -9.556   2.761 132.902  0.00  0.00    +0.122 C 
ATOM      9  C   LIG A   1      -8.514   1.886 132.180  0.00  0.00    +0.159 C 
ATOM     10  C   LIG A   1      -8.213   2.373 130.784  0.00  0.00    -0.009 A 
ATOM     11  C   LIG A   1      -7.471   1.545 129.924  0.00  0.00    +0.056 A 
ATOM     12  C   LIG A   1      -7.139   1.940 128.623  0.00  0.00    +0.162 A 
ATOM     13  C   LIG A   1      -7.599   3.171 128.137  0.00  0.00    +0.162 A 
ATOM     14  C   LIG A   1      -8.331   4.000 129.000  0.00  0.00    +0.055 A 
ATOM     15  C   LIG A   1      -8.636   3.635 130.333  0.00  0.00    -0.013 A 
ATOM     16  C   LIG A   1      -9.449   4.603 131.233  0.00  0.00    +0.076 C 
ATOM     17  C   LIG A   1     -10.896   4.733 130.673  0.00  0.00    +0.068 C 
ENDROOT
BRANCH   1  19
ATOM     18  C   LIG A   1     -12.964   7.714 131.537  0.00  0.00    +0.194 C 
ATOM     19  O   LIG A   1     -11.960   6.733 131.735  0.00  0.00    -0.376 OA
ENDBRANCH   1  19
BRANCH   9  20
ATOM     20  O   LIG A   1      -7.316   1.806 132.956  0.00  0.00    -0.386 OA
ATOM     21  H   LIG A   1      -7.372   2.473 133.661  0.00  0.00    +0.210 HD
ENDBRANCH   9  20
BRANCH  12  22
ATOM     22  O   LIG A   1      -6.407   1.000 127.945  0.00  0.00    -0.491 OA
ATOM     23  C   LIG A   1      -5.034   0.882 128.298  0.00  0.00    +0.277 C 
ENDBRANCH  12  22
BRANCH  13  24
ATOM     24  O   LIG A   1      -7.327   3.492 126.835  0.00  0.00    -0.491 OA
ATOM     25  C   LIG A   1      -6.154   4.249 126.560  0.00  0.00    +0.277 C 
ENDBRANCH  13  24
TORSDOF 4
ENDMDL
MODEL 8
REMARK VINA RESULT:      -6.0      2.505      5.312
REMARK  Name = NuBBE_2065
REMARK  7 active torsions:
REMARK  status: ('A' for Active; 'I' for Inactive)
REMARK    1  A    between atoms: C_1  and  O_2
REMARK    2  A    between atoms: O_2  and  C_3
REMARK    3  A    between atoms: C_12  and  O_14
REMARK    4  A    between atoms: C_17  and  O_18
REMARK    5  A    between atoms: O_18  and  C_19
REMARK    6  A    between atoms: C_20  and  O_21
REMARK    7  A    between atoms: O_21  and  C_22
REMARK                            x       y       z     vdW  Elec       q    Type
REMARK                         _______ _______ _______ _____ _____    ______ ____
ROOT
ATOM      1  C   LIG A   1      -4.842  -3.664 130.302  0.00  0.00    +0.143 C 
ATOM      2  C   LIG A   1      -6.231  -4.244 130.182  0.00  0.00    +0.004 C 
ATOM      3  C   LIG A   1      -7.300  -3.475 129.925  0.00  0.00    +0.004 C 
ATOM      4  C   LIG A   1      -7.077  -2.070 129.752  0.00  0.00    -0.026 C 
ATOM      5  C   LIG A   1      -7.766  -1.098 130.355  0.00  0.00    -0.006 C 
ATOM      6  C   LIG A   1      -6.996   0.176 130.272  0.00  0.00    +0.113 C 
ATOM      7  N   LIG A   1      -5.645  -0.265 129.877  0.00  0.00    -0.282 NA
ATOM      8  C   LIG A   1      -4.847   0.759 129.203  0.00  0.00    +0.122 C 
ATOM      9  C   LIG A   1      -5.303   1.135 127.781  0.00  0.00    +0.159 C 
ATOM     10  C   LIG A   1      -5.770  -0.059 126.986  0.00  0.00    -0.009 A 
ATOM     11  C   LIG A   1      -5.986   0.091 125.604  0.00  0.00    +0.056 A 
ATOM     12  C   LIG A   1      -6.437  -0.970 124.809  0.00  0.00    +0.162 A 
ATOM     13  C   LIG A   1      -6.631  -2.231 125.386  0.00  0.00    +0.162 A 
ATOM     14  C   LIG A   1      -6.425  -2.376 126.765  0.00  0.00    +0.055 A 
ATOM     15  C   LIG A   1      -6.013  -1.303 127.592  0.00  0.00    -0.013 A 
ATOM     16  C   LIG A   1      -5.805  -1.535 129.113  0.00  0.00    +0.076 C 
ATOM     17  C   LIG A   1      -4.597  -2.493 129.327  0.00  0.00    +0.068 C 
ENDROOT
BRANCH   1  19
ATOM     18  C   LIG A   1      -3.599  -2.465 131.961  0.00  0.00    +0.194 C 
ATOM     19  O   LIG A   1      -4.685  -3.333 131.682  0.00  0.00    -0.376 OA
ENDBRANCH   1  19
BRANCH   9  20
ATOM     20  O   LIG A   1      -6.325   2.133 127.839  0.00  0.00    -0.386 OA
ATOM     21  H   LIG A   1      -6.767   2.158 126.973  0.00  0.00    +0.210 HD
ENDBRANCH   9  20
BRANCH  12  22
ATOM     22  O   LIG A   1      -6.592  -0.625 123.491  0.00  0.00    -0.491 OA
ATOM     23  C   LIG A   1      -7.153   0.656 123.228  0.00  0.00    +0.277 C 
ENDBRANCH  12  22
BRANCH  13  24
ATOM     24  O   LIG A   1      -6.993  -3.266 124.565  0.00  0.00    -0.491 OA
ATOM     25  C   LIG A   1      -8.366  -3.634 124.514  0.00  0.00    +0.277 C 
ENDBRANCH  13  24
TORSDOF 4
ENDMDL
MODEL 9
REMARK VINA RESULT:      -5.9      5.571      7.350
REMARK  Name = NuBBE_2065
REMARK  7 active torsions:
REMARK  status: ('A' for Active; 'I' for Inactive)
REMARK    1  A    between atoms: C_1  and  O_2
REMARK    2  A    between atoms: O_2  and  C_3
REMARK    3  A    between atoms: C_12  and  O_14
REMARK    4  A    between atoms: C_17  and  O_18
REMARK    5  A    between atoms: O_18  and  C_19
REMARK    6  A    between atoms: C_20  and  O_21
REMARK    7  A    between atoms: O_21  and  C_22
REMARK                            x       y       z     vdW  Elec       q    Type
REMARK                         _______ _______ _______ _____ _____    ______ ____
ROOT
ATOM      1  C   LIG A   1      -3.889   3.286 127.522  0.00  0.00    +0.143 C 
ATOM      2  C   LIG A   1      -4.599   2.040 127.995  0.00  0.00    +0.004 C 
ATOM      3  C   LIG A   1      -4.891   1.841 129.289  0.00  0.00    +0.004 C 
ATOM      4  C   LIG A   1      -4.516   2.867 130.218  0.00  0.00    -0.026 C 
ATOM      5  C   LIG A   1      -3.858   2.671 131.363  0.00  0.00    -0.006 C 
ATOM      6  C   LIG A   1      -3.285   3.965 131.829  0.00  0.00    +0.113 C 
ATOM      7  N   LIG A   1      -3.385   4.832 130.641  0.00  0.00    -0.282 NA
ATOM      8  C   LIG A   1      -3.415   6.264 130.939  0.00  0.00    +0.122 C 
ATOM      9  C   LIG A   1      -4.701   6.782 131.610  0.00  0.00    +0.159 C 
ATOM     10  C   LIG A   1      -5.946   6.130 131.062  0.00  0.00    -0.009 A 
ATOM     11  C   LIG A   1      -7.199   6.669 131.404  0.00  0.00    +0.056 A 
ATOM     12  C   LIG A   1      -8.395   6.104 130.946  0.00  0.00    +0.162 A 
ATOM     13  C   LIG A   1      -8.352   5.002 130.082  0.00  0.00    +0.162 A 
ATOM     14  C   LIG A   1      -7.102   4.459 129.751  0.00  0.00    +0.055 A 
ATOM     15  C   LIG A   1      -5.885   4.991 130.242  0.00  0.00    -0.013 A 
ATOM     16  C   LIG A   1      -4.537   4.338 129.834  0.00  0.00    +0.076 C 
ATOM     17  C   LIG A   1      -4.304   4.547 128.309  0.00  0.00    +0.068 C 
ENDROOT
BRANCH   1  19
ATOM     18  C   LIG A   1      -1.794   3.179 126.366  0.00  0.00    +0.194 C 
ATOM     19  O   LIG A   1      -2.496   2.978 127.581  0.00  0.00    -0.376 OA
ENDBRANCH   1  19
BRANCH   9  20
ATOM     20  O   LIG A   1      -4.621   6.606 133.027  0.00  0.00    -0.386 OA
ATOM     21  H   LIG A   1      -4.113   7.352 133.391  0.00  0.00    +0.210 HD
ENDBRANCH   9  20
BRANCH  12  22
ATOM     22  O   LIG A   1      -9.509   6.768 131.392  0.00  0.00    -0.491 OA
ATOM     23  C   LIG A   1     -10.199   6.190 132.493  0.00  0.00    +0.277 C 
ENDBRANCH  12  22
BRANCH  13  24
ATOM     24  O   LIG A   1      -9.536   4.524 129.589  0.00  0.00    -0.491 OA
ATOM     25  C   LIG A   1     -10.108   3.378 130.206  0.00  0.00    +0.277 C 
ENDBRANCH  13  24
TORSDOF 4
ENDMDL
