MODEL 1
REMARK VINA RESULT:      -8.3      0.000      0.000
REMARK  Name = NuBBE_1605
REMARK  16 active torsions:
REMARK  status: ('A' for Active; 'I' for Inactive)
REMARK    1  A    between atoms: O_1  and  C_2
REMARK    2  A    between atoms: C_7  and  C_8
REMARK    3  A    between atoms: C_7  and  C_24
REMARK    4  A    between atoms: C_8  and  C_9
REMARK    5  A    between atoms: C_9  and  C_10
REMARK    6  A    between atoms: C_11  and  C_12
REMARK    7  A    between atoms: C_11  and  C_13
REMARK    8  A    between atoms: C_13  and  C_14
REMARK    9  A    between atoms: C_14  and  C_15
REMARK   10  A    between atoms: C_16  and  C_17
REMARK   11  A    between atoms: C_16  and  C_18
REMARK   12  A    between atoms: C_18  and  C_19
REMARK   13  A    between atoms: C_19  and  C_20
REMARK   14  A    between atoms: C_21  and  C_22
REMARK   15  A    between atoms: C_21  and  C_23
REMARK   16  A    between atoms: C_27  and  C_28
REMARK                            x       y       z     vdW  Elec       q    Type
REMARK                         _______ _______ _______ _____ _____    ______ ____
ROOT
ATOM      1  C   LIG A   1      -5.543  -0.377 128.102  0.00  0.00    +0.051 C 
ENDROOT
BRANCH   1   7
ATOM      2  C   LIG A   1      -9.048  -3.157 124.367  0.00  0.00    +0.118 A 
ATOM      3  C   LIG A   1      -9.208  -2.761 125.690  0.00  0.00    +0.052 A 
ATOM      4  C   LIG A   1      -8.078  -2.511 126.487  0.00  0.00    -0.002 A 
ATOM      5  C   LIG A   1      -6.801  -2.607 125.926  0.00  0.00    +0.128 A 
ATOM      6  O   LIG A   1      -5.650  -2.314 126.602  0.00  0.00    -0.485 OA
ATOM      7  C   LIG A   1      -5.712  -1.923 127.984  0.00  0.00    +0.108 C 
ATOM      8  C   LIG A   1      -4.517  -2.636 128.646  0.00  0.00    +0.056 C 
ATOM      9  C   LIG A   1      -6.983  -2.431 128.698  0.00  0.00    +0.052 C 
ATOM     10  C   LIG A   1      -8.259  -2.147 127.927  0.00  0.00    +0.043 C 
ATOM     11  C   LIG A   1      -6.645  -3.042 124.596  0.00  0.00    -0.005 A 
ATOM     12  C   LIG A   1      -5.277  -3.209 123.997  0.00  0.00    +0.048 C 
ATOM     13  C   LIG A   1      -7.780  -3.318 123.823  0.00  0.00    +0.052 A 
BRANCH   2  14
ATOM     14  O   LIG A   1     -10.121  -3.403 123.564  0.00  0.00    -0.507 OA
ATOM     15  H   LIG A   1     -10.094  -4.334 123.287  0.00  0.00    +0.292 HD
ENDBRANCH   2  14
ENDBRANCH   1   7
BRANCH   1  16
ATOM     16  C   LIG A   1      -6.041   0.224 129.438  0.00  0.00    +0.031 C 
BRANCH  16  17
ATOM     17  C   LIG A   1      -7.106   1.278 129.244  0.00  0.00    -0.028 C 
ATOM     18  C   LIG A   1      -8.258   1.435 129.936  0.00  0.00    -0.076 C 
ATOM     19  C   LIG A   1      -8.702   0.576 131.092  0.00  0.00    +0.038 C 
BRANCH  18  20
ATOM     20  C   LIG A   1      -9.217   2.560 129.581  0.00  0.00    +0.034 C 
BRANCH  20  21
ATOM     21  C   LIG A   1      -8.974   3.811 130.435  0.00  0.00    +0.031 C 
BRANCH  21  22
ATOM     22  C   LIG A   1     -10.255   4.476 130.862  0.00  0.00    -0.027 C 
ATOM     23  C   LIG A   1     -10.455   5.796 131.047  0.00  0.00    -0.076 C 
ATOM     24  C   LIG A   1      -9.342   6.809 130.928  0.00  0.00    +0.038 C 
BRANCH  23  25
ATOM     25  C   LIG A   1     -11.814   6.406 131.382  0.00  0.00    +0.034 C 
BRANCH  25  26
ATOM     26  C   LIG A   1     -12.276   7.586 130.507  0.00  0.00    +0.031 C 
BRANCH  26  27
ATOM     27  C   LIG A   1     -12.661   7.224 129.095  0.00  0.00    -0.028 C 
ATOM     28  C   LIG A   1     -12.007   7.515 127.965  0.00  0.00    -0.080 C 
ATOM     29  C   LIG A   1     -10.746   8.333 127.863  0.00  0.00    +0.038 C 
ATOM     30  C   LIG A   1     -12.494   7.007 126.628  0.00  0.00    +0.038 C 
ENDBRANCH  26  27
ENDBRANCH  25  26
ENDBRANCH  23  25
ENDBRANCH  21  22
ENDBRANCH  20  21
ENDBRANCH  18  20
ENDBRANCH  16  17
ENDBRANCH   1  16
TORSDOF 10
ENDMDL
MODEL 2
REMARK VINA RESULT:      -8.3      4.123      8.544
REMARK  Name = NuBBE_1605
REMARK  16 active torsions:
REMARK  status: ('A' for Active; 'I' for Inactive)
REMARK    1  A    between atoms: O_1  and  C_2
REMARK    2  A    between atoms: C_7  and  C_8
REMARK    3  A    between atoms: C_7  and  C_24
REMARK    4  A    between atoms: C_8  and  C_9
REMARK    5  A    between atoms: C_9  and  C_10
REMARK    6  A    between atoms: C_11  and  C_12
REMARK    7  A    between atoms: C_11  and  C_13
REMARK    8  A    between atoms: C_13  and  C_14
REMARK    9  A    between atoms: C_14  and  C_15
REMARK   10  A    between atoms: C_16  and  C_17
REMARK   11  A    between atoms: C_16  and  C_18
REMARK   12  A    between atoms: C_18  and  C_19
REMARK   13  A    between atoms: C_19  and  C_20
REMARK   14  A    between atoms: C_21  and  C_22
REMARK   15  A    between atoms: C_21  and  C_23
REMARK   16  A    between atoms: C_27  and  C_28
REMARK                            x       y       z     vdW  Elec       q    Type
REMARK                         _______ _______ _______ _____ _____    ______ ____
ROOT
ATOM      1  C   LIG A   1      -5.748   0.442 128.231  0.00  0.00    +0.051 C 
ENDROOT
BRANCH   1   7
ATOM      2  C   LIG A   1      -5.794   3.958 123.583  0.00  0.00    +0.118 A 
ATOM      3  C   LIG A   1      -5.134   4.023 124.806  0.00  0.00    +0.052 A 
ATOM      4  C   LIG A   1      -5.624   3.300 125.905  0.00  0.00    -0.002 A 
ATOM      5  C   LIG A   1      -6.743   2.475 125.746  0.00  0.00    +0.128 A 
ATOM      6  O   LIG A   1      -7.248   1.681 126.738  0.00  0.00    -0.485 OA
ATOM      7  C   LIG A   1      -6.650   1.700 128.045  0.00  0.00    +0.108 C 
ATOM      8  C   LIG A   1      -7.840   1.644 129.022  0.00  0.00    +0.056 C 
ATOM      9  C   LIG A   1      -5.893   3.014 128.342  0.00  0.00    +0.052 C 
ATOM     10  C   LIG A   1      -4.945   3.424 127.231  0.00  0.00    +0.043 C 
ATOM     11  C   LIG A   1      -7.427   2.441 124.517  0.00  0.00    -0.005 A 
ATOM     12  C   LIG A   1      -8.666   1.607 124.348  0.00  0.00    +0.048 C 
ATOM     13  C   LIG A   1      -6.943   3.192 123.438  0.00  0.00    +0.052 A 
BRANCH   2  14
ATOM     14  O   LIG A   1      -5.343   4.643 122.494  0.00  0.00    -0.507 OA
ATOM     15  H   LIG A   1      -4.518   4.232 122.190  0.00  0.00    +0.292 HD
ENDBRANCH   2  14
ENDBRANCH   1   7
BRANCH   1  16
ATOM     16  C   LIG A   1      -6.451  -0.759 128.907  0.00  0.00    +0.031 C 
BRANCH  16  17
ATOM     17  C   LIG A   1      -7.170  -1.648 127.919  0.00  0.00    -0.028 C 
ATOM     18  C   LIG A   1      -7.939  -2.731 128.179  0.00  0.00    -0.076 C 
ATOM     19  C   LIG A   1      -8.261  -3.258 129.553  0.00  0.00    +0.038 C 
BRANCH  18  20
ATOM     20  C   LIG A   1      -8.574  -3.510 127.038  0.00  0.00    +0.034 C 
BRANCH  20  21
ATOM     21  C   LIG A   1      -9.448  -2.617 126.150  0.00  0.00    +0.031 C 
BRANCH  21  22
ATOM     22  C   LIG A   1      -8.692  -2.050 124.978  0.00  0.00    -0.027 C 
ATOM     23  C   LIG A   1      -8.825  -2.407 123.685  0.00  0.00    -0.076 C 
ATOM     24  C   LIG A   1      -9.730  -3.533 123.243  0.00  0.00    +0.038 C 
BRANCH  23  25
ATOM     25  C   LIG A   1      -8.094  -1.713 122.539  0.00  0.00    +0.034 C 
BRANCH  25  26
ATOM     26  C   LIG A   1      -6.604  -1.396 122.761  0.00  0.00    +0.031 C 
BRANCH  26  27
ATOM     27  C   LIG A   1      -5.681  -2.588 122.712  0.00  0.00    -0.028 C 
ATOM     28  C   LIG A   1      -5.121  -3.236 123.740  0.00  0.00    -0.080 C 
ATOM     29  C   LIG A   1      -5.256  -2.864 125.194  0.00  0.00    +0.038 C 
ATOM     30  C   LIG A   1      -4.276  -4.468 123.519  0.00  0.00    +0.038 C 
ENDBRANCH  26  27
ENDBRANCH  25  26
ENDBRANCH  23  25
ENDBRANCH  21  22
ENDBRANCH  20  21
ENDBRANCH  18  20
ENDBRANCH  16  17
ENDBRANCH   1  16
TORSDOF 10
ENDMDL
MODEL 3
REMARK VINA RESULT:      -8.3      4.194      7.335
REMARK  Name = NuBBE_1605
REMARK  16 active torsions:
REMARK  status: ('A' for Active; 'I' for Inactive)
REMARK    1  A    between atoms: O_1  and  C_2
REMARK    2  A    between atoms: C_7  and  C_8
REMARK    3  A    between atoms: C_7  and  C_24
REMARK    4  A    between atoms: C_8  and  C_9
REMARK    5  A    between atoms: C_9  and  C_10
REMARK    6  A    between atoms: C_11  and  C_12
REMARK    7  A    between atoms: C_11  and  C_13
REMARK    8  A    between atoms: C_13  and  C_14
REMARK    9  A    between atoms: C_14  and  C_15
REMARK   10  A    between atoms: C_16  and  C_17
REMARK   11  A    between atoms: C_16  and  C_18
REMARK   12  A    between atoms: C_18  and  C_19
REMARK   13  A    between atoms: C_19  and  C_20
REMARK   14  A    between atoms: C_21  and  C_22
REMARK   15  A    between atoms: C_21  and  C_23
REMARK   16  A    between atoms: C_27  and  C_28
REMARK                            x       y       z     vdW  Elec       q    Type
REMARK                         _______ _______ _______ _____ _____    ______ ____
ROOT
ATOM      1  C   LIG A   1      -7.949  -2.214 128.374  0.00  0.00    +0.051 C 
ENDROOT
BRANCH   1   7
ATOM      2  C   LIG A   1      -4.547   2.323 127.031  0.00  0.00    +0.118 A 
ATOM      3  C   LIG A   1      -4.880   1.160 126.344  0.00  0.00    +0.052 A 
ATOM      4  C   LIG A   1      -5.352   0.041 127.049  0.00  0.00    -0.002 A 
ATOM      5  C   LIG A   1      -5.536   0.124 128.434  0.00  0.00    +0.128 A 
ATOM      6  O   LIG A   1      -6.056  -0.887 129.192  0.00  0.00    -0.485 OA
ATOM      7  C   LIG A   1      -6.405  -2.138 128.575  0.00  0.00    +0.108 C 
ATOM      8  C   LIG A   1      -5.951  -3.211 129.584  0.00  0.00    +0.056 C 
ATOM      9  C   LIG A   1      -5.628  -2.402 127.267  0.00  0.00    +0.052 C 
ATOM     10  C   LIG A   1      -5.648  -1.225 126.310  0.00  0.00    +0.043 C 
ATOM     11  C   LIG A   1      -5.165   1.291 129.127  0.00  0.00    -0.005 A 
ATOM     12  C   LIG A   1      -5.300   1.374 130.621  0.00  0.00    +0.048 C 
ATOM     13  C   LIG A   1      -4.666   2.389 128.413  0.00  0.00    +0.052 A 
BRANCH   2  14
ATOM     14  O   LIG A   1      -4.091   3.429 126.377  0.00  0.00    -0.507 OA
ATOM     15  H   LIG A   1      -3.294   3.750 126.832  0.00  0.00    +0.292 HD
ENDBRANCH   2  14
ENDBRANCH   1   7
BRANCH   1  16
ATOM     16  C   LIG A   1      -8.447  -3.520 127.711  0.00  0.00    +0.031 C 
BRANCH  16  17
ATOM     17  C   LIG A   1      -9.200  -3.273 126.424  0.00  0.00    -0.028 C 
ATOM     18  C   LIG A   1      -8.812  -3.568 125.162  0.00  0.00    -0.076 C 
ATOM     19  C   LIG A   1      -7.523  -4.252 124.787  0.00  0.00    +0.038 C 
BRANCH  18  20
ATOM     20  C   LIG A   1      -9.712  -3.227 123.985  0.00  0.00    +0.034 C 
BRANCH  20  21
ATOM     21  C   LIG A   1      -8.925  -2.612 122.821  0.00  0.00    +0.031 C 
BRANCH  21  22
ATOM     22  C   LIG A   1      -8.519  -1.187 123.089  0.00  0.00    -0.027 C 
ATOM     23  C   LIG A   1      -7.268  -0.686 123.057  0.00  0.00    -0.076 C 
ATOM     24  C   LIG A   1      -6.053  -1.553 122.823  0.00  0.00    +0.038 C 
BRANCH  23  25
ATOM     25  C   LIG A   1      -6.946   0.794 123.239  0.00  0.00    +0.034 C 
BRANCH  25  26
ATOM     26  C   LIG A   1      -8.087   1.691 123.755  0.00  0.00    +0.031 C 
BRANCH  26  27
ATOM     27  C   LIG A   1      -8.078   1.948 125.241  0.00  0.00    -0.028 C 
ATOM     28  C   LIG A   1      -8.772   1.310 126.189  0.00  0.00    -0.080 C 
ATOM     29  C   LIG A   1      -9.775   0.209 125.957  0.00  0.00    +0.038 C 
ATOM     30  C   LIG A   1      -8.587   1.645 127.651  0.00  0.00    +0.038 C 
ENDBRANCH  26  27
ENDBRANCH  25  26
ENDBRANCH  23  25
ENDBRANCH  21  22
ENDBRANCH  20  21
ENDBRANCH  18  20
ENDBRANCH  16  17
ENDBRANCH   1  16
TORSDOF 10
ENDMDL
MODEL 4
REMARK VINA RESULT:      -8.2      4.235      5.529
REMARK  Name = NuBBE_1605
REMARK  16 active torsions:
REMARK  status: ('A' for Active; 'I' for Inactive)
REMARK    1  A    between atoms: O_1  and  C_2
REMARK    2  A    between atoms: C_7  and  C_8
REMARK    3  A    between atoms: C_7  and  C_24
REMARK    4  A    between atoms: C_8  and  C_9
REMARK    5  A    between atoms: C_9  and  C_10
REMARK    6  A    between atoms: C_11  and  C_12
REMARK    7  A    between atoms: C_11  and  C_13
REMARK    8  A    between atoms: C_13  and  C_14
REMARK    9  A    between atoms: C_14  and  C_15
REMARK   10  A    between atoms: C_16  and  C_17
REMARK   11  A    between atoms: C_16  and  C_18
REMARK   12  A    between atoms: C_18  and  C_19
REMARK   13  A    between atoms: C_19  and  C_20
REMARK   14  A    between atoms: C_21  and  C_22
REMARK   15  A    between atoms: C_21  and  C_23
REMARK   16  A    between atoms: C_27  and  C_28
REMARK                            x       y       z     vdW  Elec       q    Type
REMARK                         _______ _______ _______ _____ _____    ______ ____
ROOT
ATOM      1  C   LIG A   1      -5.768  -0.531 128.041  0.00  0.00    +0.051 C 
ENDROOT
BRANCH   1   7
ATOM      2  C   LIG A   1      -9.191  -3.211 124.160  0.00  0.00    +0.118 A 
ATOM      3  C   LIG A   1      -9.346  -2.926 125.512  0.00  0.00    +0.052 A 
ATOM      4  C   LIG A   1      -8.217  -2.674 126.308  0.00  0.00    -0.002 A 
ATOM      5  C   LIG A   1      -6.947  -2.658 125.721  0.00  0.00    +0.128 A 
ATOM      6  O   LIG A   1      -5.800  -2.353 126.400  0.00  0.00    -0.485 OA
ATOM      7  C   LIG A   1      -5.856  -2.071 127.808  0.00  0.00    +0.108 C 
ATOM      8  C   LIG A   1      -4.612  -2.765 128.396  0.00  0.00    +0.056 C 
ATOM      9  C   LIG A   1      -7.084  -2.700 128.502  0.00  0.00    +0.052 C 
ATOM     10  C   LIG A   1      -8.388  -2.430 127.774  0.00  0.00    +0.043 C 
ATOM     11  C   LIG A   1      -6.794  -2.982 124.360  0.00  0.00    -0.005 A 
ATOM     12  C   LIG A   1      -5.431  -3.028 123.729  0.00  0.00    +0.048 C 
ATOM     13  C   LIG A   1      -7.928  -3.261 123.586  0.00  0.00    +0.052 A 
BRANCH   2  14
ATOM     14  O   LIG A   1     -10.266  -3.456 123.357  0.00  0.00    -0.507 OA
ATOM     15  H   LIG A   1     -10.579  -4.360 123.526  0.00  0.00    +0.292 HD
ENDBRANCH   2  14
ENDBRANCH   1   7
BRANCH   1  16
ATOM     16  C   LIG A   1      -5.339   0.283 126.798  0.00  0.00    +0.031 C 
BRANCH  16  17
ATOM     17  C   LIG A   1      -5.901   1.686 126.796  0.00  0.00    -0.028 C 
ATOM     18  C   LIG A   1      -5.229   2.852 126.653  0.00  0.00    -0.076 C 
ATOM     19  C   LIG A   1      -3.744   2.978 126.431  0.00  0.00    +0.038 C 
BRANCH  18  20
ATOM     20  C   LIG A   1      -5.976   4.175 126.690  0.00  0.00    +0.034 C 
BRANCH  20  21
ATOM     21  C   LIG A   1      -5.894   4.917 125.350  0.00  0.00    +0.031 C 
BRANCH  21  22
ATOM     22  C   LIG A   1      -6.664   4.225 124.258  0.00  0.00    -0.027 C 
ATOM     23  C   LIG A   1      -6.229   3.955 123.011  0.00  0.00    -0.076 C 
ATOM     24  C   LIG A   1      -4.882   4.416 122.505  0.00  0.00    +0.038 C 
BRANCH  23  25
ATOM     25  C   LIG A   1      -7.034   3.157 121.990  0.00  0.00    +0.034 C 
BRANCH  25  26
ATOM     26  C   LIG A   1      -8.546   3.026 122.251  0.00  0.00    +0.031 C 
BRANCH  26  27
ATOM     27  C   LIG A   1      -8.916   2.394 123.569  0.00  0.00    -0.028 C 
ATOM     28  C   LIG A   1      -9.472   1.195 123.777  0.00  0.00    -0.080 C 
ATOM     29  C   LIG A   1      -9.905   0.227 122.707  0.00  0.00    +0.038 C 
ATOM     30  C   LIG A   1      -9.709   0.677 125.176  0.00  0.00    +0.038 C 
ENDBRANCH  26  27
ENDBRANCH  25  26
ENDBRANCH  23  25
ENDBRANCH  21  22
ENDBRANCH  20  21
ENDBRANCH  18  20
ENDBRANCH  16  17
ENDBRANCH   1  16
TORSDOF 10
ENDMDL
MODEL 5
REMARK VINA RESULT:      -8.1      1.456      2.170
REMARK  Name = NuBBE_1605
REMARK  16 active torsions:
REMARK  status: ('A' for Active; 'I' for Inactive)
REMARK    1  A    between atoms: O_1  and  C_2
REMARK    2  A    between atoms: C_7  and  C_8
REMARK    3  A    between atoms: C_7  and  C_24
REMARK    4  A    between atoms: C_8  and  C_9
REMARK    5  A    between atoms: C_9  and  C_10
REMARK    6  A    between atoms: C_11  and  C_12
REMARK    7  A    between atoms: C_11  and  C_13
REMARK    8  A    between atoms: C_13  and  C_14
REMARK    9  A    between atoms: C_14  and  C_15
REMARK   10  A    between atoms: C_16  and  C_17
REMARK   11  A    between atoms: C_16  and  C_18
REMARK   12  A    between atoms: C_18  and  C_19
REMARK   13  A    between atoms: C_19  and  C_20
REMARK   14  A    between atoms: C_21  and  C_22
REMARK   15  A    between atoms: C_21  and  C_23
REMARK   16  A    between atoms: C_27  and  C_28
REMARK                            x       y       z     vdW  Elec       q    Type
REMARK                         _______ _______ _______ _____ _____    ______ ____
ROOT
ATOM      1  C   LIG A   1      -6.848  -1.167 129.692  0.00  0.00    +0.051 C 
ENDROOT
BRANCH   1   7
ATOM      2  C   LIG A   1      -9.097  -3.027 124.647  0.00  0.00    +0.118 A 
ATOM      3  C   LIG A   1      -9.380  -3.335 125.973  0.00  0.00    +0.052 A 
ATOM      4  C   LIG A   1      -8.419  -3.093 126.969  0.00  0.00    -0.002 A 
ATOM      5  C   LIG A   1      -7.203  -2.493 126.624  0.00  0.00    +0.128 A 
ATOM      6  O   LIG A   1      -6.239  -2.156 127.532  0.00  0.00    -0.485 OA
ATOM      7  C   LIG A   1      -6.429  -2.458 128.924  0.00  0.00    +0.108 C 
ATOM      8  C   LIG A   1      -5.048  -2.937 129.412  0.00  0.00    +0.056 C 
ATOM      9  C   LIG A   1      -7.411  -3.627 129.158  0.00  0.00    +0.052 C 
ATOM     10  C   LIG A   1      -8.708  -3.484 128.383  0.00  0.00    +0.043 C 
ATOM     11  C   LIG A   1      -6.909  -2.217 125.276  0.00  0.00    -0.005 A 
ATOM     12  C   LIG A   1      -5.584  -1.629 124.882  0.00  0.00    +0.048 C 
ATOM     13  C   LIG A   1      -7.867  -2.492 124.290  0.00  0.00    +0.052 A 
BRANCH   2  14
ATOM     14  O   LIG A   1     -10.009  -3.244 123.657  0.00  0.00    -0.507 OA
ATOM     15  H   LIG A   1     -10.861  -3.472 124.065  0.00  0.00    +0.292 HD
ENDBRANCH   2  14
ENDBRANCH   1   7
BRANCH   1  16
ATOM     16  C   LIG A   1      -7.116  -1.376 131.201  0.00  0.00    +0.031 C 
BRANCH  16  17
ATOM     17  C   LIG A   1      -7.042  -0.090 131.991  0.00  0.00    -0.028 C 
ATOM     18  C   LIG A   1      -8.047   0.766 132.285  0.00  0.00    -0.076 C 
ATOM     19  C   LIG A   1      -9.490   0.580 131.892  0.00  0.00    +0.038 C 
BRANCH  18  20
ATOM     20  C   LIG A   1      -7.770   2.025 133.090  0.00  0.00    +0.034 C 
BRANCH  20  21
ATOM     21  C   LIG A   1      -8.893   3.059 132.942  0.00  0.00    +0.031 C 
BRANCH  21  22
ATOM     22  C   LIG A   1      -8.589   4.097 131.895  0.00  0.00    -0.027 C 
ATOM     23  C   LIG A   1      -9.351   4.413 130.829  0.00  0.00    -0.076 C 
ATOM     24  C   LIG A   1     -10.622   3.670 130.492  0.00  0.00    +0.038 C 
BRANCH  23  25
ATOM     25  C   LIG A   1      -9.024   5.550 129.865  0.00  0.00    +0.034 C 
BRANCH  25  26
ATOM     26  C   LIG A   1      -9.331   6.978 130.352  0.00  0.00    +0.031 C 
BRANCH  26  27
ATOM     27  C   LIG A   1     -10.445   7.681 129.618  0.00  0.00    -0.028 C 
ATOM     28  C   LIG A   1     -11.749   7.688 129.917  0.00  0.00    -0.080 C 
ATOM     29  C   LIG A   1     -12.398   6.931 131.046  0.00  0.00    +0.038 C 
ATOM     30  C   LIG A   1     -12.729   8.512 129.115  0.00  0.00    +0.038 C 
ENDBRANCH  26  27
ENDBRANCH  25  26
ENDBRANCH  23  25
ENDBRANCH  21  22
ENDBRANCH  20  21
ENDBRANCH  18  20
ENDBRANCH  16  17
ENDBRANCH   1  16
TORSDOF 10
ENDMDL
MODEL 6
REMARK VINA RESULT:      -8.1      3.352      5.687
REMARK  Name = NuBBE_1605
REMARK  16 active torsions:
REMARK  status: ('A' for Active; 'I' for Inactive)
REMARK    1  A    between atoms: O_1  and  C_2
REMARK    2  A    between atoms: C_7  and  C_8
REMARK    3  A    between atoms: C_7  and  C_24
REMARK    4  A    between atoms: C_8  and  C_9
REMARK    5  A    between atoms: C_9  and  C_10
REMARK    6  A    between atoms: C_11  and  C_12
REMARK    7  A    between atoms: C_11  and  C_13
REMARK    8  A    between atoms: C_13  and  C_14
REMARK    9  A    between atoms: C_14  and  C_15
REMARK   10  A    between atoms: C_16  and  C_17
REMARK   11  A    between atoms: C_16  and  C_18
REMARK   12  A    between atoms: C_18  and  C_19
REMARK   13  A    between atoms: C_19  and  C_20
REMARK   14  A    between atoms: C_21  and  C_22
REMARK   15  A    between atoms: C_21  and  C_23
REMARK   16  A    between atoms: C_27  and  C_28
REMARK                            x       y       z     vdW  Elec       q    Type
REMARK                         _______ _______ _______ _____ _____    ______ ____
ROOT
ATOM      1  C   LIG A   1      -9.142  -2.887 125.508  0.00  0.00    +0.051 C 
ENDROOT
BRANCH   1   7
ATOM      2  C   LIG A   1      -7.925   2.534 123.744  0.00  0.00    +0.118 A 
ATOM      3  C   LIG A   1      -8.738   1.534 123.221  0.00  0.00    +0.052 A 
ATOM      4  C   LIG A   1      -8.519   0.194 123.580  0.00  0.00    -0.002 A 
ATOM      5  C   LIG A   1      -7.519  -0.119 124.507  0.00  0.00    +0.128 A 
ATOM      6  O   LIG A   1      -7.281  -1.383 124.970  0.00  0.00    -0.485 OA
ATOM      7  C   LIG A   1      -8.052  -2.486 124.467  0.00  0.00    +0.108 C 
ATOM      8  C   LIG A   1      -7.035  -3.632 124.302  0.00  0.00    +0.056 C 
ATOM      9  C   LIG A   1      -8.647  -2.218 123.067  0.00  0.00    +0.052 C 
ATOM     10  C   LIG A   1      -9.358  -0.880 122.965  0.00  0.00    +0.043 C 
ATOM     11  C   LIG A   1      -6.677   0.893 125.006  0.00  0.00    -0.005 A 
ATOM     12  C   LIG A   1      -5.559   0.565 125.955  0.00  0.00    +0.048 C 
ATOM     13  C   LIG A   1      -6.888   2.222 124.614  0.00  0.00    +0.052 A 
BRANCH   2  14
ATOM     14  O   LIG A   1      -8.112   3.844 123.421  0.00  0.00    -0.507 OA
ATOM     15  H   LIG A   1      -8.587   4.278 124.148  0.00  0.00    +0.292 HD
ENDBRANCH   2  14
ENDBRANCH   1   7
BRANCH   1  16
ATOM     16  C   LIG A   1      -8.662  -3.883 126.589  0.00  0.00    +0.031 C 
BRANCH  16  17
ATOM     17  C   LIG A   1      -8.640  -3.278 127.974  0.00  0.00    -0.028 C 
ATOM     18  C   LIG A   1      -7.594  -2.709 128.617  0.00  0.00    -0.076 C 
ATOM     19  C   LIG A   1      -6.211  -2.537 128.045  0.00  0.00    +0.038 C 
BRANCH  18  20
ATOM     20  C   LIG A   1      -7.768  -2.162 130.025  0.00  0.00    +0.034 C 
BRANCH  20  21
ATOM     21  C   LIG A   1      -6.838  -0.974 130.298  0.00  0.00    +0.031 C 
BRANCH  21  22
ATOM     22  C   LIG A   1      -7.577   0.231 130.814  0.00  0.00    -0.027 C 
ATOM     23  C   LIG A   1      -8.260   1.134 130.081  0.00  0.00    -0.076 C 
ATOM     24  C   LIG A   1      -8.295   1.092 128.572  0.00  0.00    +0.038 C 
BRANCH  23  25
ATOM     25  C   LIG A   1      -9.072   2.274 130.688  0.00  0.00    +0.034 C 
BRANCH  25  26
ATOM     26  C   LIG A   1      -9.700   2.016 132.070  0.00  0.00    +0.031 C 
BRANCH  26  27
ATOM     27  C   LIG A   1      -9.433   3.080 133.105  0.00  0.00    -0.028 C 
ATOM     28  C   LIG A   1      -8.310   3.285 133.801  0.00  0.00    -0.080 C 
ATOM     29  C   LIG A   1      -7.065   2.439 133.733  0.00  0.00    +0.038 C 
ATOM     30  C   LIG A   1      -8.182   4.453 134.751  0.00  0.00    +0.038 C 
ENDBRANCH  26  27
ENDBRANCH  25  26
ENDBRANCH  23  25
ENDBRANCH  21  22
ENDBRANCH  20  21
ENDBRANCH  18  20
ENDBRANCH  16  17
ENDBRANCH   1  16
TORSDOF 10
ENDMDL
MODEL 7
REMARK VINA RESULT:      -8.0      1.886      2.901
REMARK  Name = NuBBE_1605
REMARK  16 active torsions:
REMARK  status: ('A' for Active; 'I' for Inactive)
REMARK    1  A    between atoms: O_1  and  C_2
REMARK    2  A    between atoms: C_7  and  C_8
REMARK    3  A    between atoms: C_7  and  C_24
REMARK    4  A    between atoms: C_8  and  C_9
REMARK    5  A    between atoms: C_9  and  C_10
REMARK    6  A    between atoms: C_11  and  C_12
REMARK    7  A    between atoms: C_11  and  C_13
REMARK    8  A    between atoms: C_13  and  C_14
REMARK    9  A    between atoms: C_14  and  C_15
REMARK   10  A    between atoms: C_16  and  C_17
REMARK   11  A    between atoms: C_16  and  C_18
REMARK   12  A    between atoms: C_18  and  C_19
REMARK   13  A    between atoms: C_19  and  C_20
REMARK   14  A    between atoms: C_21  and  C_22
REMARK   15  A    between atoms: C_21  and  C_23
REMARK   16  A    between atoms: C_27  and  C_28
REMARK                            x       y       z     vdW  Elec       q    Type
REMARK                         _______ _______ _______ _____ _____    ______ ____
ROOT
ATOM      1  C   LIG A   1      -5.794  -0.626 128.427  0.00  0.00    +0.051 C 
ENDROOT
BRANCH   1   7
ATOM      2  C   LIG A   1      -9.086  -3.200 124.365  0.00  0.00    +0.118 A 
ATOM      3  C   LIG A   1      -9.261  -3.000 125.730  0.00  0.00    +0.052 A 
ATOM      4  C   LIG A   1      -8.148  -2.754 126.550  0.00  0.00    -0.002 A 
ATOM      5  C   LIG A   1      -6.875  -2.655 125.976  0.00  0.00    +0.128 A 
ATOM      6  O   LIG A   1      -5.746  -2.348 126.682  0.00  0.00    -0.485 OA
ATOM      7  C   LIG A   1      -5.822  -2.151 128.104  0.00  0.00    +0.108 C 
ATOM      8  C   LIG A   1      -4.556  -2.831 128.661  0.00  0.00    +0.056 C 
ATOM      9  C   LIG A   1      -7.030  -2.866 128.748  0.00  0.00    +0.052 C 
ATOM     10  C   LIG A   1      -8.338  -2.602 128.025  0.00  0.00    +0.043 C 
ATOM     11  C   LIG A   1      -6.701  -2.893 124.600  0.00  0.00    -0.005 A 
ATOM     12  C   LIG A   1      -5.333  -2.851 123.979  0.00  0.00    +0.048 C 
ATOM     13  C   LIG A   1      -7.818  -3.169 123.800  0.00  0.00    +0.052 A 
BRANCH   2  14
ATOM     14  O   LIG A   1     -10.145  -3.437 123.540  0.00  0.00    -0.507 OA
ATOM     15  H   LIG A   1     -10.257  -4.397 123.447  0.00  0.00    +0.292 HD
ENDBRANCH   2  14
ENDBRANCH   1   7
BRANCH   1  16
ATOM     16  C   LIG A   1      -5.265  -0.278 129.839  0.00  0.00    +0.031 C 
BRANCH  16  17
ATOM     17  C   LIG A   1      -6.285   0.453 130.681  0.00  0.00    -0.028 C 
ATOM     18  C   LIG A   1      -7.018  -0.033 131.709  0.00  0.00    -0.076 C 
ATOM     19  C   LIG A   1      -6.935  -1.437 132.249  0.00  0.00    +0.038 C 
BRANCH  18  20
ATOM     20  C   LIG A   1      -8.010   0.864 132.432  0.00  0.00    +0.034 C 
BRANCH  20  21
ATOM     21  C   LIG A   1      -9.396   0.833 131.775  0.00  0.00    +0.031 C 
BRANCH  21  22
ATOM     22  C   LIG A   1     -10.032   2.196 131.704  0.00  0.00    -0.027 C 
ATOM     23  C   LIG A   1      -9.899   3.097 130.709  0.00  0.00    -0.076 C 
ATOM     24  C   LIG A   1      -8.983   2.872 129.530  0.00  0.00    +0.038 C 
BRANCH  23  25
ATOM     25  C   LIG A   1     -10.659   4.419 130.661  0.00  0.00    +0.034 C 
BRANCH  25  26
ATOM     26  C   LIG A   1     -10.191   5.520 131.632  0.00  0.00    +0.031 C 
BRANCH  26  27
ATOM     27  C   LIG A   1      -8.971   6.288 131.189  0.00  0.00    -0.028 C 
ATOM     28  C   LIG A   1      -7.743   6.254 131.717  0.00  0.00    -0.080 C 
ATOM     29  C   LIG A   1      -7.327   5.461 132.929  0.00  0.00    +0.038 C 
ATOM     30  C   LIG A   1      -6.606   7.034 131.101  0.00  0.00    +0.038 C 
ENDBRANCH  26  27
ENDBRANCH  25  26
ENDBRANCH  23  25
ENDBRANCH  21  22
ENDBRANCH  20  21
ENDBRANCH  18  20
ENDBRANCH  16  17
ENDBRANCH   1  16
TORSDOF 10
ENDMDL
MODEL 8
REMARK VINA RESULT:      -8.0      2.389      3.465
REMARK  Name = NuBBE_1605
REMARK  16 active torsions:
REMARK  status: ('A' for Active; 'I' for Inactive)
REMARK    1  A    between atoms: O_1  and  C_2
REMARK    2  A    between atoms: C_7  and  C_8
REMARK    3  A    between atoms: C_7  and  C_24
REMARK    4  A    between atoms: C_8  and  C_9
REMARK    5  A    between atoms: C_9  and  C_10
REMARK    6  A    between atoms: C_11  and  C_12
REMARK    7  A    between atoms: C_11  and  C_13
REMARK    8  A    between atoms: C_13  and  C_14
REMARK    9  A    between atoms: C_14  and  C_15
REMARK   10  A    between atoms: C_16  and  C_17
REMARK   11  A    between atoms: C_16  and  C_18
REMARK   12  A    between atoms: C_18  and  C_19
REMARK   13  A    between atoms: C_19  and  C_20
REMARK   14  A    between atoms: C_21  and  C_22
REMARK   15  A    between atoms: C_21  and  C_23
REMARK   16  A    between atoms: C_27  and  C_28
REMARK                            x       y       z     vdW  Elec       q    Type
REMARK                         _______ _______ _______ _____ _____    ______ ____
ROOT
ATOM      1  C   LIG A   1      -5.802  -1.043 130.291  0.00  0.00    +0.051 C 
ENDROOT
BRANCH   1   7
ATOM      2  C   LIG A   1      -8.913  -2.823 125.696  0.00  0.00    +0.118 A 
ATOM      3  C   LIG A   1      -8.903  -3.210 127.032  0.00  0.00    +0.052 A 
ATOM      4  C   LIG A   1      -7.775  -2.947 127.828  0.00  0.00    -0.002 A 
ATOM      5  C   LIG A   1      -6.692  -2.248 127.283  0.00  0.00    +0.128 A 
ATOM      6  O   LIG A   1      -5.586  -1.886 127.999  0.00  0.00    -0.485 OA
ATOM      7  C   LIG A   1      -5.471  -2.265 129.381  0.00  0.00    +0.108 C 
ATOM      8  C   LIG A   1      -3.994  -2.667 129.555  0.00  0.00    +0.056 C 
ATOM      9  C   LIG A   1      -6.314  -3.508 129.737  0.00  0.00    +0.052 C 
ATOM     10  C   LIG A   1      -7.748  -3.422 129.246  0.00  0.00    +0.043 C 
ATOM     11  C   LIG A   1      -6.695  -1.891 125.922  0.00  0.00    -0.005 A 
ATOM     12  C   LIG A   1      -5.514  -1.194 125.307  0.00  0.00    +0.048 C 
ATOM     13  C   LIG A   1      -7.815  -2.188 125.133  0.00  0.00    +0.052 A 
BRANCH   2  14
ATOM     14  O   LIG A   1      -9.992  -3.058 124.897  0.00  0.00    -0.507 OA
ATOM     15  H   LIG A   1     -10.782  -3.137 125.457  0.00  0.00    +0.292 HD
ENDBRANCH   2  14
ENDBRANCH   1   7
BRANCH   1  16
ATOM     16  C   LIG A   1      -6.131   0.260 129.524  0.00  0.00    +0.031 C 
BRANCH  16  17
ATOM     17  C   LIG A   1      -7.493   0.814 129.871  0.00  0.00    -0.028 C 
ATOM     18  C   LIG A   1      -7.859   2.112 129.989  0.00  0.00    -0.076 C 
ATOM     19  C   LIG A   1      -6.953   3.295 129.761  0.00  0.00    +0.038 C 
BRANCH  18  20
ATOM     20  C   LIG A   1      -9.288   2.473 130.360  0.00  0.00    +0.034 C 
BRANCH  20  21
ATOM     21  C   LIG A   1      -9.663   1.965 131.758  0.00  0.00    +0.031 C 
BRANCH  21  22
ATOM     22  C   LIG A   1      -9.354   2.967 132.839  0.00  0.00    -0.027 C 
ATOM     23  C   LIG A   1      -8.243   3.014 133.600  0.00  0.00    -0.076 C 
ATOM     24  C   LIG A   1      -7.159   1.965 133.518  0.00  0.00    +0.038 C 
BRANCH  23  25
ATOM     25  C   LIG A   1      -7.956   4.123 134.608  0.00  0.00    +0.034 C 
BRANCH  25  26
ATOM     26  C   LIG A   1      -8.079   5.570 134.095  0.00  0.00    +0.031 C 
BRANCH  26  27
ATOM     27  C   LIG A   1      -7.069   5.968 133.049  0.00  0.00    -0.028 C 
ATOM     28  C   LIG A   1      -7.301   6.401 131.805  0.00  0.00    -0.080 C 
ATOM     29  C   LIG A   1      -8.656   6.531 131.157  0.00  0.00    +0.038 C 
ATOM     30  C   LIG A   1      -6.169   6.834 130.904  0.00  0.00    +0.038 C 
ENDBRANCH  26  27
ENDBRANCH  25  26
ENDBRANCH  23  25
ENDBRANCH  21  22
ENDBRANCH  20  21
ENDBRANCH  18  20
ENDBRANCH  16  17
ENDBRANCH   1  16
TORSDOF 10
ENDMDL
MODEL 9
REMARK VINA RESULT:      -7.9      2.863      4.376
REMARK  Name = NuBBE_1605
REMARK  16 active torsions:
REMARK  status: ('A' for Active; 'I' for Inactive)
REMARK    1  A    between atoms: O_1  and  C_2
REMARK    2  A    between atoms: C_7  and  C_8
REMARK    3  A    between atoms: C_7  and  C_24
REMARK    4  A    between atoms: C_8  and  C_9
REMARK    5  A    between atoms: C_9  and  C_10
REMARK    6  A    between atoms: C_11  and  C_12
REMARK    7  A    between atoms: C_11  and  C_13
REMARK    8  A    between atoms: C_13  and  C_14
REMARK    9  A    between atoms: C_14  and  C_15
REMARK   10  A    between atoms: C_16  and  C_17
REMARK   11  A    between atoms: C_16  and  C_18
REMARK   12  A    between atoms: C_18  and  C_19
REMARK   13  A    between atoms: C_19  and  C_20
REMARK   14  A    between atoms: C_21  and  C_22
REMARK   15  A    between atoms: C_21  and  C_23
REMARK   16  A    between atoms: C_27  and  C_28
REMARK                            x       y       z     vdW  Elec       q    Type
REMARK                         _______ _______ _______ _____ _____    ______ ____
ROOT
ATOM      1  C   LIG A   1      -5.550  -0.368 127.864  0.00  0.00    +0.051 C 
ENDROOT
BRANCH   1   7
ATOM      2  C   LIG A   1      -9.136  -3.210 124.255  0.00  0.00    +0.118 A 
ATOM      3  C   LIG A   1      -9.278  -2.765 125.565  0.00  0.00    +0.052 A 
ATOM      4  C   LIG A   1      -8.138  -2.508 126.344  0.00  0.00    -0.002 A 
ATOM      5  C   LIG A   1      -6.867  -2.650 125.778  0.00  0.00    +0.128 A 
ATOM      6  O   LIG A   1      -5.706  -2.355 126.435  0.00  0.00    -0.485 OA
ATOM      7  C   LIG A   1      -5.749  -1.913 127.803  0.00  0.00    +0.108 C 
ATOM      8  C   LIG A   1      -4.564  -2.625 128.482  0.00  0.00    +0.056 C 
ATOM      9  C   LIG A   1      -7.025  -2.370 128.543  0.00  0.00    +0.052 C 
ATOM     10  C   LIG A   1      -8.301  -2.089 127.771  0.00  0.00    +0.043 C 
ATOM     11  C   LIG A   1      -6.730  -3.134 124.464  0.00  0.00    -0.005 A 
ATOM     12  C   LIG A   1      -5.370  -3.350 123.862  0.00  0.00    +0.048 C 
ATOM     13  C   LIG A   1      -7.876  -3.416 123.709  0.00  0.00    +0.052 A 
BRANCH   2  14
ATOM     14  O   LIG A   1     -10.220  -3.464 123.469  0.00  0.00    -0.507 OA
ATOM     15  H   LIG A   1     -10.299  -4.425 123.351  0.00  0.00    +0.292 HD
ENDBRANCH   2  14
ENDBRANCH   1   7
BRANCH   1  16
ATOM     16  C   LIG A   1      -5.396   0.316 126.485  0.00  0.00    +0.031 C 
BRANCH  16  17
ATOM     17  C   LIG A   1      -4.497   1.530 126.531  0.00  0.00    -0.028 C 
ATOM     18  C   LIG A   1      -4.750   2.771 126.056  0.00  0.00    -0.076 C 
ATOM     19  C   LIG A   1      -6.032   3.205 125.394  0.00  0.00    +0.038 C 
BRANCH  18  20
ATOM     20  C   LIG A   1      -3.705   3.868 126.187  0.00  0.00    +0.034 C 
BRANCH  20  21
ATOM     21  C   LIG A   1      -3.315   4.116 127.650  0.00  0.00    +0.031 C 
BRANCH  21  22
ATOM     22  C   LIG A   1      -4.498   4.465 128.512  0.00  0.00    -0.027 C 
ATOM     23  C   LIG A   1      -4.964   3.763 129.564  0.00  0.00    -0.076 C 
ATOM     24  C   LIG A   1      -4.379   2.431 129.972  0.00  0.00    +0.038 C 
BRANCH  23  25
ATOM     25  C   LIG A   1      -6.110   4.235 130.454  0.00  0.00    +0.034 C 
BRANCH  25  26
ATOM     26  C   LIG A   1      -7.453   4.519 129.757  0.00  0.00    +0.031 C 
BRANCH  26  27
ATOM     27  C   LIG A   1      -7.810   3.569 128.642  0.00  0.00    -0.028 C 
ATOM     28  C   LIG A   1      -8.241   2.307 128.744  0.00  0.00    -0.080 C 
ATOM     29  C   LIG A   1      -8.409   1.535 130.027  0.00  0.00    +0.038 C 
ATOM     30  C   LIG A   1      -8.631   1.514 127.519  0.00  0.00    +0.038 C 
ENDBRANCH  26  27
ENDBRANCH  25  26
ENDBRANCH  23  25
ENDBRANCH  21  22
ENDBRANCH  20  21
ENDBRANCH  18  20
ENDBRANCH  16  17
ENDBRANCH   1  16
TORSDOF 10
ENDMDL
