MODEL 1
REMARK VINA RESULT:      -7.9      0.000      0.000
REMARK  Name = NuBBE_2447
REMARK  3 active torsions:
REMARK  status: ('A' for Active; 'I' for Inactive)
REMARK    1  A    between atoms: C_6  and  C_11
REMARK    2  A    between atoms: C_8  and  O_10
REMARK    3  A    between atoms: C_18  and  O_21
REMARK                            x       y       z     vdW  Elec       q    Type
REMARK                         _______ _______ _______ _____ _____    ______ ____
ROOT
ATOM      1  O   LIG A   1      -5.498   3.575 124.475  0.00  0.00    -0.289 OA
ATOM      2  C   LIG A   1      -6.592   3.459 123.931  0.00  0.00    +0.199 C 
ATOM      3  C   LIG A   1      -6.736   3.667 122.478  0.00  0.00    +0.062 A 
ATOM      4  C   LIG A   1      -7.986   3.471 121.886  0.00  0.00    +0.136 A 
ATOM      5  O   LIG A   1      -9.096   3.056 122.574  0.00  0.00    -0.480 OA
ATOM      6  C   LIG A   1      -8.806   2.323 123.790  0.00  0.00    +0.240 C 
ATOM      7  C   LIG A   1      -7.869   3.145 124.690  0.00  0.00    +0.230 C 
ATOM      8  C   LIG A   1      -8.161   3.728 120.526  0.00  0.00    +0.091 A 
ATOM      9  C   LIG A   1      -7.072   4.151 119.766  0.00  0.00    +0.120 A 
ATOM     10  C   LIG A   1      -5.820   4.329 120.346  0.00  0.00    +0.046 A 
ATOM     11  C   LIG A   1      -5.647   4.090 121.710  0.00  0.00    +0.019 A 
ENDROOT
BRANCH   6  12
ATOM     12  C   LIG A   1      -8.441   0.877 123.469  0.00  0.00    -0.004 A 
ATOM     13  C   LIG A   1      -7.147   0.354 123.613  0.00  0.00    +0.007 A 
ATOM     14  C   LIG A   1      -6.880  -0.985 123.310  0.00  0.00    +0.000 A 
ATOM     15  C   LIG A   1      -7.899  -1.823 122.867  0.00  0.00    +0.000 A 
ATOM     16  C   LIG A   1      -9.191  -1.326 122.727  0.00  0.00    +0.000 A 
ATOM     17  C   LIG A   1      -9.459   0.011 123.028  0.00  0.00    +0.007 A 
ENDBRANCH   6  12
BRANCH   7  18
ATOM     18  O   LIG A   1      -8.508   4.356 125.110  0.00  0.00    -0.380 OA
ATOM     19  H   LIG A   1      -9.465   4.183 125.171  0.00  0.00    +0.210 HD
ENDBRANCH   7  18
BRANCH   9  20
ATOM     20  O   LIG A   1      -7.194   4.405 118.433  0.00  0.00    -0.507 OA
ATOM     21  H   LIG A   1      -6.611   3.803 117.941  0.00  0.00    +0.292 HD
ENDBRANCH   9  20
TORSDOF 3
ENDMDL
MODEL 2
REMARK VINA RESULT:      -7.9      2.057      5.187
REMARK  Name = NuBBE_2447
REMARK  3 active torsions:
REMARK  status: ('A' for Active; 'I' for Inactive)
REMARK    1  A    between atoms: C_6  and  C_11
REMARK    2  A    between atoms: C_8  and  O_10
REMARK    3  A    between atoms: C_18  and  O_21
REMARK                            x       y       z     vdW  Elec       q    Type
REMARK                         _______ _______ _______ _____ _____    ______ ____
ROOT
ATOM      1  O   LIG A   1     -10.784   0.288 122.440  0.00  0.00    -0.289 OA
ATOM      2  C   LIG A   1      -9.796   0.675 123.058  0.00  0.00    +0.199 C 
ATOM      3  C   LIG A   1      -8.598  -0.178 123.173  0.00  0.00    +0.062 A 
ATOM      4  C   LIG A   1      -7.474   0.319 123.836  0.00  0.00    +0.136 A 
ATOM      5  O   LIG A   1      -7.398   1.583 124.362  0.00  0.00    -0.480 OA
ATOM      6  C   LIG A   1      -8.294   2.541 123.746  0.00  0.00    +0.240 C 
ATOM      7  C   LIG A   1      -9.737   2.010 123.779  0.00  0.00    +0.230 C 
ATOM      8  C   LIG A   1      -6.355  -0.494 124.016  0.00  0.00    +0.091 A 
ATOM      9  C   LIG A   1      -6.364  -1.789 123.503  0.00  0.00    +0.120 A 
ATOM     10  C   LIG A   1      -7.473  -2.284 122.825  0.00  0.00    +0.046 A 
ATOM     11  C   LIG A   1      -8.600  -1.478 122.659  0.00  0.00    +0.019 A 
ENDROOT
BRANCH   6  12
ATOM     12  C   LIG A   1      -7.719   3.038 122.424  0.00  0.00    -0.004 A 
ATOM     13  C   LIG A   1      -6.345   3.053 122.134  0.00  0.00    +0.007 A 
ATOM     14  C   LIG A   1      -5.881   3.513 120.898  0.00  0.00    +0.000 A 
ATOM     15  C   LIG A   1      -6.779   3.956 119.930  0.00  0.00    +0.000 A 
ATOM     16  C   LIG A   1      -8.145   3.938 120.194  0.00  0.00    +0.000 A 
ATOM     17  C   LIG A   1      -8.610   3.480 121.428  0.00  0.00    +0.007 A 
ENDBRANCH   6  12
BRANCH   7  18
ATOM     18  O   LIG A   1     -10.192   1.867 125.129  0.00  0.00    -0.380 OA
ATOM     19  H   LIG A   1     -10.670   1.020 125.194  0.00  0.00    +0.210 HD
ENDBRANCH   7  18
BRANCH   9  20
ATOM     20  O   LIG A   1      -5.290  -2.616 123.647  0.00  0.00    -0.507 OA
ATOM     21  H   LIG A   1      -5.065  -2.997 122.782  0.00  0.00    +0.292 HD
ENDBRANCH   9  20
TORSDOF 3
ENDMDL
MODEL 3
REMARK VINA RESULT:      -7.3      3.620      5.572
REMARK  Name = NuBBE_2447
REMARK  3 active torsions:
REMARK  status: ('A' for Active; 'I' for Inactive)
REMARK    1  A    between atoms: C_6  and  C_11
REMARK    2  A    between atoms: C_8  and  O_10
REMARK    3  A    between atoms: C_18  and  O_21
REMARK                            x       y       z     vdW  Elec       q    Type
REMARK                         _______ _______ _______ _____ _____    ______ ____
ROOT
ATOM      1  O   LIG A   1      -8.104  -2.157 127.846  0.00  0.00    -0.289 OA
ATOM      2  C   LIG A   1      -8.572  -1.955 126.730  0.00  0.00    +0.199 C 
ATOM      3  C   LIG A   1      -8.658  -0.587 126.185  0.00  0.00    +0.062 A 
ATOM      4  C   LIG A   1      -9.144  -0.403 124.889  0.00  0.00    +0.136 A 
ATOM      5  O   LIG A   1      -9.519  -1.432 124.064  0.00  0.00    -0.480 OA
ATOM      6  C   LIG A   1      -8.896  -2.703 124.375  0.00  0.00    +0.240 C 
ATOM      7  C   LIG A   1      -9.132  -3.060 125.852  0.00  0.00    +0.230 C 
ATOM      8  C   LIG A   1      -9.298   0.886 124.378  0.00  0.00    +0.091 A 
ATOM      9  C   LIG A   1      -8.934   1.978 125.163  0.00  0.00    +0.120 A 
ATOM     10  C   LIG A   1      -8.429   1.801 126.448  0.00  0.00    +0.046 A 
ATOM     11  C   LIG A   1      -8.292   0.513 126.967  0.00  0.00    +0.019 A 
ENDROOT
BRANCH   6  12
ATOM     12  C   LIG A   1      -7.476  -2.752 123.821  0.00  0.00    -0.004 A 
ATOM     13  C   LIG A   1      -7.032  -1.953 122.755  0.00  0.00    +0.007 A 
ATOM     14  C   LIG A   1      -5.712  -2.039 122.300  0.00  0.00    +0.000 A 
ATOM     15  C   LIG A   1      -4.815  -2.915 122.904  0.00  0.00    +0.000 A 
ATOM     16  C   LIG A   1      -5.233  -3.707 123.968  0.00  0.00    +0.000 A 
ATOM     17  C   LIG A   1      -6.550  -3.624 124.424  0.00  0.00    +0.007 A 
ENDBRANCH   6  12
BRANCH   7  18
ATOM     18  O   LIG A   1     -10.530  -3.239 126.110  0.00  0.00    -0.380 OA
ATOM     19  H   LIG A   1     -10.638  -3.405 127.064  0.00  0.00    +0.210 HD
ENDBRANCH   7  18
BRANCH   9  20
ATOM     20  O   LIG A   1      -9.057   3.255 124.703  0.00  0.00    -0.507 OA
ATOM     21  H   LIG A   1      -8.614   3.859 125.321  0.00  0.00    +0.292 HD
ENDBRANCH   9  20
TORSDOF 3
ENDMDL
MODEL 4
REMARK VINA RESULT:      -7.1      3.490      5.656
REMARK  Name = NuBBE_2447
REMARK  3 active torsions:
REMARK  status: ('A' for Active; 'I' for Inactive)
REMARK    1  A    between atoms: C_6  and  C_11
REMARK    2  A    between atoms: C_8  and  O_10
REMARK    3  A    between atoms: C_18  and  O_21
REMARK                            x       y       z     vdW  Elec       q    Type
REMARK                         _______ _______ _______ _____ _____    ______ ____
ROOT
ATOM      1  O   LIG A   1      -9.124  -2.363 122.589  0.00  0.00    -0.289 OA
ATOM      2  C   LIG A   1      -8.282  -1.788 123.273  0.00  0.00    +0.199 C 
ATOM      3  C   LIG A   1      -8.521  -0.419 123.767  0.00  0.00    +0.062 A 
ATOM      4  C   LIG A   1      -7.564   0.181 124.589  0.00  0.00    +0.136 A 
ATOM      5  O   LIG A   1      -6.416  -0.445 125.001  0.00  0.00    -0.480 OA
ATOM      6  C   LIG A   1      -6.493  -1.892 125.003  0.00  0.00    +0.240 C 
ATOM      7  C   LIG A   1      -6.937  -2.399 123.621  0.00  0.00    +0.230 C 
ATOM      8  C   LIG A   1      -7.737   1.498 125.014  0.00  0.00    +0.091 A 
ATOM      9  C   LIG A   1      -8.884   2.192 124.633  0.00  0.00    +0.120 A 
ATOM     10  C   LIG A   1      -9.851   1.593 123.831  0.00  0.00    +0.046 A 
ATOM     11  C   LIG A   1      -9.671   0.282 123.391  0.00  0.00    +0.019 A 
ENDROOT
BRANCH   6  12
ATOM     12  C   LIG A   1      -7.229  -2.387 126.244  0.00  0.00    -0.004 A 
ATOM     13  C   LIG A   1      -8.296  -3.297 126.200  0.00  0.00    +0.007 A 
ATOM     14  C   LIG A   1      -8.924  -3.719 127.376  0.00  0.00    +0.000 A 
ATOM     15  C   LIG A   1      -8.492  -3.247 128.612  0.00  0.00    +0.000 A 
ATOM     16  C   LIG A   1      -7.429  -2.352 128.678  0.00  0.00    +0.000 A 
ATOM     17  C   LIG A   1      -6.802  -1.929 127.504  0.00  0.00    +0.007 A 
ENDBRANCH   6  12
BRANCH   7  18
ATOM     18  O   LIG A   1      -5.965  -2.063 122.624  0.00  0.00    -0.380 OA
ATOM     19  H   LIG A   1      -5.109  -2.435 122.905  0.00  0.00    +0.210 HD
ENDBRANCH   7  18
BRANCH   9  20
ATOM     20  O   LIG A   1      -9.100   3.477 125.031  0.00  0.00    -0.507 OA
ATOM     21  H   LIG A   1      -8.281   3.987 124.917  0.00  0.00    +0.292 HD
ENDBRANCH   9  20
TORSDOF 3
ENDMDL
MODEL 5
REMARK VINA RESULT:      -7.0      1.970      2.877
REMARK  Name = NuBBE_2447
REMARK  3 active torsions:
REMARK  status: ('A' for Active; 'I' for Inactive)
REMARK    1  A    between atoms: C_6  and  C_11
REMARK    2  A    between atoms: C_8  and  O_10
REMARK    3  A    between atoms: C_18  and  O_21
REMARK                            x       y       z     vdW  Elec       q    Type
REMARK                         _______ _______ _______ _____ _____    ______ ____
ROOT
ATOM      1  O   LIG A   1      -8.322   2.502 126.703  0.00  0.00    -0.289 OA
ATOM      2  C   LIG A   1      -8.302   2.220 125.508  0.00  0.00    +0.199 C 
ATOM      3  C   LIG A   1      -7.357   2.888 124.594  0.00  0.00    +0.062 A 
ATOM      4  C   LIG A   1      -7.325   2.501 123.252  0.00  0.00    +0.136 A 
ATOM      5  O   LIG A   1      -8.102   1.499 122.731  0.00  0.00    -0.480 OA
ATOM      6  C   LIG A   1      -8.544   0.519 123.704  0.00  0.00    +0.240 C 
ATOM      7  C   LIG A   1      -9.253   1.221 124.874  0.00  0.00    +0.230 C 
ATOM      8  C   LIG A   1      -6.488   3.164 122.355  0.00  0.00    +0.091 A 
ATOM      9  C   LIG A   1      -5.669   4.192 122.819  0.00  0.00    +0.120 A 
ATOM     10  C   LIG A   1      -5.682   4.569 124.158  0.00  0.00    +0.046 A 
ATOM     11  C   LIG A   1      -6.531   3.918 125.053  0.00  0.00    +0.019 A 
ENDROOT
BRANCH   6  12
ATOM     12  C   LIG A   1      -7.430  -0.477 124.004  0.00  0.00    -0.004 A 
ATOM     13  C   LIG A   1      -6.893  -0.676 125.287  0.00  0.00    +0.007 A 
ATOM     14  C   LIG A   1      -5.877  -1.613 125.498  0.00  0.00    +0.000 A 
ATOM     15  C   LIG A   1      -5.387  -2.370 124.438  0.00  0.00    +0.000 A 
ATOM     16  C   LIG A   1      -5.912  -2.195 123.162  0.00  0.00    +0.000 A 
ATOM     17  C   LIG A   1      -6.926  -1.260 122.949  0.00  0.00    +0.007 A 
ENDBRANCH   6  12
BRANCH   7  18
ATOM     18  O   LIG A   1     -10.440   1.883 124.422  0.00  0.00    -0.380 OA
ATOM     19  H   LIG A   1     -10.528   2.713 124.924  0.00  0.00    +0.210 HD
ENDBRANCH   7  18
BRANCH   9  20
ATOM     20  O   LIG A   1      -4.829   4.862 121.981  0.00  0.00    -0.507 OA
ATOM     21  H   LIG A   1      -5.325   5.150 121.197  0.00  0.00    +0.292 HD
ENDBRANCH   9  20
TORSDOF 3
ENDMDL
MODEL 6
REMARK VINA RESULT:      -6.9      2.087      5.367
REMARK  Name = NuBBE_2447
REMARK  3 active torsions:
REMARK  status: ('A' for Active; 'I' for Inactive)
REMARK    1  A    between atoms: C_6  and  C_11
REMARK    2  A    between atoms: C_8  and  O_10
REMARK    3  A    between atoms: C_18  and  O_21
REMARK                            x       y       z     vdW  Elec       q    Type
REMARK                         _______ _______ _______ _____ _____    ______ ____
ROOT
ATOM      1  O   LIG A   1      -8.481  -0.340 123.059  0.00  0.00    -0.289 OA
ATOM      2  C   LIG A   1      -8.289   0.730 123.630  0.00  0.00    +0.199 C 
ATOM      3  C   LIG A   1      -7.190   0.878 124.602  0.00  0.00    +0.062 A 
ATOM      4  C   LIG A   1      -6.968   2.126 125.188  0.00  0.00    +0.136 A 
ATOM      5  O   LIG A   1      -7.694   3.249 124.885  0.00  0.00    -0.480 OA
ATOM      6  C   LIG A   1      -8.318   3.221 123.577  0.00  0.00    +0.240 C 
ATOM      7  C   LIG A   1      -9.170   1.950 123.426  0.00  0.00    +0.230 C 
ATOM      8  C   LIG A   1      -5.978   2.274 126.160  0.00  0.00    +0.091 A 
ATOM      9  C   LIG A   1      -5.201   1.173 126.514  0.00  0.00    +0.120 A 
ATOM     10  C   LIG A   1      -5.403  -0.068 125.919  0.00  0.00    +0.046 A 
ATOM     11  C   LIG A   1      -6.405  -0.222 124.960  0.00  0.00    +0.019 A 
ENDROOT
BRANCH   6  12
ATOM     12  C   LIG A   1      -7.302   3.564 122.493  0.00  0.00    -0.004 A 
ATOM     13  C   LIG A   1      -7.597   3.543 121.121  0.00  0.00    +0.007 A 
ATOM     14  C   LIG A   1      -6.622   3.878 120.176  0.00  0.00    +0.000 A 
ATOM     15  C   LIG A   1      -5.343   4.246 120.584  0.00  0.00    +0.000 A 
ATOM     16  C   LIG A   1      -5.035   4.284 121.940  0.00  0.00    +0.000 A 
ATOM     17  C   LIG A   1      -6.006   3.949 122.885  0.00  0.00    +0.007 A 
ENDBRANCH   6  12
BRANCH   7  18
ATOM     18  O   LIG A   1     -10.247   1.948 124.370  0.00  0.00    -0.380 OA
ATOM     19  H   LIG A   1     -10.484   2.876 124.553  0.00  0.00    +0.210 HD
ENDBRANCH   7  18
BRANCH   9  20
ATOM     20  O   LIG A   1      -4.216   1.272 127.451  0.00  0.00    -0.507 OA
ATOM     21  H   LIG A   1      -3.385   1.518 127.014  0.00  0.00    +0.292 HD
ENDBRANCH   9  20
TORSDOF 3
ENDMDL
MODEL 7
REMARK VINA RESULT:      -6.9      2.222      2.982
REMARK  Name = NuBBE_2447
REMARK  3 active torsions:
REMARK  status: ('A' for Active; 'I' for Inactive)
REMARK    1  A    between atoms: C_6  and  C_11
REMARK    2  A    between atoms: C_8  and  O_10
REMARK    3  A    between atoms: C_18  and  O_21
REMARK                            x       y       z     vdW  Elec       q    Type
REMARK                         _______ _______ _______ _____ _____    ______ ____
ROOT
ATOM      1  O   LIG A   1      -6.021   1.449 126.618  0.00  0.00    -0.289 OA
ATOM      2  C   LIG A   1      -7.166   1.462 126.173  0.00  0.00    +0.199 C 
ATOM      3  C   LIG A   1      -7.450   2.033 124.844  0.00  0.00    +0.062 A 
ATOM      4  C   LIG A   1      -8.755   1.979 124.349  0.00  0.00    +0.136 A 
ATOM      5  O   LIG A   1      -9.797   1.386 125.014  0.00  0.00    -0.480 OA
ATOM      6  C   LIG A   1      -9.396   0.370 125.967  0.00  0.00    +0.240 C 
ATOM      7  C   LIG A   1      -8.364   0.947 126.950  0.00  0.00    +0.230 C 
ATOM      8  C   LIG A   1      -9.061   2.572 123.124  0.00  0.00    +0.091 A 
ATOM      9  C   LIG A   1      -8.048   3.190 122.394  0.00  0.00    +0.120 A 
ATOM     10  C   LIG A   1      -6.742   3.230 122.872  0.00  0.00    +0.046 A 
ATOM     11  C   LIG A   1      -6.438   2.652 124.105  0.00  0.00    +0.019 A 
ENDROOT
BRANCH   6  12
ATOM     12  C   LIG A   1      -9.084  -0.940 125.252  0.00  0.00    -0.004 A 
ATOM     13  C   LIG A   1      -9.082  -1.079 123.855  0.00  0.00    +0.007 A 
ATOM     14  C   LIG A   1      -8.778  -2.307 123.260  0.00  0.00    +0.000 A 
ATOM     15  C   LIG A   1      -8.463  -3.411 124.047  0.00  0.00    +0.000 A 
ATOM     16  C   LIG A   1      -8.450  -3.291 125.433  0.00  0.00    +0.000 A 
ATOM     17  C   LIG A   1      -8.754  -2.066 126.029  0.00  0.00    +0.007 A 
ENDBRANCH   6  12
BRANCH   7  18
ATOM     18  O   LIG A   1      -8.943   2.002 127.728  0.00  0.00    -0.380 OA
ATOM     19  H   LIG A   1      -9.874   1.771 127.897  0.00  0.00    +0.210 HD
ENDBRANCH   7  18
BRANCH   9  20
ATOM     20  O   LIG A   1      -8.298   3.775 121.188  0.00  0.00    -0.507 OA
ATOM     21  H   LIG A   1      -8.584   4.692 121.334  0.00  0.00    +0.292 HD
ENDBRANCH   9  20
TORSDOF 3
ENDMDL
MODEL 8
REMARK VINA RESULT:      -6.6      4.044      6.969
REMARK  Name = NuBBE_2447
REMARK  3 active torsions:
REMARK  status: ('A' for Active; 'I' for Inactive)
REMARK    1  A    between atoms: C_6  and  C_11
REMARK    2  A    between atoms: C_8  and  O_10
REMARK    3  A    between atoms: C_18  and  O_21
REMARK                            x       y       z     vdW  Elec       q    Type
REMARK                         _______ _______ _______ _____ _____    ______ ____
ROOT
ATOM      1  O   LIG A   1      -4.939  -0.840 125.869  0.00  0.00    -0.289 OA
ATOM      2  C   LIG A   1      -5.747  -1.573 125.305  0.00  0.00    +0.199 C 
ATOM      3  C   LIG A   1      -6.822  -2.235 126.068  0.00  0.00    +0.062 A 
ATOM      4  C   LIG A   1      -7.755  -3.016 125.383  0.00  0.00    +0.136 A 
ATOM      5  O   LIG A   1      -7.757  -3.180 124.021  0.00  0.00    -0.480 OA
ATOM      6  C   LIG A   1      -7.111  -2.109 123.290  0.00  0.00    +0.240 C 
ATOM      7  C   LIG A   1      -5.685  -1.892 123.823  0.00  0.00    +0.230 C 
ATOM      8  C   LIG A   1      -8.740  -3.706 126.090  0.00  0.00    +0.091 A 
ATOM      9  C   LIG A   1      -8.797  -3.581 127.476  0.00  0.00    +0.120 A 
ATOM     10  C   LIG A   1      -7.883  -2.788 128.163  0.00  0.00    +0.046 A 
ATOM     11  C   LIG A   1      -6.886  -2.112 127.458  0.00  0.00    +0.019 A 
ENDROOT
BRANCH   6  12
ATOM     12  C   LIG A   1      -8.043  -0.909 123.165  0.00  0.00    -0.004 A 
ATOM     13  C   LIG A   1      -7.663   0.405 123.482  0.00  0.00    +0.007 A 
ATOM     14  C   LIG A   1      -8.563   1.465 123.336  0.00  0.00    +0.000 A 
ATOM     15  C   LIG A   1      -9.852   1.232 122.865  0.00  0.00    +0.000 A 
ATOM     16  C   LIG A   1     -10.245  -0.061 122.535  0.00  0.00    +0.000 A 
ATOM     17  C   LIG A   1      -9.348  -1.120 122.681  0.00  0.00    +0.007 A 
ENDBRANCH   6  12
BRANCH   7  18
ATOM     18  O   LIG A   1      -4.880  -3.056 123.598  0.00  0.00    -0.380 OA
ATOM     19  H   LIG A   1      -3.947  -2.775 123.586  0.00  0.00    +0.210 HD
ENDBRANCH   7  18
BRANCH   9  20
ATOM     20  O   LIG A   1      -9.747  -4.228 128.208  0.00  0.00    -0.507 OA
ATOM     21  H   LIG A   1      -9.453  -4.285 129.132  0.00  0.00    +0.292 HD
ENDBRANCH   9  20
TORSDOF 3
ENDMDL
MODEL 9
REMARK VINA RESULT:      -6.6      8.299     10.735
REMARK  Name = NuBBE_2447
REMARK  3 active torsions:
REMARK  status: ('A' for Active; 'I' for Inactive)
REMARK    1  A    between atoms: C_6  and  C_11
REMARK    2  A    between atoms: C_8  and  O_10
REMARK    3  A    between atoms: C_18  and  O_21
REMARK                            x       y       z     vdW  Elec       q    Type
REMARK                         _______ _______ _______ _____ _____    ______ ____
ROOT
ATOM      1  O   LIG A   1     -10.138   5.037 129.395  0.00  0.00    -0.289 OA
ATOM      2  C   LIG A   1      -9.865   4.904 130.584  0.00  0.00    +0.199 C 
ATOM      3  C   LIG A   1      -9.386   3.610 131.105  0.00  0.00    +0.062 A 
ATOM      4  C   LIG A   1      -9.032   3.512 132.453  0.00  0.00    +0.136 A 
ATOM      5  O   LIG A   1      -9.068   4.567 133.327  0.00  0.00    -0.480 OA
ATOM      6  C   LIG A   1      -8.963   5.868 132.697  0.00  0.00    +0.240 C 
ATOM      7  C   LIG A   1     -10.037   6.013 131.606  0.00  0.00    +0.230 C 
ATOM      8  C   LIG A   1      -8.640   2.282 132.983  0.00  0.00    +0.091 A 
ATOM      9  C   LIG A   1      -8.580   1.168 132.149  0.00  0.00    +0.120 A 
ATOM     10  C   LIG A   1      -8.912   1.264 130.801  0.00  0.00    +0.046 A 
ATOM     11  C   LIG A   1      -9.320   2.489 130.273  0.00  0.00    +0.019 A 
ENDROOT
BRANCH   6  12
ATOM     12  C   LIG A   1      -7.511   6.180 132.352  0.00  0.00    -0.004 A 
ATOM     13  C   LIG A   1      -6.423   5.779 133.144  0.00  0.00    +0.007 A 
ATOM     14  C   LIG A   1      -5.113   6.089 132.767  0.00  0.00    +0.000 A 
ATOM     15  C   LIG A   1      -4.867   6.795 131.593  0.00  0.00    +0.000 A 
ATOM     16  C   LIG A   1      -5.931   7.192 130.789  0.00  0.00    +0.000 A 
ATOM     17  C   LIG A   1      -7.240   6.884 131.164  0.00  0.00    +0.007 A 
ENDBRANCH   6  12
BRANCH   7  18
ATOM     18  O   LIG A   1     -11.349   5.964 132.179  0.00  0.00    -0.380 OA
ATOM     19  H   LIG A   1     -11.362   5.239 132.830  0.00  0.00    +0.210 HD
ENDBRANCH   7  18
BRANCH   9  20
ATOM     20  O   LIG A   1      -8.194  -0.051 132.620  0.00  0.00    -0.507 OA
ATOM     21  H   LIG A   1      -7.669   0.073 133.428  0.00  0.00    +0.292 HD
ENDBRANCH   9  20
TORSDOF 3
ENDMDL
