MODEL 1
REMARK VINA RESULT:      -8.0      0.000      0.000
REMARK  Name = NuBBE_1785
REMARK  4 active torsions:
REMARK  status: ('A' for Active; 'I' for Inactive)
REMARK    1  A    between atoms: C_1  and  C_3
REMARK    2  A    between atoms: C_11  and  O_14
REMARK    3  A    between atoms: O_14  and  C_15
REMARK    4  A    between atoms: C_26  and  O_33
REMARK                            x       y       z     vdW  Elec       q    Type
REMARK                         _______ _______ _______ _____ _____    ______ ____
ROOT
ATOM      1  C   LIG A   1      -8.307   1.902 128.007  0.00  0.00    +0.217 C 
ATOM      2  O   LIG A   1      -8.252   2.817 127.184  0.00  0.00    -0.276 OA
ATOM      3  C   LIG A   1      -8.808   2.193 129.398  0.00  0.00    +0.110 C 
ATOM      4  N   LIG A   1      -7.995   0.601 127.686  0.00  0.00    -0.267 N 
ATOM      5  C   LIG A   1      -7.674   0.155 126.322  0.00  0.00    +0.102 C 
ATOM      6  C   LIG A   1      -7.663  -1.434 126.433  0.00  0.00    +0.034 C 
ATOM      7  C   LIG A   1      -7.016  -1.526 127.774  0.00  0.00    -0.016 A 
ATOM      8  C   LIG A   1      -7.341  -0.369 128.527  0.00  0.00    +0.044 A 
ATOM      9  C   LIG A   1      -6.899  -0.262 129.833  0.00  0.00    +0.069 A 
ATOM     10  C   LIG A   1      -6.141  -1.307 130.384  0.00  0.00    +0.122 A 
ATOM     11  C   LIG A   1      -5.848  -2.456 129.629  0.00  0.00    +0.046 A 
ATOM     12  C   LIG A   1      -6.287  -2.572 128.309  0.00  0.00    +0.010 A 
ATOM     13  C   LIG A   1      -7.171  -1.868 125.076  0.00  0.00    +0.070 C 
ATOM     14  N   LIG A   1      -7.813  -3.025 124.431  0.00  0.00    -0.295 NA
ATOM     15  C   LIG A   1      -8.905  -3.352 125.397  0.00  0.00    +0.086 C 
ATOM     16  C   LIG A   1      -9.012  -2.237 126.495  0.00  0.00    +0.030 C 
ATOM     17  C   LIG A   1      -8.299  -2.535 123.070  0.00  0.00    +0.115 C 
ATOM     18  C   LIG A   1      -8.576  -0.980 122.946  0.00  0.00    -0.054 C 
ATOM     19  C   LIG A   1      -9.762  -0.556 122.473  0.00  0.00    +0.002 C 
ATOM     20  C   LIG A   1     -10.355   0.820 122.536  0.00  0.00    +0.190 C 
ATOM     21  O   LIG A   1      -9.697   1.749 123.383  0.00  0.00    -0.347 OA
ATOM     22  C   LIG A   1      -9.504   1.352 124.742  0.00  0.00    +0.253 C 
ATOM     23  C   LIG A   1      -8.077   0.834 124.918  0.00  0.00    +0.074 C 
ATOM     24  C   LIG A   1      -7.528  -0.004 123.620  0.00  0.00    +0.027 C 
ATOM     25  C   LIG A   1      -6.387  -0.918 124.156  0.00  0.00    +0.028 C 
ENDROOT
BRANCH  10  26
ATOM     26  O   LIG A   1      -5.743  -1.089 131.678  0.00  0.00    -0.495 OA
ATOM     27  C   LIG A   1      -5.106  -2.177 132.338  0.00  0.00    +0.277 C 
ENDBRANCH  10  26
BRANCH  22  28
ATOM     28  O   LIG A   1     -10.490   0.462 125.224  0.00  0.00    -0.367 OA
ATOM     29  H   LIG A   1     -10.601   0.688 126.163  0.00  0.00    +0.212 HD
ENDBRANCH  22  28
TORSDOF 2
ENDMDL
MODEL 2
REMARK VINA RESULT:      -7.8      2.554      4.223
REMARK  Name = NuBBE_1785
REMARK  4 active torsions:
REMARK  status: ('A' for Active; 'I' for Inactive)
REMARK    1  A    between atoms: C_1  and  C_3
REMARK    2  A    between atoms: C_11  and  O_14
REMARK    3  A    between atoms: O_14  and  C_15
REMARK    4  A    between atoms: C_26  and  O_33
REMARK                            x       y       z     vdW  Elec       q    Type
REMARK                         _______ _______ _______ _____ _____    ______ ____
ROOT
ATOM      1  C   LIG A   1      -7.798  -2.558 129.001  0.00  0.00    +0.217 C 
ATOM      2  O   LIG A   1      -8.248  -3.476 128.315  0.00  0.00    -0.276 OA
ATOM      3  C   LIG A   1      -7.200  -2.872 130.348  0.00  0.00    +0.110 C 
ATOM      4  N   LIG A   1      -7.754  -1.257 128.556  0.00  0.00    -0.267 N 
ATOM      5  C   LIG A   1      -8.132  -0.850 127.195  0.00  0.00    +0.102 C 
ATOM      6  C   LIG A   1      -7.652   0.666 127.102  0.00  0.00    +0.034 C 
ATOM      7  C   LIG A   1      -8.029   1.068 128.487  0.00  0.00    -0.016 A 
ATOM      8  C   LIG A   1      -7.952  -0.063 129.338  0.00  0.00    +0.044 A 
ATOM      9  C   LIG A   1      -8.200   0.085 130.690  0.00  0.00    +0.069 A 
ATOM     10  C   LIG A   1      -8.519   1.357 131.191  0.00  0.00    +0.122 A 
ATOM     11  C   LIG A   1      -8.569   2.471 130.335  0.00  0.00    +0.046 A 
ATOM     12  C   LIG A   1      -8.323   2.332 128.968  0.00  0.00    +0.010 A 
ATOM     13  C   LIG A   1      -8.194   1.115 125.770  0.00  0.00    +0.070 C 
ATOM     14  N   LIG A   1      -7.343   1.953 124.909  0.00  0.00    -0.295 NA
ATOM     15  C   LIG A   1      -6.069   2.004 125.688  0.00  0.00    +0.086 C 
ATOM     16  C   LIG A   1      -6.132   1.008 126.899  0.00  0.00    +0.030 C 
ATOM     17  C   LIG A   1      -7.240   1.223 123.574  0.00  0.00    +0.115 C 
ATOM     18  C   LIG A   1      -7.460  -0.346 123.618  0.00  0.00    -0.054 C 
ATOM     19  C   LIG A   1      -6.542  -1.158 123.064  0.00  0.00    +0.002 C 
ATOM     20  C   LIG A   1      -6.383  -2.640 123.231  0.00  0.00    +0.190 C 
ATOM     21  O   LIG A   1      -7.151  -3.241 124.264  0.00  0.00    -0.347 OA
ATOM     22  C   LIG A   1      -7.006  -2.689 125.573  0.00  0.00    +0.253 C 
ATOM     23  C   LIG A   1      -8.170  -1.738 125.851  0.00  0.00    +0.074 C 
ATOM     24  C   LIG A   1      -8.636  -0.884 124.531  0.00  0.00    +0.027 C 
ATOM     25  C   LIG A   1      -9.357   0.383 125.078  0.00  0.00    +0.028 C 
ENDROOT
BRANCH  10  26
ATOM     26  O   LIG A   1      -8.761   1.386 132.540  0.00  0.00    -0.495 OA
ATOM     27  C   LIG A   1      -9.105   2.649 133.096  0.00  0.00    +0.277 C 
ENDBRANCH  10  26
BRANCH  22  28
ATOM     28  O   LIG A   1      -5.738  -2.115 125.817  0.00  0.00    -0.367 OA
ATOM     29  H   LIG A   1      -5.696  -1.334 125.241  0.00  0.00    +0.212 HD
ENDBRANCH  22  28
TORSDOF 2
ENDMDL
MODEL 3
REMARK VINA RESULT:      -7.7      2.444      6.962
REMARK  Name = NuBBE_1785
REMARK  4 active torsions:
REMARK  status: ('A' for Active; 'I' for Inactive)
REMARK    1  A    between atoms: C_1  and  C_3
REMARK    2  A    between atoms: C_11  and  O_14
REMARK    3  A    between atoms: O_14  and  C_15
REMARK    4  A    between atoms: C_26  and  O_33
REMARK                            x       y       z     vdW  Elec       q    Type
REMARK                         _______ _______ _______ _____ _____    ______ ____
ROOT
ATOM      1  C   LIG A   1      -6.398   0.673 127.504  0.00  0.00    +0.217 C 
ATOM      2  O   LIG A   1      -6.250   1.684 128.192  0.00  0.00    -0.276 OA
ATOM      3  C   LIG A   1      -6.167   0.756 126.018  0.00  0.00    +0.110 C 
ATOM      4  N   LIG A   1      -6.700  -0.554 128.049  0.00  0.00    -0.267 N 
ATOM      5  C   LIG A   1      -6.768  -0.806 129.496  0.00  0.00    +0.102 C 
ATOM      6  C   LIG A   1      -6.871  -2.391 129.603  0.00  0.00    +0.034 C 
ATOM      7  C   LIG A   1      -7.771  -2.601 128.433  0.00  0.00    -0.016 A 
ATOM      8  C   LIG A   1      -7.549  -1.572 127.484  0.00  0.00    +0.044 A 
ATOM      9  C   LIG A   1      -8.232  -1.595 126.282  0.00  0.00    +0.069 A 
ATOM     10  C   LIG A   1      -9.129  -2.645 126.028  0.00  0.00    +0.122 A 
ATOM     11  C   LIG A   1      -9.321  -3.668 126.972  0.00  0.00    +0.046 A 
ATOM     12  C   LIG A   1      -8.638  -3.652 128.189  0.00  0.00    +0.010 A 
ATOM     13  C   LIG A   1      -7.107  -2.620 131.074  0.00  0.00    +0.070 C 
ATOM     14  N   LIG A   1      -6.403  -3.730 131.736  0.00  0.00    -0.295 NA
ATOM     15  C   LIG A   1      -5.538  -4.250 130.635  0.00  0.00    +0.086 C 
ATOM     16  C   LIG A   1      -5.597  -3.288 129.397  0.00  0.00    +0.030 C 
ATOM     17  C   LIG A   1      -5.640  -3.112 132.903  0.00  0.00    +0.115 C 
ATOM     18  C   LIG A   1      -5.274  -1.577 132.763  0.00  0.00    -0.054 C 
ATOM     19  C   LIG A   1      -4.000  -1.182 132.944  0.00  0.00    +0.002 C 
ATOM     20  C   LIG A   1      -3.371   0.131 132.587  0.00  0.00    +0.190 C 
ATOM     21  O   LIG A   1      -4.140   0.993 131.761  0.00  0.00    -0.347 OA
ATOM     22  C   LIG A   1      -4.612   0.446 130.529  0.00  0.00    +0.253 C 
ATOM     23  C   LIG A   1      -6.068   0.011 130.696  0.00  0.00    +0.074 C 
ATOM     24  C   LIG A   1      -6.389  -0.621 132.174  0.00  0.00    +0.027 C 
ATOM     25  C   LIG A   1      -7.653  -1.512 131.990  0.00  0.00    +0.028 C 
ENDROOT
BRANCH  10  26
ATOM     26  O   LIG A   1      -9.763  -2.560 124.815  0.00  0.00    -0.495 OA
ATOM     27  C   LIG A   1      -9.157  -3.258 123.733  0.00  0.00    +0.277 C 
ENDBRANCH  10  26
BRANCH  22  28
ATOM     28  O   LIG A   1      -3.780  -0.562 129.994  0.00  0.00    -0.367 OA
ATOM     29  H   LIG A   1      -4.176  -1.402 130.283  0.00  0.00    +0.212 HD
ENDBRANCH  22  28
TORSDOF 2
ENDMDL
MODEL 4
REMARK VINA RESULT:      -7.6      2.967      6.914
REMARK  Name = NuBBE_1785
REMARK  4 active torsions:
REMARK  status: ('A' for Active; 'I' for Inactive)
REMARK    1  A    between atoms: C_1  and  C_3
REMARK    2  A    between atoms: C_11  and  O_14
REMARK    3  A    between atoms: O_14  and  C_15
REMARK    4  A    between atoms: C_26  and  O_33
REMARK                            x       y       z     vdW  Elec       q    Type
REMARK                         _______ _______ _______ _____ _____    ______ ____
ROOT
ATOM      1  C   LIG A   1      -7.812   2.270 127.149  0.00  0.00    +0.217 C 
ATOM      2  O   LIG A   1      -8.483   3.269 126.886  0.00  0.00    -0.276 OA
ATOM      3  C   LIG A   1      -6.880   1.714 126.104  0.00  0.00    +0.110 C 
ATOM      4  N   LIG A   1      -7.826   1.677 128.391  0.00  0.00    -0.267 N 
ATOM      5  C   LIG A   1      -8.547   2.230 129.547  0.00  0.00    +0.102 C 
ATOM      6  C   LIG A   1      -8.033   1.351 130.772  0.00  0.00    +0.034 C 
ATOM      7  C   LIG A   1      -7.988   0.042 130.060  0.00  0.00    -0.016 A 
ATOM      8  C   LIG A   1      -7.737   0.270 128.684  0.00  0.00    +0.044 A 
ATOM      9  C   LIG A   1      -7.590  -0.810 127.832  0.00  0.00    +0.069 A 
ATOM     10  C   LIG A   1      -7.691  -2.109 128.353  0.00  0.00    +0.122 A 
ATOM     11  C   LIG A   1      -7.919  -2.315 129.725  0.00  0.00    +0.046 A 
ATOM     12  C   LIG A   1      -8.071  -1.232 130.592  0.00  0.00    +0.010 A 
ATOM     13  C   LIG A   1      -8.900   1.816 131.914  0.00  0.00    +0.070 C 
ATOM     14  N   LIG A   1      -8.280   2.017 133.234  0.00  0.00    -0.295 NA
ATOM     15  C   LIG A   1      -6.839   1.752 132.942  0.00  0.00    +0.086 C 
ATOM     16  C   LIG A   1      -6.614   1.608 131.396  0.00  0.00    +0.030 C 
ATOM     17  C   LIG A   1      -8.591   3.456 133.633  0.00  0.00    +0.115 C 
ATOM     18  C   LIG A   1      -8.872   4.465 132.445  0.00  0.00    -0.054 C 
ATOM     19  C   LIG A   1      -8.188   5.623 132.384  0.00  0.00    +0.002 C 
ATOM     20  C   LIG A   1      -8.066   6.577 131.234  0.00  0.00    +0.190 C 
ATOM     21  O   LIG A   1      -8.546   6.114 129.980  0.00  0.00    -0.347 OA
ATOM     22  C   LIG A   1      -8.014   4.875 129.509  0.00  0.00    +0.253 C 
ATOM     23  C   LIG A   1      -9.003   3.751 129.818  0.00  0.00    +0.074 C 
ATOM     24  C   LIG A   1      -9.773   3.944 131.252  0.00  0.00    +0.027 C 
ATOM     25  C   LIG A   1     -10.246   2.521 131.675  0.00  0.00    +0.028 C 
ENDROOT
BRANCH  10  26
ATOM     26  O   LIG A   1      -7.546  -3.102 127.419  0.00  0.00    -0.495 OA
ATOM     27  C   LIG A   1      -8.534  -3.161 126.397  0.00  0.00    +0.277 C 
ENDBRANCH  10  26
BRANCH  22  28
ATOM     28  O   LIG A   1      -6.701   4.608 129.955  0.00  0.00    -0.367 OA
ATOM     29  H   LIG A   1      -6.210   5.436 129.818  0.00  0.00    +0.212 HD
ENDBRANCH  22  28
TORSDOF 2
ENDMDL
MODEL 5
REMARK VINA RESULT:      -7.5      1.884      6.289
REMARK  Name = NuBBE_1785
REMARK  4 active torsions:
REMARK  status: ('A' for Active; 'I' for Inactive)
REMARK    1  A    between atoms: C_1  and  C_3
REMARK    2  A    between atoms: C_11  and  O_14
REMARK    3  A    between atoms: O_14  and  C_15
REMARK    4  A    between atoms: C_26  and  O_33
REMARK                            x       y       z     vdW  Elec       q    Type
REMARK                         _______ _______ _______ _____ _____    ______ ____
ROOT
ATOM      1  C   LIG A   1      -8.538   1.413 127.120  0.00  0.00    +0.217 C 
ATOM      2  O   LIG A   1      -8.920   2.015 128.124  0.00  0.00    -0.276 OA
ATOM      3  C   LIG A   1      -8.558   2.117 125.788  0.00  0.00    +0.110 C 
ATOM      4  N   LIG A   1      -8.022   0.139 127.174  0.00  0.00    -0.267 N 
ATOM      5  C   LIG A   1      -7.775  -0.585 128.431  0.00  0.00    +0.102 C 
ATOM      6  C   LIG A   1      -6.941  -1.864 127.977  0.00  0.00    +0.034 C 
ATOM      7  C   LIG A   1      -7.679  -2.132 126.710  0.00  0.00    -0.016 A 
ATOM      8  C   LIG A   1      -8.191  -0.911 126.202  0.00  0.00    +0.044 A 
ATOM      9  C   LIG A   1      -8.864  -0.906 124.994  0.00  0.00    +0.069 A 
ATOM     10  C   LIG A   1      -9.021  -2.113 124.295  0.00  0.00    +0.122 A 
ATOM     11  C   LIG A   1      -8.488  -3.310 124.805  0.00  0.00    +0.046 A 
ATOM     12  C   LIG A   1      -7.810  -3.326 126.024  0.00  0.00    +0.010 A 
ATOM     13  C   LIG A   1      -6.841  -2.674 129.244  0.00  0.00    +0.070 C 
ATOM     14  N   LIG A   1      -5.562  -3.328 129.563  0.00  0.00    -0.295 NA
ATOM     15  C   LIG A   1      -4.681  -2.843 128.458  0.00  0.00    +0.086 C 
ATOM     16  C   LIG A   1      -5.415  -1.734 127.625  0.00  0.00    +0.030 C 
ATOM     17  C   LIG A   1      -5.168  -2.832 130.951  0.00  0.00    +0.115 C 
ATOM     18  C   LIG A   1      -5.763  -1.430 131.387  0.00  0.00    -0.054 C 
ATOM     19  C   LIG A   1      -4.934  -0.471 131.837  0.00  0.00    +0.002 C 
ATOM     20  C   LIG A   1      -5.212   0.991 132.025  0.00  0.00    +0.190 C 
ATOM     21  O   LIG A   1      -6.420   1.478 131.460  0.00  0.00    -0.347 OA
ATOM     22  C   LIG A   1      -6.625   1.224 130.070  0.00  0.00    +0.253 C 
ATOM     23  C   LIG A   1      -7.543   0.012 129.909  0.00  0.00    +0.074 C 
ATOM     24  C   LIG A   1      -7.281  -1.151 131.035  0.00  0.00    +0.027 C 
ATOM     25  C   LIG A   1      -7.819  -2.473 130.414  0.00  0.00    +0.028 C 
ENDROOT
BRANCH  10  26
ATOM     26  O   LIG A   1      -9.716  -1.995 123.120  0.00  0.00    -0.495 OA
ATOM     27  C   LIG A   1      -9.760  -0.698 122.536  0.00  0.00    +0.277 C 
ENDBRANCH  10  26
BRANCH  22  28
ATOM     28  O   LIG A   1      -5.431   1.130 129.322  0.00  0.00    -0.367 OA
ATOM     29  H   LIG A   1      -5.303   2.011 128.932  0.00  0.00    +0.212 HD
ENDBRANCH  22  28
TORSDOF 2
ENDMDL
MODEL 6
REMARK VINA RESULT:      -7.5      2.839      4.261
REMARK  Name = NuBBE_1785
REMARK  4 active torsions:
REMARK  status: ('A' for Active; 'I' for Inactive)
REMARK    1  A    between atoms: C_1  and  C_3
REMARK    2  A    between atoms: C_11  and  O_14
REMARK    3  A    between atoms: O_14  and  C_15
REMARK    4  A    between atoms: C_26  and  O_33
REMARK                            x       y       z     vdW  Elec       q    Type
REMARK                         _______ _______ _______ _____ _____    ______ ____
ROOT
ATOM      1  C   LIG A   1      -6.730   2.355 123.452  0.00  0.00    +0.217 C 
ATOM      2  O   LIG A   1      -6.762   1.764 122.372  0.00  0.00    -0.276 OA
ATOM      3  C   LIG A   1      -6.998   3.837 123.488  0.00  0.00    +0.110 C 
ATOM      4  N   LIG A   1      -6.529   1.701 124.646  0.00  0.00    -0.267 N 
ATOM      5  C   LIG A   1      -6.442   0.238 124.766  0.00  0.00    +0.102 C 
ATOM      6  C   LIG A   1      -6.484  -0.019 126.338  0.00  0.00    +0.034 C 
ATOM      7  C   LIG A   1      -5.643   1.145 126.742  0.00  0.00    -0.016 A 
ATOM      8  C   LIG A   1      -5.797   2.183 125.789  0.00  0.00    +0.044 A 
ATOM      9  C   LIG A   1      -5.155   3.391 125.991  0.00  0.00    +0.069 A 
ATOM     10  C   LIG A   1      -4.367   3.562 127.141  0.00  0.00    +0.122 A 
ATOM     11  C   LIG A   1      -4.245   2.528 128.085  0.00  0.00    +0.046 A 
ATOM     12  C   LIG A   1      -4.886   1.304 127.889  0.00  0.00    +0.010 A 
ATOM     13  C   LIG A   1      -6.227  -1.499 126.449  0.00  0.00    +0.070 C 
ATOM     14  N   LIG A   1      -7.011  -2.280 127.420  0.00  0.00    -0.295 NA
ATOM     15  C   LIG A   1      -7.954  -1.252 127.955  0.00  0.00    +0.086 C 
ATOM     16  C   LIG A   1      -7.842   0.074 127.123  0.00  0.00    +0.030 C 
ATOM     17  C   LIG A   1      -7.678  -3.398 126.625  0.00  0.00    +0.115 C 
ATOM     18  C   LIG A   1      -7.903  -3.119 125.082  0.00  0.00    -0.054 C 
ATOM     19  C   LIG A   1      -9.128  -3.287 124.550  0.00  0.00    +0.002 C 
ATOM     20  C   LIG A   1      -9.642  -2.819 123.222  0.00  0.00    +0.190 C 
ATOM     21  O   LIG A   1      -8.821  -1.898 122.520  0.00  0.00    -0.347 OA
ATOM     22  C   LIG A   1      -8.439  -0.714 123.223  0.00  0.00    +0.253 C 
ATOM     23  C   LIG A   1      -7.026  -0.892 123.777  0.00  0.00    +0.074 C 
ATOM     24  C   LIG A   1      -6.721  -2.417 124.296  0.00  0.00    +0.027 C 
ATOM     25  C   LIG A   1      -5.552  -2.293 125.317  0.00  0.00    +0.028 C 
ENDROOT
BRANCH  10  26
ATOM     26  O   LIG A   1      -3.766   4.790 127.231  0.00  0.00    -0.495 OA
ATOM     27  C   LIG A   1      -2.637   4.882 128.093  0.00  0.00    +0.277 C 
ENDBRANCH  10  26
BRANCH  22  28
ATOM     28  O   LIG A   1      -9.377  -0.296 124.192  0.00  0.00    -0.367 OA
ATOM     29  H   LIG A   1      -9.535   0.645 124.006  0.00  0.00    +0.212 HD
ENDBRANCH  22  28
TORSDOF 2
ENDMDL
MODEL 7
REMARK VINA RESULT:      -7.5      4.470      6.931
REMARK  Name = NuBBE_1785
REMARK  4 active torsions:
REMARK  status: ('A' for Active; 'I' for Inactive)
REMARK    1  A    between atoms: C_1  and  C_3
REMARK    2  A    between atoms: C_11  and  O_14
REMARK    3  A    between atoms: O_14  and  C_15
REMARK    4  A    between atoms: C_26  and  O_33
REMARK                            x       y       z     vdW  Elec       q    Type
REMARK                         _______ _______ _______ _____ _____    ______ ____
ROOT
ATOM      1  C   LIG A   1      -4.559   1.540 132.732  0.00  0.00    +0.217 C 
ATOM      2  O   LIG A   1      -3.654   0.823 133.159  0.00  0.00    -0.276 OA
ATOM      3  C   LIG A   1      -4.385   3.036 132.756  0.00  0.00    +0.110 C 
ATOM      4  N   LIG A   1      -5.702   1.026 132.163  0.00  0.00    -0.267 N 
ATOM      5  C   LIG A   1      -5.910  -0.408 131.911  0.00  0.00    +0.102 C 
ATOM      6  C   LIG A   1      -7.226  -0.450 131.014  0.00  0.00    +0.034 C 
ATOM      7  C   LIG A   1      -7.968   0.636 131.716  0.00  0.00    -0.016 A 
ATOM      8  C   LIG A   1      -7.038   1.553 132.268  0.00  0.00    +0.044 A 
ATOM      9  C   LIG A   1      -7.502   2.683 132.917  0.00  0.00    +0.069 A 
ATOM     10  C   LIG A   1      -8.886   2.898 133.009  0.00  0.00    +0.122 A 
ATOM     11  C   LIG A   1      -9.792   1.988 132.436  0.00  0.00    +0.046 A 
ATOM     12  C   LIG A   1      -9.334   0.844 131.782  0.00  0.00    +0.010 A 
ATOM     13  C   LIG A   1      -7.518  -1.925 130.906  0.00  0.00    +0.070 C 
ATOM     14  N   LIG A   1      -7.952  -2.464 129.607  0.00  0.00    -0.295 NA
ATOM     15  C   LIG A   1      -7.858  -1.261 128.726  0.00  0.00    +0.086 C 
ATOM     16  C   LIG A   1      -7.161  -0.080 129.489  0.00  0.00    +0.030 C 
ATOM     17  C   LIG A   1      -6.971  -3.579 129.261  0.00  0.00    +0.115 C 
ATOM     18  C   LIG A   1      -5.536  -3.476 129.925  0.00  0.00    -0.054 C 
ATOM     19  C   LIG A   1      -4.440  -3.551 129.146  0.00  0.00    +0.002 C 
ATOM     20  C   LIG A   1      -3.025  -3.196 129.489  0.00  0.00    +0.190 C 
ATOM     21  O   LIG A   1      -2.831  -2.490 130.705  0.00  0.00    -0.347 OA
ATOM     22  C   LIG A   1      -3.580  -1.285 130.872  0.00  0.00    +0.253 C 
ATOM     23  C   LIG A   1      -4.810  -1.571 131.734  0.00  0.00    +0.074 C 
ATOM     24  C   LIG A   1      -5.473  -3.042 131.446  0.00  0.00    +0.027 C 
ATOM     25  C   LIG A   1      -6.954  -2.940 131.915  0.00  0.00    +0.028 C 
ENDROOT
BRANCH  10  26
ATOM     26  O   LIG A   1      -9.233   4.039 133.685  0.00  0.00    -0.495 OA
ATOM     27  C   LIG A   1      -8.331   4.477 134.695  0.00  0.00    +0.277 C 
ENDBRANCH  10  26
BRANCH  22  28
ATOM     28  O   LIG A   1      -3.881  -0.625 129.660  0.00  0.00    -0.367 OA
ATOM     29  H   LIG A   1      -4.820  -0.383 129.727  0.00  0.00    +0.212 HD
ENDBRANCH  22  28
TORSDOF 2
ENDMDL
MODEL 8
REMARK VINA RESULT:      -7.5      2.675      5.566
REMARK  Name = NuBBE_1785
REMARK  4 active torsions:
REMARK  status: ('A' for Active; 'I' for Inactive)
REMARK    1  A    between atoms: C_1  and  C_3
REMARK    2  A    between atoms: C_11  and  O_14
REMARK    3  A    between atoms: O_14  and  C_15
REMARK    4  A    between atoms: C_26  and  O_33
REMARK                            x       y       z     vdW  Elec       q    Type
REMARK                         _______ _______ _______ _____ _____    ______ ____
ROOT
ATOM      1  C   LIG A   1      -5.470  -1.209 128.159  0.00  0.00    +0.217 C 
ATOM      2  O   LIG A   1      -4.850  -0.497 128.949  0.00  0.00    -0.276 OA
ATOM      3  C   LIG A   1      -5.723  -2.652 128.512  0.00  0.00    +0.110 C 
ATOM      4  N   LIG A   1      -6.007  -0.721 126.990  0.00  0.00    -0.267 N 
ATOM      5  C   LIG A   1      -5.991   0.703 126.621  0.00  0.00    +0.102 C 
ATOM      6  C   LIG A   1      -6.953   0.778 125.353  0.00  0.00    +0.034 C 
ATOM      7  C   LIG A   1      -6.528  -0.501 124.717  0.00  0.00    -0.016 A 
ATOM      8  C   LIG A   1      -6.099  -1.402 125.724  0.00  0.00    +0.044 A 
ATOM      9  C   LIG A   1      -5.715  -2.683 125.372  0.00  0.00    +0.069 A 
ATOM     10  C   LIG A   1      -5.763  -3.063 124.021  0.00  0.00    +0.122 A 
ATOM     11  C   LIG A   1      -6.211  -2.162 123.039  0.00  0.00    +0.046 A 
ATOM     12  C   LIG A   1      -6.599  -0.866 123.384  0.00  0.00    +0.010 A 
ATOM     13  C   LIG A   1      -6.794   2.204 124.889  0.00  0.00    +0.070 C 
ATOM     14  N   LIG A   1      -7.992   2.940 124.454  0.00  0.00    -0.295 NA
ATOM     15  C   LIG A   1      -9.080   1.956 124.734  0.00  0.00    +0.086 C 
ATOM     16  C   LIG A   1      -8.513   0.730 125.534  0.00  0.00    +0.030 C 
ATOM     17  C   LIG A   1      -8.046   4.203 125.308  0.00  0.00    +0.115 C 
ATOM     18  C   LIG A   1      -7.317   4.128 126.712  0.00  0.00    -0.054 C 
ATOM     19  C   LIG A   1      -7.988   4.477 127.825  0.00  0.00    +0.002 C 
ATOM     20  C   LIG A   1      -7.622   4.219 129.256  0.00  0.00    +0.190 C 
ATOM     21  O   LIG A   1      -6.554   3.309 129.477  0.00  0.00    -0.347 OA
ATOM     22  C   LIG A   1      -6.676   2.020 128.874  0.00  0.00    +0.253 C 
ATOM     23  C   LIG A   1      -5.864   1.992 127.579  0.00  0.00    +0.074 C 
ATOM     24  C   LIG A   1      -5.908   3.409 126.756  0.00  0.00    +0.027 C 
ATOM     25  C   LIG A   1      -5.572   3.052 125.278  0.00  0.00    +0.028 C 
ENDROOT
BRANCH  10  26
ATOM     26  O   LIG A   1      -5.346  -4.347 123.784  0.00  0.00    -0.495 OA
ATOM     27  C   LIG A   1      -3.953  -4.530 123.561  0.00  0.00    +0.277 C 
ENDBRANCH  10  26
BRANCH  22  28
ATOM     28  O   LIG A   1      -8.011   1.587 128.711  0.00  0.00    -0.367 OA
ATOM     29  H   LIG A   1      -7.965   0.845 128.086  0.00  0.00    +0.212 HD
ENDBRANCH  22  28
TORSDOF 2
ENDMDL
MODEL 9
REMARK VINA RESULT:      -7.4      2.179      5.994
REMARK  Name = NuBBE_1785
REMARK  4 active torsions:
REMARK  status: ('A' for Active; 'I' for Inactive)
REMARK    1  A    between atoms: C_1  and  C_3
REMARK    2  A    between atoms: C_11  and  O_14
REMARK    3  A    between atoms: O_14  and  C_15
REMARK    4  A    between atoms: C_26  and  O_33
REMARK                            x       y       z     vdW  Elec       q    Type
REMARK                         _______ _______ _______ _____ _____    ______ ____
ROOT
ATOM      1  C   LIG A   1      -8.543   1.650 125.305  0.00  0.00    +0.217 C 
ATOM      2  O   LIG A   1      -8.993   2.767 125.561  0.00  0.00    -0.276 OA
ATOM      3  C   LIG A   1      -8.351   1.246 123.866  0.00  0.00    +0.110 C 
ATOM      4  N   LIG A   1      -8.138   0.773 126.286  0.00  0.00    -0.267 N 
ATOM      5  C   LIG A   1      -8.099   1.116 127.715  0.00  0.00    +0.102 C 
ATOM      6  C   LIG A   1      -7.319  -0.104 128.379  0.00  0.00    +0.034 C 
ATOM      7  C   LIG A   1      -7.922  -1.187 127.550  0.00  0.00    -0.016 A 
ATOM      8  C   LIG A   1      -8.273  -0.661 126.281  0.00  0.00    +0.044 A 
ATOM      9  C   LIG A   1      -8.797  -1.503 125.317  0.00  0.00    +0.069 A 
ATOM     10  C   LIG A   1      -8.964  -2.864 125.618  0.00  0.00    +0.122 A 
ATOM     11  C   LIG A   1      -8.590  -3.371 126.874  0.00  0.00    +0.046 A 
ATOM     12  C   LIG A   1      -8.064  -2.529 127.855  0.00  0.00    +0.010 A 
ATOM     13  C   LIG A   1      -7.434   0.179 129.855  0.00  0.00    +0.070 C 
ATOM     14  N   LIG A   1      -6.256  -0.046 130.709  0.00  0.00    -0.295 NA
ATOM     15  C   LIG A   1      -5.216  -0.430 129.708  0.00  0.00    +0.086 C 
ATOM     16  C   LIG A   1      -5.757  -0.215 128.251  0.00  0.00    +0.030 C 
ATOM     17  C   LIG A   1      -5.990   1.276 131.421  0.00  0.00    +0.115 C 
ATOM     18  C   LIG A   1      -6.522   2.580 130.694  0.00  0.00    -0.054 C 
ATOM     19  C   LIG A   1      -5.679   3.607 130.477  0.00  0.00    +0.002 C 
ATOM     20  C   LIG A   1      -5.862   4.791 129.576  0.00  0.00    +0.190 C 
ATOM     21  O   LIG A   1      -6.953   4.728 128.670  0.00  0.00    -0.347 OA
ATOM     22  C   LIG A   1      -7.012   3.584 127.817  0.00  0.00    +0.253 C 
ATOM     23  C   LIG A   1      -7.996   2.570 128.402  0.00  0.00    +0.074 C 
ATOM     24  C   LIG A   1      -7.961   2.505 130.039  0.00  0.00    +0.027 C 
ATOM     25  C   LIG A   1      -8.524   1.104 130.421  0.00  0.00    +0.028 C 
ENDROOT
BRANCH  10  26
ATOM     26  O   LIG A   1      -9.505  -3.602 124.596  0.00  0.00    -0.495 OA
ATOM     27  C   LIG A   1      -9.378  -3.060 123.287  0.00  0.00    +0.277 C 
ENDBRANCH  10  26
BRANCH  22  28
ATOM     28  O   LIG A   1      -5.749   3.031 127.511  0.00  0.00    -0.367 OA
ATOM     29  H   LIG A   1      -5.798   2.104 127.799  0.00  0.00    +0.212 HD
ENDBRANCH  22  28
TORSDOF 2
ENDMDL
