MODEL 1
REMARK VINA RESULT:      -7.7      0.000      0.000
REMARK  Name = NuBBE_2443
REMARK  8 active torsions:
REMARK  status: ('A' for Active; 'I' for Inactive)
REMARK    1  A    between atoms: C_1  and  O_2
REMARK    2  A    between atoms: O_2  and  C_3
REMARK    3  A    between atoms: C_6  and  C_9
REMARK    4  A    between atoms: C_16  and  C_17
REMARK    5  A    between atoms: C_18  and  O_23
REMARK    6  A    between atoms: C_19  and  C_22
REMARK    7  A    between atoms: C_20  and  O_21
REMARK    8  A    between atoms: O_23  and  C_24
REMARK                            x       y       z     vdW  Elec       q    Type
REMARK                         _______ _______ _______ _____ _____    ______ ____
ROOT
ATOM      1  C   LIG A   1      -7.644   2.472 123.283  0.00  0.00    +0.139 A 
ATOM      2  C   LIG A   1      -7.920   3.168 124.392  0.00  0.00    +0.098 A 
ATOM      3  C   LIG A   1      -8.065   2.429 125.649  0.00  0.00    +0.197 A 
ATOM      4  O   LIG A   1      -8.296   3.015 126.710  0.00  0.00    -0.287 OA
ATOM      5  C   LIG A   1      -7.913   0.967 125.603  0.00  0.00    +0.106 A 
ATOM      6  C   LIG A   1      -7.596   0.368 124.381  0.00  0.00    +0.149 A 
ATOM      7  O   LIG A   1      -7.470   1.108 123.227  0.00  0.00    -0.454 OA
ATOM      8  C   LIG A   1      -7.363  -1.021 124.289  0.00  0.00    +0.035 A 
ATOM      9  C   LIG A   1      -6.911  -1.599 122.974  0.00  0.00    +0.051 C 
ATOM     10  C   LIG A   1      -7.524  -1.806 125.451  0.00  0.00    +0.133 A 
ATOM     11  C   LIG A   1      -7.892  -1.210 126.683  0.00  0.00    +0.034 A 
ATOM     12  C   LIG A   1      -8.056   0.181 126.750  0.00  0.00    +0.138 A 
ATOM     13  C   LIG A   1      -8.054  -2.056 127.921  0.00  0.00    +0.051 C 
ENDROOT
BRANCH   1  17
ATOM     14  C   LIG A   1      -7.157   4.423 119.516  0.00  0.00    +0.120 A 
ATOM     15  C   LIG A   1      -8.431   4.093 119.979  0.00  0.00    +0.046 A 
ATOM     16  C   LIG A   1      -8.584   3.455 121.213  0.00  0.00    +0.015 A 
ATOM     17  C   LIG A   1      -7.467   3.146 121.996  0.00  0.00    +0.018 A 
ATOM     18  C   LIG A   1      -6.192   3.501 121.542  0.00  0.00    +0.015 A 
ATOM     19  C   LIG A   1      -6.043   4.144 120.309  0.00  0.00    +0.046 A 
BRANCH  14  21
ATOM     20  C   LIG A   1      -5.904   6.079 118.397  0.00  0.00    +0.277 C 
ATOM     21  O   LIG A   1      -6.895   5.058 118.332  0.00  0.00    -0.495 OA
ENDBRANCH  14  21
ENDBRANCH   1  17
BRANCH  12  22
ATOM     22  O   LIG A   1      -8.345   0.740 127.971  0.00  0.00    -0.505 OA
ATOM     23  H   LIG A   1      -9.246   0.459 128.244  0.00  0.00    +0.292 HD
ENDBRANCH  12  22
BRANCH  10  24
ATOM     24  O   LIG A   1      -7.209  -3.143 125.533  0.00  0.00    -0.494 OA
ATOM     25  C   LIG A   1      -8.132  -4.065 124.966  0.00  0.00    +0.277 C 
ENDBRANCH  10  24
TORSDOF 4
ENDMDL
MODEL 2
REMARK VINA RESULT:      -7.7      2.115      3.328
REMARK  Name = NuBBE_2443
REMARK  8 active torsions:
REMARK  status: ('A' for Active; 'I' for Inactive)
REMARK    1  A    between atoms: C_1  and  O_2
REMARK    2  A    between atoms: O_2  and  C_3
REMARK    3  A    between atoms: C_6  and  C_9
REMARK    4  A    between atoms: C_16  and  C_17
REMARK    5  A    between atoms: C_18  and  O_23
REMARK    6  A    between atoms: C_19  and  C_22
REMARK    7  A    between atoms: C_20  and  O_21
REMARK    8  A    between atoms: O_23  and  C_24
REMARK                            x       y       z     vdW  Elec       q    Type
REMARK                         _______ _______ _______ _____ _____    ______ ____
ROOT
ATOM      1  C   LIG A   1      -7.311   0.930 123.901  0.00  0.00    +0.139 A 
ATOM      2  C   LIG A   1      -8.291   0.298 123.245  0.00  0.00    +0.098 A 
ATOM      3  C   LIG A   1      -8.923  -0.853 123.896  0.00  0.00    +0.197 A 
ATOM      4  O   LIG A   1      -9.848  -1.463 123.354  0.00  0.00    -0.287 OA
ATOM      5  C   LIG A   1      -8.424  -1.245 125.223  0.00  0.00    +0.106 A 
ATOM      6  C   LIG A   1      -7.413  -0.480 125.808  0.00  0.00    +0.149 A 
ATOM      7  O   LIG A   1      -6.851   0.594 125.154  0.00  0.00    -0.454 OA
ATOM      8  C   LIG A   1      -6.946  -0.761 127.110  0.00  0.00    +0.035 A 
ATOM      9  C   LIG A   1      -5.938   0.164 127.740  0.00  0.00    +0.051 C 
ATOM     10  C   LIG A   1      -7.479  -1.881 127.786  0.00  0.00    +0.133 A 
ATOM     11  C   LIG A   1      -8.472  -2.689 127.177  0.00  0.00    +0.034 A 
ATOM     12  C   LIG A   1      -8.954  -2.343 125.907  0.00  0.00    +0.138 A 
ATOM     13  C   LIG A   1      -9.041  -3.878 127.910  0.00  0.00    +0.051 C 
ENDROOT
BRANCH   1  17
ATOM     14  C   LIG A   1      -5.387   4.359 122.234  0.00  0.00    +0.120 A 
ATOM     15  C   LIG A   1      -5.489   4.211 123.617  0.00  0.00    +0.046 A 
ATOM     16  C   LIG A   1      -6.119   3.086 124.157  0.00  0.00    +0.015 A 
ATOM     17  C   LIG A   1      -6.648   2.098 123.320  0.00  0.00    +0.018 A 
ATOM     18  C   LIG A   1      -6.523   2.236 121.933  0.00  0.00    +0.015 A 
ATOM     19  C   LIG A   1      -5.887   3.359 121.396  0.00  0.00    +0.046 A 
BRANCH  14  21
ATOM     20  C   LIG A   1      -4.990   5.474 120.193  0.00  0.00    +0.277 C 
ATOM     21  O   LIG A   1      -4.782   5.410 121.601  0.00  0.00    -0.495 OA
ENDBRANCH  14  21
ENDBRANCH   1  17
BRANCH  12  22
ATOM     22  O   LIG A   1      -9.965  -3.103 125.370  0.00  0.00    -0.505 OA
ATOM     23  H   LIG A   1     -10.717  -2.514 125.139  0.00  0.00    +0.292 HD
ENDBRANCH  12  22
BRANCH  10  24
ATOM     24  O   LIG A   1      -7.209  -2.194 129.098  0.00  0.00    -0.494 OA
ATOM     25  C   LIG A   1      -6.008  -2.910 129.361  0.00  0.00    +0.277 C 
ENDBRANCH  10  24
TORSDOF 4
ENDMDL
MODEL 3
REMARK VINA RESULT:      -7.2      9.665     10.524
REMARK  Name = NuBBE_2443
REMARK  8 active torsions:
REMARK  status: ('A' for Active; 'I' for Inactive)
REMARK    1  A    between atoms: C_1  and  O_2
REMARK    2  A    between atoms: O_2  and  C_3
REMARK    3  A    between atoms: C_6  and  C_9
REMARK    4  A    between atoms: C_16  and  C_17
REMARK    5  A    between atoms: C_18  and  O_23
REMARK    6  A    between atoms: C_19  and  C_22
REMARK    7  A    between atoms: C_20  and  O_21
REMARK    8  A    between atoms: O_23  and  C_24
REMARK                            x       y       z     vdW  Elec       q    Type
REMARK                         _______ _______ _______ _____ _____    ______ ____
ROOT
ATOM      1  C   LIG A   1      -9.165   6.224 131.780  0.00  0.00    +0.139 A 
ATOM      2  C   LIG A   1      -9.498   5.466 132.831  0.00  0.00    +0.098 A 
ATOM      3  C   LIG A   1      -8.416   4.911 133.649  0.00  0.00    +0.197 A 
ATOM      4  O   LIG A   1      -8.658   4.225 134.645  0.00  0.00    -0.287 OA
ATOM      5  C   LIG A   1      -7.034   5.213 133.248  0.00  0.00    +0.106 A 
ATOM      6  C   LIG A   1      -6.826   6.042 132.143  0.00  0.00    +0.149 A 
ATOM      7  O   LIG A   1      -7.879   6.539 131.407  0.00  0.00    -0.454 OA
ATOM      8  C   LIG A   1      -5.526   6.428 131.756  0.00  0.00    +0.035 A 
ATOM      9  C   LIG A   1      -5.362   7.417 130.631  0.00  0.00    +0.051 C 
ATOM     10  C   LIG A   1      -4.429   5.901 132.471  0.00  0.00    +0.133 A 
ATOM     11  C   LIG A   1      -4.632   5.021 133.563  0.00  0.00    +0.034 A 
ATOM     12  C   LIG A   1      -5.941   4.707 133.957  0.00  0.00    +0.138 A 
ATOM     13  C   LIG A   1      -3.454   4.469 134.327  0.00  0.00    +0.051 C 
ENDROOT
BRANCH   1  17
ATOM     14  C   LIG A   1     -12.142   8.006 129.290  0.00  0.00    +0.120 A 
ATOM     15  C   LIG A   1     -10.796   8.060 128.928  0.00  0.00    +0.046 A 
ATOM     16  C   LIG A   1      -9.826   7.474 129.747  0.00  0.00    +0.015 A 
ATOM     17  C   LIG A   1     -10.194   6.826 130.931  0.00  0.00    +0.018 A 
ATOM     18  C   LIG A   1     -11.547   6.751 131.280  0.00  0.00    +0.015 A 
ATOM     19  C   LIG A   1     -12.515   7.333 130.456  0.00  0.00    +0.046 A 
BRANCH  14  21
ATOM     20  C   LIG A   1     -13.476   9.898 128.834  0.00  0.00    +0.277 C 
ATOM     21  O   LIG A   1     -13.171   8.533 128.559  0.00  0.00    -0.495 OA
ENDBRANCH  14  21
ENDBRANCH   1  17
BRANCH  12  22
ATOM     22  O   LIG A   1      -6.110   3.908 135.061  0.00  0.00    -0.505 OA
ATOM     23  H   LIG A   1      -7.025   3.548 135.056  0.00  0.00    +0.292 HD
ENDBRANCH  12  22
BRANCH  10  24
ATOM     24  O   LIG A   1      -3.122   6.289 132.283  0.00  0.00    -0.494 OA
ATOM     25  C   LIG A   1      -2.405   5.665 131.225  0.00  0.00    +0.277 C 
ENDBRANCH  10  24
TORSDOF 4
ENDMDL
MODEL 4
REMARK VINA RESULT:      -7.2      8.374      9.336
REMARK  Name = NuBBE_2443
REMARK  8 active torsions:
REMARK  status: ('A' for Active; 'I' for Inactive)
REMARK    1  A    between atoms: C_1  and  O_2
REMARK    2  A    between atoms: O_2  and  C_3
REMARK    3  A    between atoms: C_6  and  C_9
REMARK    4  A    between atoms: C_16  and  C_17
REMARK    5  A    between atoms: C_18  and  O_23
REMARK    6  A    between atoms: C_19  and  C_22
REMARK    7  A    between atoms: C_20  and  O_21
REMARK    8  A    between atoms: O_23  and  C_24
REMARK                            x       y       z     vdW  Elec       q    Type
REMARK                         _______ _______ _______ _____ _____    ______ ____
ROOT
ATOM      1  C   LIG A   1      -9.188   6.271 130.961  0.00  0.00    +0.139 A 
ATOM      2  C   LIG A   1      -8.013   6.890 131.125  0.00  0.00    +0.098 A 
ATOM      3  C   LIG A   1      -6.919   6.135 131.742  0.00  0.00    +0.197 A 
ATOM      4  O   LIG A   1      -5.805   6.641 131.898  0.00  0.00    -0.287 OA
ATOM      5  C   LIG A   1      -7.194   4.751 132.156  0.00  0.00    +0.106 A 
ATOM      6  C   LIG A   1      -8.459   4.217 131.901  0.00  0.00    +0.149 A 
ATOM      7  O   LIG A   1      -9.454   4.969 131.317  0.00  0.00    -0.454 OA
ATOM      8  C   LIG A   1      -8.758   2.873 132.207  0.00  0.00    +0.035 A 
ATOM      9  C   LIG A   1     -10.098   2.313 131.806  0.00  0.00    +0.051 C 
ATOM     10  C   LIG A   1      -7.766   2.093 132.842  0.00  0.00    +0.133 A 
ATOM     11  C   LIG A   1      -6.497   2.644 133.146  0.00  0.00    +0.034 A 
ATOM     12  C   LIG A   1      -6.215   3.966 132.773  0.00  0.00    +0.138 A 
ATOM     13  C   LIG A   1      -5.441   1.801 133.817  0.00  0.00    +0.051 C 
ENDROOT
BRANCH   1  17
ATOM     14  C   LIG A   1     -12.509   8.247 129.144  0.00  0.00    +0.120 A 
ATOM     15  C   LIG A   1     -12.694   7.459 130.280  0.00  0.00    +0.046 A 
ATOM     16  C   LIG A   1     -11.602   6.816 130.871  0.00  0.00    +0.015 A 
ATOM     17  C   LIG A   1     -10.319   6.957 130.334  0.00  0.00    +0.018 A 
ATOM     18  C   LIG A   1     -10.131   7.768 129.209  0.00  0.00    +0.015 A 
ATOM     19  C   LIG A   1     -11.224   8.415 128.624  0.00  0.00    +0.046 A 
BRANCH  14  21
ATOM     20  C   LIG A   1     -13.655  10.292 128.881  0.00  0.00    +0.277 C 
ATOM     21  O   LIG A   1     -13.502   8.929 128.495  0.00  0.00    -0.495 OA
ENDBRANCH  14  21
ENDBRANCH   1  17
BRANCH  12  22
ATOM     22  O   LIG A   1      -4.954   4.452 133.017  0.00  0.00    -0.505 OA
ATOM     23  H   LIG A   1      -4.375   3.708 133.296  0.00  0.00    +0.292 HD
ENDBRANCH  12  22
BRANCH  10  24
ATOM     24  O   LIG A   1      -7.878   0.742 133.081  0.00  0.00    -0.494 OA
ATOM     25  C   LIG A   1      -7.672  -0.132 131.978  0.00  0.00    +0.277 C 
ENDBRANCH  10  24
TORSDOF 4
ENDMDL
MODEL 5
REMARK VINA RESULT:      -7.1      2.652      8.391
REMARK  Name = NuBBE_2443
REMARK  8 active torsions:
REMARK  status: ('A' for Active; 'I' for Inactive)
REMARK    1  A    between atoms: C_1  and  O_2
REMARK    2  A    between atoms: O_2  and  C_3
REMARK    3  A    between atoms: C_6  and  C_9
REMARK    4  A    between atoms: C_16  and  C_17
REMARK    5  A    between atoms: C_18  and  O_23
REMARK    6  A    between atoms: C_19  and  C_22
REMARK    7  A    between atoms: C_20  and  O_21
REMARK    8  A    between atoms: O_23  and  C_24
REMARK                            x       y       z     vdW  Elec       q    Type
REMARK                         _______ _______ _______ _____ _____    ______ ____
ROOT
ATOM      1  C   LIG A   1      -7.358  -1.810 126.701  0.00  0.00    +0.139 A 
ATOM      2  C   LIG A   1      -8.246  -2.507 125.982  0.00  0.00    +0.098 A 
ATOM      3  C   LIG A   1      -8.877  -1.842 124.839  0.00  0.00    +0.197 A 
ATOM      4  O   LIG A   1      -9.685  -2.437 124.122  0.00  0.00    -0.287 OA
ATOM      5  C   LIG A   1      -8.504  -0.445 124.571  0.00  0.00    +0.106 A 
ATOM      6  C   LIG A   1      -7.541   0.156 125.384  0.00  0.00    +0.149 A 
ATOM      7  O   LIG A   1      -6.976  -0.513 126.447  0.00  0.00    -0.454 OA
ATOM      8  C   LIG A   1      -7.087   1.468 125.130  0.00  0.00    +0.035 A 
ATOM      9  C   LIG A   1      -5.965   2.027 125.965  0.00  0.00    +0.051 C 
ATOM     10  C   LIG A   1      -7.679   2.188 124.069  0.00  0.00    +0.133 A 
ATOM     11  C   LIG A   1      -8.690   1.600 123.270  0.00  0.00    +0.034 A 
ATOM     12  C   LIG A   1      -9.073   0.273 123.515  0.00  0.00    +0.138 A 
ATOM     13  C   LIG A   1      -9.311   2.374 122.134  0.00  0.00    +0.051 C 
ENDROOT
BRANCH   1  17
ATOM     14  C   LIG A   1      -5.392  -3.576 130.057  0.00  0.00    +0.120 A 
ATOM     15  C   LIG A   1      -6.778  -3.674 129.919  0.00  0.00    +0.046 A 
ATOM     16  C   LIG A   1      -7.415  -3.095 128.818  0.00  0.00    +0.015 A 
ATOM     17  C   LIG A   1      -6.674  -2.417 127.844  0.00  0.00    +0.018 A 
ATOM     18  C   LIG A   1      -5.282  -2.342 127.970  0.00  0.00    +0.015 A 
ATOM     19  C   LIG A   1      -4.647  -2.927 129.070  0.00  0.00    +0.046 A 
BRANCH  14  21
ATOM     20  C   LIG A   1      -5.331  -5.135 131.826  0.00  0.00    +0.277 C 
ATOM     21  O   LIG A   1      -4.668  -4.115 131.084  0.00  0.00    -0.495 OA
ENDBRANCH  14  21
ENDBRANCH   1  17
BRANCH  12  22
ATOM     22  O   LIG A   1     -10.006  -0.295 122.681  0.00  0.00    -0.505 OA
ATOM     23  H   LIG A   1     -10.680  -0.757 123.227  0.00  0.00    +0.292 HD
ENDBRANCH  12  22
BRANCH  10  24
ATOM     24  O   LIG A   1      -7.247   3.420 123.634  0.00  0.00    -0.494 OA
ATOM     25  C   LIG A   1      -6.154   3.442 122.725  0.00  0.00    +0.277 C 
ENDBRANCH  10  24
TORSDOF 4
ENDMDL
MODEL 6
REMARK VINA RESULT:      -7.1      3.378      5.312
REMARK  Name = NuBBE_2443
REMARK  8 active torsions:
REMARK  status: ('A' for Active; 'I' for Inactive)
REMARK    1  A    between atoms: C_1  and  O_2
REMARK    2  A    between atoms: O_2  and  C_3
REMARK    3  A    between atoms: C_6  and  C_9
REMARK    4  A    between atoms: C_16  and  C_17
REMARK    5  A    between atoms: C_18  and  O_23
REMARK    6  A    between atoms: C_19  and  C_22
REMARK    7  A    between atoms: C_20  and  O_21
REMARK    8  A    between atoms: O_23  and  C_24
REMARK                            x       y       z     vdW  Elec       q    Type
REMARK                         _______ _______ _______ _____ _____    ______ ____
ROOT
ATOM      1  C   LIG A   1      -5.887   2.141 125.402  0.00  0.00    +0.139 A 
ATOM      2  C   LIG A   1      -6.644   2.619 124.407  0.00  0.00    +0.098 A 
ATOM      3  C   LIG A   1      -7.592   1.706 123.764  0.00  0.00    +0.197 A 
ATOM      4  O   LIG A   1      -8.335   2.092 122.858  0.00  0.00    -0.287 OA
ATOM      5  C   LIG A   1      -7.636   0.317 124.247  0.00  0.00    +0.106 A 
ATOM      6  C   LIG A   1      -6.810  -0.045 125.314  0.00  0.00    +0.149 A 
ATOM      7  O   LIG A   1      -5.935   0.853 125.884  0.00  0.00    -0.454 OA
ATOM      8  C   LIG A   1      -6.862  -1.341 125.869  0.00  0.00    +0.035 A 
ATOM      9  C   LIG A   1      -6.036  -1.645 127.091  0.00  0.00    +0.051 C 
ATOM     10  C   LIG A   1      -7.723  -2.290 125.276  0.00  0.00    +0.133 A 
ATOM     11  C   LIG A   1      -8.528  -1.941 124.163  0.00  0.00    +0.034 A 
ATOM     12  C   LIG A   1      -8.495  -0.627 123.676  0.00  0.00    +0.138 A 
ATOM     13  C   LIG A   1      -9.451  -2.960 123.542  0.00  0.00    +0.051 C 
ENDROOT
BRANCH   1  17
ATOM     14  C   LIG A   1      -3.087   4.623 127.461  0.00  0.00    +0.120 A 
ATOM     15  C   LIG A   1      -2.753   3.310 127.127  0.00  0.00    +0.046 A 
ATOM     16  C   LIG A   1      -3.674   2.502 126.452  0.00  0.00    +0.015 A 
ATOM     17  C   LIG A   1      -4.933   3.002 126.102  0.00  0.00    +0.018 A 
ATOM     18  C   LIG A   1      -5.257   4.326 126.415  0.00  0.00    +0.015 A 
ATOM     19  C   LIG A   1      -4.332   5.133 127.085  0.00  0.00    +0.046 A 
BRANCH  14  21
ATOM     20  C   LIG A   1      -2.733   6.843 128.175  0.00  0.00    +0.277 C 
ATOM     21  O   LIG A   1      -2.260   5.500 128.107  0.00  0.00    -0.495 OA
ENDBRANCH  14  21
ENDBRANCH   1  17
BRANCH  12  22
ATOM     22  O   LIG A   1      -9.336  -0.299 122.641  0.00  0.00    -0.505 OA
ATOM     23  H   LIG A   1      -9.387   0.680 122.572  0.00  0.00    +0.292 HD
ENDBRANCH  12  22
BRANCH  10  24
ATOM     24  O   LIG A   1      -7.965  -3.544 125.789  0.00  0.00    -0.494 OA
ATOM     25  C   LIG A   1      -8.846  -3.631 126.902  0.00  0.00    +0.277 C 
ENDBRANCH  10  24
TORSDOF 4
ENDMDL
MODEL 7
REMARK VINA RESULT:      -7.1      3.225      9.152
REMARK  Name = NuBBE_2443
REMARK  8 active torsions:
REMARK  status: ('A' for Active; 'I' for Inactive)
REMARK    1  A    between atoms: C_1  and  O_2
REMARK    2  A    between atoms: O_2  and  C_3
REMARK    3  A    between atoms: C_6  and  C_9
REMARK    4  A    between atoms: C_16  and  C_17
REMARK    5  A    between atoms: C_18  and  O_23
REMARK    6  A    between atoms: C_19  and  C_22
REMARK    7  A    between atoms: C_20  and  O_21
REMARK    8  A    between atoms: O_23  and  C_24
REMARK                            x       y       z     vdW  Elec       q    Type
REMARK                         _______ _______ _______ _____ _____    ______ ____
ROOT
ATOM      1  C   LIG A   1      -7.871  -2.315 128.075  0.00  0.00    +0.139 A 
ATOM      2  C   LIG A   1      -8.062  -3.243 127.130  0.00  0.00    +0.098 A 
ATOM      3  C   LIG A   1      -8.521  -2.799 125.812  0.00  0.00    +0.197 A 
ATOM      4  O   LIG A   1      -8.692  -3.603 124.892  0.00  0.00    -0.287 OA
ATOM      5  C   LIG A   1      -8.758  -1.360 125.621  0.00  0.00    +0.106 A 
ATOM      6  C   LIG A   1      -8.492  -0.494 126.684  0.00  0.00    +0.149 A 
ATOM      7  O   LIG A   1      -8.061  -0.962 127.905  0.00  0.00    -0.454 OA
ATOM      8  C   LIG A   1      -8.628   0.903 126.538  0.00  0.00    +0.035 A 
ATOM      9  C   LIG A   1      -8.218   1.800 127.677  0.00  0.00    +0.051 C 
ATOM     10  C   LIG A   1      -9.106   1.405 125.307  0.00  0.00    +0.133 A 
ATOM     11  C   LIG A   1      -9.422   0.527 124.241  0.00  0.00    +0.034 A 
ATOM     12  C   LIG A   1      -9.217  -0.851 124.403  0.00  0.00    +0.138 A 
ATOM     13  C   LIG A   1      -9.925   1.073 122.928  0.00  0.00    +0.051 C 
ENDROOT
BRANCH   1  17
ATOM     14  C   LIG A   1      -6.476  -3.428 131.954  0.00  0.00    +0.120 A 
ATOM     15  C   LIG A   1      -6.003  -4.087 130.819  0.00  0.00    +0.046 A 
ATOM     16  C   LIG A   1      -6.463  -3.717 129.552  0.00  0.00    +0.015 A 
ATOM     17  C   LIG A   1      -7.395  -2.685 129.408  0.00  0.00    +0.018 A 
ATOM     18  C   LIG A   1      -7.849  -2.008 130.545  0.00  0.00    +0.015 A 
ATOM     19  C   LIG A   1      -7.384  -2.376 131.811  0.00  0.00    +0.046 A 
BRANCH  14  21
ATOM     20  C   LIG A   1      -7.146  -3.951 134.155  0.00  0.00    +0.277 C 
ATOM     21  O   LIG A   1      -6.086  -3.700 133.237  0.00  0.00    -0.495 OA
ENDBRANCH  14  21
ENDBRANCH   1  17
BRANCH  12  22
ATOM     22  O   LIG A   1      -9.467  -1.672 123.330  0.00  0.00    -0.505 OA
ATOM     23  H   LIG A   1     -10.408  -1.572 123.067  0.00  0.00    +0.292 HD
ENDBRANCH  12  22
BRANCH  10  24
ATOM     24  O   LIG A   1      -9.166   2.742 124.987  0.00  0.00    -0.494 OA
ATOM     25  C   LIG A   1      -7.955   3.370 124.587  0.00  0.00    +0.277 C 
ENDBRANCH  10  24
TORSDOF 4
ENDMDL
MODEL 8
REMARK VINA RESULT:      -7.0      5.774      8.194
REMARK  Name = NuBBE_2443
REMARK  8 active torsions:
REMARK  status: ('A' for Active; 'I' for Inactive)
REMARK    1  A    between atoms: C_1  and  O_2
REMARK    2  A    between atoms: O_2  and  C_3
REMARK    3  A    between atoms: C_6  and  C_9
REMARK    4  A    between atoms: C_16  and  C_17
REMARK    5  A    between atoms: C_18  and  O_23
REMARK    6  A    between atoms: C_19  and  C_22
REMARK    7  A    between atoms: C_20  and  O_21
REMARK    8  A    between atoms: O_23  and  C_24
REMARK                            x       y       z     vdW  Elec       q    Type
REMARK                         _______ _______ _______ _____ _____    ______ ____
ROOT
ATOM      1  C   LIG A   1      -9.549   5.879 129.597  0.00  0.00    +0.139 A 
ATOM      2  C   LIG A   1      -9.163   5.495 130.820  0.00  0.00    +0.098 A 
ATOM      3  C   LIG A   1      -8.109   4.483 130.922  0.00  0.00    +0.197 A 
ATOM      4  O   LIG A   1      -7.692   4.106 132.020  0.00  0.00    -0.287 OA
ATOM      5  C   LIG A   1      -7.556   3.944 129.670  0.00  0.00    +0.106 A 
ATOM      6  C   LIG A   1      -8.030   4.453 128.459  0.00  0.00    +0.149 A 
ATOM      7  O   LIG A   1      -9.023   5.406 128.416  0.00  0.00    -0.454 OA
ATOM      8  C   LIG A   1      -7.485   4.031 127.228  0.00  0.00    +0.035 A 
ATOM      9  C   LIG A   1      -7.949   4.695 125.957  0.00  0.00    +0.051 C 
ATOM     10  C   LIG A   1      -6.492   3.027 127.243  0.00  0.00    +0.133 A 
ATOM     11  C   LIG A   1      -6.042   2.473 128.467  0.00  0.00    +0.034 A 
ATOM     12  C   LIG A   1      -6.563   2.961 129.674  0.00  0.00    +0.138 A 
ATOM     13  C   LIG A   1      -4.975   1.407 128.474  0.00  0.00    +0.051 C 
ENDROOT
BRANCH   1  17
ATOM     14  C   LIG A   1     -12.591   8.834 129.099  0.00  0.00    +0.120 A 
ATOM     15  C   LIG A   1     -12.588   8.008 130.223  0.00  0.00    +0.046 A 
ATOM     16  C   LIG A   1     -11.589   7.043 130.381  0.00  0.00    +0.015 A 
ATOM     17  C   LIG A   1     -10.583   6.899 129.420  0.00  0.00    +0.018 A 
ATOM     18  C   LIG A   1     -10.573   7.745 128.306  0.00  0.00    +0.015 A 
ATOM     19  C   LIG A   1     -11.570   8.713 128.153  0.00  0.00    +0.046 A 
BRANCH  14  21
ATOM     20  C   LIG A   1     -13.512  10.896 129.782  0.00  0.00    +0.277 C 
ATOM     21  O   LIG A   1     -13.510   9.816 128.851  0.00  0.00    -0.495 OA
ENDBRANCH  14  21
ENDBRANCH   1  17
BRANCH  12  22
ATOM     22  O   LIG A   1      -6.059   2.455 130.847  0.00  0.00    -0.505 OA
ATOM     23  H   LIG A   1      -6.701   2.630 131.570  0.00  0.00    +0.292 HD
ENDBRANCH  12  22
BRANCH  10  24
ATOM     24  O   LIG A   1      -5.791   2.614 126.133  0.00  0.00    -0.494 OA
ATOM     25  C   LIG A   1      -4.814   3.507 125.612  0.00  0.00    +0.277 C 
ENDBRANCH  10  24
TORSDOF 4
ENDMDL
MODEL 9
REMARK VINA RESULT:      -7.0      3.796      9.244
REMARK  Name = NuBBE_2443
REMARK  8 active torsions:
REMARK  status: ('A' for Active; 'I' for Inactive)
REMARK    1  A    between atoms: C_1  and  O_2
REMARK    2  A    between atoms: O_2  and  C_3
REMARK    3  A    between atoms: C_6  and  C_9
REMARK    4  A    between atoms: C_16  and  C_17
REMARK    5  A    between atoms: C_18  and  O_23
REMARK    6  A    between atoms: C_19  and  C_22
REMARK    7  A    between atoms: C_20  and  O_21
REMARK    8  A    between atoms: O_23  and  C_24
REMARK                            x       y       z     vdW  Elec       q    Type
REMARK                         _______ _______ _______ _____ _____    ______ ____
ROOT
ATOM      1  C   LIG A   1      -6.527  -2.839 128.851  0.00  0.00    +0.139 A 
ATOM      2  C   LIG A   1      -7.660  -3.553 128.846  0.00  0.00    +0.098 A 
ATOM      3  C   LIG A   1      -8.557  -3.411 127.696  0.00  0.00    +0.197 A 
ATOM      4  O   LIG A   1      -9.603  -4.060 127.621  0.00  0.00    -0.287 OA
ATOM      5  C   LIG A   1      -8.158  -2.480 126.630  0.00  0.00    +0.106 A 
ATOM      6  C   LIG A   1      -6.934  -1.817 126.747  0.00  0.00    +0.149 A 
ATOM      7  O   LIG A   1      -6.125  -1.985 127.849  0.00  0.00    -0.454 OA
ATOM      8  C   LIG A   1      -6.463  -0.969 125.722  0.00  0.00    +0.035 A 
ATOM      9  C   LIG A   1      -5.086  -0.371 125.844  0.00  0.00    +0.051 C 
ATOM     10  C   LIG A   1      -7.291  -0.751 124.599  0.00  0.00    +0.133 A 
ATOM     11  C   LIG A   1      -8.555  -1.384 124.498  0.00  0.00    +0.034 A 
ATOM     12  C   LIG A   1      -8.963  -2.267 125.508  0.00  0.00    +0.138 A 
ATOM     13  C   LIG A   1      -9.429  -1.151 123.291  0.00  0.00    +0.051 C 
ENDROOT
BRANCH   1  17
ATOM     14  C   LIG A   1      -3.725  -3.134 132.059  0.00  0.00    +0.120 A 
ATOM     15  C   LIG A   1      -3.607  -2.117 131.112  0.00  0.00    +0.046 A 
ATOM     16  C   LIG A   1      -4.528  -2.025 130.064  0.00  0.00    +0.015 A 
ATOM     17  C   LIG A   1      -5.576  -2.946 129.958  0.00  0.00    +0.018 A 
ATOM     18  C   LIG A   1      -5.707  -3.950 130.923  0.00  0.00    +0.015 A 
ATOM     19  C   LIG A   1      -4.788  -4.036 131.972  0.00  0.00    +0.046 A 
BRANCH  14  21
ATOM     20  C   LIG A   1      -2.912  -4.608 133.713  0.00  0.00    +0.277 C 
ATOM     21  O   LIG A   1      -2.889  -3.309 133.128  0.00  0.00    -0.495 OA
ENDBRANCH  14  21
ENDBRANCH   1  17
BRANCH  12  22
ATOM     22  O   LIG A   1     -10.162  -2.919 125.351  0.00  0.00    -0.505 OA
ATOM     23  H   LIG A   1     -10.775  -2.339 124.847  0.00  0.00    +0.292 HD
ENDBRANCH  12  22
BRANCH  10  24
ATOM     24  O   LIG A   1      -6.906  -0.054 123.477  0.00  0.00    -0.494 OA
ATOM     25  C   LIG A   1      -7.110   1.353 123.484  0.00  0.00    +0.277 C 
ENDBRANCH  10  24
TORSDOF 4
ENDMDL
