MODEL 1
REMARK VINA RESULT:      -7.2      0.000      0.000
REMARK  Name = NuBBE_1943
REMARK  5 active torsions:
REMARK  status: ('A' for Active; 'I' for Inactive)
REMARK    1  A    between atoms: C_1  and  C_3
REMARK    2  A    between atoms: C_1  and  C_4
REMARK    3  A    between atoms: C_8  and  C_21
REMARK    4  A    between atoms: C_12  and  C_20
REMARK    5  A    between atoms: C_16  and  C_19
REMARK                            x       y       z     vdW  Elec       q    Type
REMARK                         _______ _______ _______ _____ _____    ______ ____
ROOT
ATOM      1  C   LIG A   1      -7.010  -2.084 124.474  0.00  0.00    +0.018 C 
ATOM      2  C   LIG A   1      -7.510  -3.356 125.211  0.00  0.00    +0.012 C 
ATOM      3  C   LIG A   1      -8.609  -3.161 126.272  0.00  0.00    +0.030 C 
ATOM      4  C   LIG A   1      -8.320  -3.408 127.745  0.00  0.00    -0.076 C 
ATOM      5  C   LIG A   1      -7.240  -3.061 128.475  0.00  0.00    -0.027 C 
ATOM      6  C   LIG A   1      -6.003  -2.306 128.085  0.00  0.00    +0.031 C 
ATOM      7  C   LIG A   1      -5.809  -0.976 128.837  0.00  0.00    +0.034 C 
ATOM      8  C   LIG A   1      -6.891   0.062 128.589  0.00  0.00    -0.076 C 
ATOM      9  C   LIG A   1      -6.792   0.932 127.562  0.00  0.00    -0.027 C 
ATOM     10  C   LIG A   1      -7.836   1.943 127.146  0.00  0.00    +0.031 C 
ATOM     11  C   LIG A   1      -7.743   2.375 125.663  0.00  0.00    +0.034 C 
ATOM     12  C   LIG A   1      -7.754   1.297 124.582  0.00  0.00    -0.076 C 
ATOM     13  C   LIG A   1      -8.258   0.066 124.795  0.00  0.00    -0.027 C 
ATOM     14  C   LIG A   1      -8.134  -1.163 123.919  0.00  0.00    +0.035 C 
ATOM     15  C   LIG A   1      -7.085   1.731 123.304  0.00  0.00    +0.038 C 
ATOM     16  C   LIG A   1      -8.019   0.073 129.587  0.00  0.00    +0.038 C 
ATOM     17  C   LIG A   1      -9.483  -4.068 128.460  0.00  0.00    +0.038 C 
ENDROOT
BRANCH   1  18
ATOM     18  C   LIG A   1      -5.989  -2.482 123.402  0.00  0.00    -0.076 C 
ATOM     19  C   LIG A   1      -5.979  -1.968 122.162  0.00  0.00    +0.007 C 
ATOM     20  C   LIG A   1      -4.974  -3.510 123.826  0.00  0.00    +0.038 C 
ENDBRANCH   1  18
TORSDOF 1
ENDMDL
MODEL 2
REMARK VINA RESULT:      -6.9      1.540      5.687
REMARK  Name = NuBBE_1943
REMARK  5 active torsions:
REMARK  status: ('A' for Active; 'I' for Inactive)
REMARK    1  A    between atoms: C_1  and  C_3
REMARK    2  A    between atoms: C_1  and  C_4
REMARK    3  A    between atoms: C_8  and  C_21
REMARK    4  A    between atoms: C_12  and  C_20
REMARK    5  A    between atoms: C_16  and  C_19
REMARK                            x       y       z     vdW  Elec       q    Type
REMARK                         _______ _______ _______ _____ _____    ______ ____
ROOT
ATOM      1  C   LIG A   1      -6.583   0.732 126.903  0.00  0.00    +0.018 C 
ATOM      2  C   LIG A   1      -7.076   1.614 125.723  0.00  0.00    +0.012 C 
ATOM      3  C   LIG A   1      -8.451   1.270 125.124  0.00  0.00    +0.030 C 
ATOM      4  C   LIG A   1      -8.569   0.734 123.705  0.00  0.00    -0.076 C 
ATOM      5  C   LIG A   1      -7.813  -0.189 123.074  0.00  0.00    -0.027 C 
ATOM      6  C   LIG A   1      -6.645  -0.993 123.567  0.00  0.00    +0.031 C 
ATOM      7  C   LIG A   1      -6.881  -2.514 123.574  0.00  0.00    +0.034 C 
ATOM      8  C   LIG A   1      -7.990  -2.984 124.502  0.00  0.00    -0.076 C 
ATOM      9  C   LIG A   1      -7.730  -3.284 125.792  0.00  0.00    -0.027 C 
ATOM     10  C   LIG A   1      -8.749  -3.666 126.841  0.00  0.00    +0.031 C 
ATOM     11  C   LIG A   1      -8.297  -3.387 128.294  0.00  0.00    +0.034 C 
ATOM     12  C   LIG A   1      -7.830  -1.980 128.660  0.00  0.00    -0.076 C 
ATOM     13  C   LIG A   1      -8.181  -0.893 127.945  0.00  0.00    -0.027 C 
ATOM     14  C   LIG A   1      -7.624   0.511 128.037  0.00  0.00    +0.035 C 
ATOM     15  C   LIG A   1      -6.892  -1.953 129.839  0.00  0.00    +0.038 C 
ATOM     16  C   LIG A   1      -9.347  -3.135 123.866  0.00  0.00    +0.038 C 
ATOM     17  C   LIG A   1      -9.775   1.289 122.973  0.00  0.00    +0.038 C 
ENDROOT
BRANCH   1  18
ATOM     18  C   LIG A   1      -5.247   1.274 127.423  0.00  0.00    -0.076 C 
ATOM     19  C   LIG A   1      -4.836   1.135 128.694  0.00  0.00    +0.007 C 
ATOM     20  C   LIG A   1      -4.400   1.992 126.406  0.00  0.00    +0.038 C 
ENDBRANCH   1  18
TORSDOF 1
ENDMDL
MODEL 3
REMARK VINA RESULT:      -6.9      1.813      4.770
REMARK  Name = NuBBE_1943
REMARK  5 active torsions:
REMARK  status: ('A' for Active; 'I' for Inactive)
REMARK    1  A    between atoms: C_1  and  C_3
REMARK    2  A    between atoms: C_1  and  C_4
REMARK    3  A    between atoms: C_8  and  C_21
REMARK    4  A    between atoms: C_12  and  C_20
REMARK    5  A    between atoms: C_16  and  C_19
REMARK                            x       y       z     vdW  Elec       q    Type
REMARK                         _______ _______ _______ _____ _____    ______ ____
ROOT
ATOM      1  C   LIG A   1      -7.567  -1.165 125.488  0.00  0.00    +0.018 C 
ATOM      2  C   LIG A   1      -6.588  -0.090 124.942  0.00  0.00    +0.012 C 
ATOM      3  C   LIG A   1      -5.431   0.332 125.866  0.00  0.00    +0.030 C 
ATOM      4  C   LIG A   1      -5.370   1.739 126.441  0.00  0.00    -0.076 C 
ATOM      5  C   LIG A   1      -6.359   2.493 126.963  0.00  0.00    -0.027 C 
ATOM      6  C   LIG A   1      -7.815   2.186 127.165  0.00  0.00    +0.031 C 
ATOM      7  C   LIG A   1      -8.265   2.196 128.638  0.00  0.00    +0.034 C 
ATOM      8  C   LIG A   1      -7.605   1.145 129.515  0.00  0.00    -0.076 C 
ATOM      9  C   LIG A   1      -8.138  -0.089 129.635  0.00  0.00    -0.027 C 
ATOM     10  C   LIG A   1      -7.536  -1.252 130.390  0.00  0.00    +0.031 C 
ATOM     11  C   LIG A   1      -8.012  -2.640 129.900  0.00  0.00    +0.034 C 
ATOM     12  C   LIG A   1      -7.867  -2.985 128.420  0.00  0.00    -0.076 C 
ATOM     13  C   LIG A   1      -6.987  -2.358 127.614  0.00  0.00    -0.027 C 
ATOM     14  C   LIG A   1      -6.887  -2.420 126.105  0.00  0.00    +0.035 C 
ATOM     15  C   LIG A   1      -8.848  -4.029 127.954  0.00  0.00    +0.038 C 
ATOM     16  C   LIG A   1      -6.376   1.599 130.258  0.00  0.00    +0.038 C 
ATOM     17  C   LIG A   1      -3.957   2.286 126.485  0.00  0.00    +0.038 C 
ENDROOT
BRANCH   1  18
ATOM     18  C   LIG A   1      -8.592  -1.521 124.405  0.00  0.00    -0.076 C 
ATOM     19  C   LIG A   1      -9.024  -0.649 123.480  0.00  0.00    +0.007 C 
ATOM     20  C   LIG A   1      -9.104  -2.937 124.439  0.00  0.00    +0.038 C 
ENDBRANCH   1  18
TORSDOF 1
ENDMDL
MODEL 4
REMARK VINA RESULT:      -6.8      1.410      3.897
REMARK  Name = NuBBE_1943
REMARK  5 active torsions:
REMARK  status: ('A' for Active; 'I' for Inactive)
REMARK    1  A    between atoms: C_1  and  C_3
REMARK    2  A    between atoms: C_1  and  C_4
REMARK    3  A    between atoms: C_8  and  C_21
REMARK    4  A    between atoms: C_12  and  C_20
REMARK    5  A    between atoms: C_16  and  C_19
REMARK                            x       y       z     vdW  Elec       q    Type
REMARK                         _______ _______ _______ _____ _____    ______ ____
ROOT
ATOM      1  C   LIG A   1      -7.456   1.406 124.685  0.00  0.00    +0.018 C 
ATOM      2  C   LIG A   1      -7.810   0.295 123.659  0.00  0.00    +0.012 C 
ATOM      3  C   LIG A   1      -8.732  -0.836 124.147  0.00  0.00    +0.030 C 
ATOM      4  C   LIG A   1      -8.212  -2.260 124.283  0.00  0.00    -0.076 C 
ATOM      5  C   LIG A   1      -7.038  -2.697 124.783  0.00  0.00    -0.027 C 
ATOM      6  C   LIG A   1      -5.892  -1.937 125.382  0.00  0.00    +0.031 C 
ATOM      7  C   LIG A   1      -5.607  -2.279 126.857  0.00  0.00    +0.034 C 
ATOM      8  C   LIG A   1      -6.735  -1.942 127.819  0.00  0.00    -0.076 C 
ATOM      9  C   LIG A   1      -6.814  -0.723 128.392  0.00  0.00    -0.027 C 
ATOM     10  C   LIG A   1      -7.929  -0.227 129.284  0.00  0.00    +0.031 C 
ATOM     11  C   LIG A   1      -8.077   1.312 129.316  0.00  0.00    +0.034 C 
ATOM     12  C   LIG A   1      -8.237   2.062 127.995  0.00  0.00    -0.076 C 
ATOM     13  C   LIG A   1      -8.678   1.462 126.872  0.00  0.00    -0.027 C 
ATOM     14  C   LIG A   1      -8.670   1.998 125.457  0.00  0.00    +0.035 C 
ATOM     15  C   LIG A   1      -7.784   3.497 128.068  0.00  0.00    +0.038 C 
ATOM     16  C   LIG A   1      -7.693  -3.067 128.114  0.00  0.00    +0.038 C 
ATOM     17  C   LIG A   1      -9.236  -3.294 123.856  0.00  0.00    +0.038 C 
ENDROOT
BRANCH   1  18
ATOM     18  C   LIG A   1      -6.608   2.483 124.001  0.00  0.00    -0.076 C 
ATOM     19  C   LIG A   1      -5.777   3.304 124.663  0.00  0.00    +0.007 C 
ATOM     20  C   LIG A   1      -6.765   2.576 122.505  0.00  0.00    +0.038 C 
ENDBRANCH   1  18
TORSDOF 1
ENDMDL
MODEL 5
REMARK VINA RESULT:      -6.8      1.612      4.893
REMARK  Name = NuBBE_1943
REMARK  5 active torsions:
REMARK  status: ('A' for Active; 'I' for Inactive)
REMARK    1  A    between atoms: C_1  and  C_3
REMARK    2  A    between atoms: C_1  and  C_4
REMARK    3  A    between atoms: C_8  and  C_21
REMARK    4  A    between atoms: C_12  and  C_20
REMARK    5  A    between atoms: C_16  and  C_19
REMARK                            x       y       z     vdW  Elec       q    Type
REMARK                         _______ _______ _______ _____ _____    ______ ____
ROOT
ATOM      1  C   LIG A   1      -6.750  -1.588 127.643  0.00  0.00    +0.018 C 
ATOM      2  C   LIG A   1      -5.745  -2.631 127.083  0.00  0.00    +0.012 C 
ATOM      3  C   LIG A   1      -5.235  -2.407 125.647  0.00  0.00    +0.030 C 
ATOM      4  C   LIG A   1      -5.607  -3.371 124.531  0.00  0.00    -0.076 C 
ATOM      5  C   LIG A   1      -6.797  -3.947 124.259  0.00  0.00    -0.027 C 
ATOM      6  C   LIG A   1      -8.126  -3.806 124.942  0.00  0.00    +0.031 C 
ATOM      7  C   LIG A   1      -9.235  -3.214 124.053  0.00  0.00    +0.034 C 
ATOM      8  C   LIG A   1      -8.982  -1.792 123.578  0.00  0.00    -0.076 C 
ATOM      9  C   LIG A   1      -9.377  -0.735 124.319  0.00  0.00    -0.027 C 
ATOM     10  C   LIG A   1      -9.103   0.720 124.013  0.00  0.00    +0.031 C 
ATOM     11  C   LIG A   1      -9.134   1.644 125.254  0.00  0.00    +0.034 C 
ATOM     12  C   LIG A   1      -8.251   1.296 126.450  0.00  0.00    -0.076 C 
ATOM     13  C   LIG A   1      -7.161   0.513 126.340  0.00  0.00    -0.027 C 
ATOM     14  C   LIG A   1      -6.332  -0.103 127.447  0.00  0.00    +0.035 C 
ATOM     15  C   LIG A   1      -8.768   1.853 127.751  0.00  0.00    +0.038 C 
ATOM     16  C   LIG A   1      -8.326  -1.667 122.228  0.00  0.00    +0.038 C 
ATOM     17  C   LIG A   1      -4.460  -3.618 123.572  0.00  0.00    +0.038 C 
ENDROOT
BRANCH   1  18
ATOM     18  C   LIG A   1      -7.074  -1.923 129.103  0.00  0.00    -0.076 C 
ATOM     19  C   LIG A   1      -7.497  -1.013 129.995  0.00  0.00    +0.007 C 
ATOM     20  C   LIG A   1      -6.886  -3.366 129.493  0.00  0.00    +0.038 C 
ENDBRANCH   1  18
TORSDOF 1
ENDMDL
MODEL 6
REMARK VINA RESULT:      -6.4      7.588     11.192
REMARK  Name = NuBBE_1943
REMARK  5 active torsions:
REMARK  status: ('A' for Active; 'I' for Inactive)
REMARK    1  A    between atoms: C_1  and  C_3
REMARK    2  A    between atoms: C_1  and  C_4
REMARK    3  A    between atoms: C_8  and  C_21
REMARK    4  A    between atoms: C_12  and  C_20
REMARK    5  A    between atoms: C_16  and  C_19
REMARK                            x       y       z     vdW  Elec       q    Type
REMARK                         _______ _______ _______ _____ _____    ______ ____
ROOT
ATOM      1  C   LIG A   1      -5.926   5.841 135.220  0.00  0.00    +0.018 C 
ATOM      2  C   LIG A   1      -6.892   4.636 135.382  0.00  0.00    +0.012 C 
ATOM      3  C   LIG A   1      -6.927   3.611 134.233  0.00  0.00    +0.030 C 
ATOM      4  C   LIG A   1      -8.171   3.450 133.374  0.00  0.00    -0.076 C 
ATOM      5  C   LIG A   1      -8.981   4.396 132.854  0.00  0.00    -0.027 C 
ATOM      6  C   LIG A   1      -8.904   5.893 132.932  0.00  0.00    +0.031 C 
ATOM      7  C   LIG A   1      -8.724   6.590 131.571  0.00  0.00    +0.034 C 
ATOM      8  C   LIG A   1      -7.430   6.254 130.847  0.00  0.00    -0.076 C 
ATOM      9  C   LIG A   1      -6.309   6.973 131.066  0.00  0.00    -0.027 C 
ATOM     10  C   LIG A   1      -4.940   6.687 130.492  0.00  0.00    +0.031 C 
ATOM     11  C   LIG A   1      -3.771   7.265 131.325  0.00  0.00    +0.034 C 
ATOM     12  C   LIG A   1      -3.683   6.913 132.808  0.00  0.00    -0.076 C 
ATOM     13  C   LIG A   1      -4.281   5.824 133.329  0.00  0.00    -0.027 C 
ATOM     14  C   LIG A   1      -4.479   5.469 134.787  0.00  0.00    +0.035 C 
ATOM     15  C   LIG A   1      -2.931   7.937 133.618  0.00  0.00    +0.038 C 
ATOM     16  C   LIG A   1      -7.516   5.123 129.856  0.00  0.00    +0.038 C 
ATOM     17  C   LIG A   1      -8.443   2.003 133.013  0.00  0.00    +0.038 C 
ENDROOT
BRANCH   1  18
ATOM     18  C   LIG A   1      -5.961   6.699 136.489  0.00  0.00    -0.076 C 
ATOM     19  C   LIG A   1      -4.986   7.556 136.831  0.00  0.00    +0.007 C 
ATOM     20  C   LIG A   1      -7.180   6.522 137.356  0.00  0.00    +0.038 C 
ENDBRANCH   1  18
TORSDOF 1
ENDMDL
MODEL 7
REMARK VINA RESULT:      -6.4      2.383      4.909
REMARK  Name = NuBBE_1943
REMARK  5 active torsions:
REMARK  status: ('A' for Active; 'I' for Inactive)
REMARK    1  A    between atoms: C_1  and  C_3
REMARK    2  A    between atoms: C_1  and  C_4
REMARK    3  A    between atoms: C_8  and  C_21
REMARK    4  A    between atoms: C_12  and  C_20
REMARK    5  A    between atoms: C_16  and  C_19
REMARK                            x       y       z     vdW  Elec       q    Type
REMARK                         _______ _______ _______ _____ _____    ______ ____
ROOT
ATOM      1  C   LIG A   1      -8.376  -0.004 126.549  0.00  0.00    +0.018 C 
ATOM      2  C   LIG A   1      -8.126   0.574 127.969  0.00  0.00    +0.012 C 
ATOM      3  C   LIG A   1      -8.349   2.086 128.154  0.00  0.00    +0.030 C 
ATOM      4  C   LIG A   1      -7.181   3.012 128.457  0.00  0.00    -0.076 C 
ATOM      5  C   LIG A   1      -5.943   3.032 127.920  0.00  0.00    -0.027 C 
ATOM      6  C   LIG A   1      -5.334   2.178 126.846  0.00  0.00    +0.031 C 
ATOM      7  C   LIG A   1      -4.907   2.954 125.586  0.00  0.00    +0.034 C 
ATOM      8  C   LIG A   1      -6.045   3.626 124.834  0.00  0.00    -0.076 C 
ATOM      9  C   LIG A   1      -6.725   2.963 123.875  0.00  0.00    -0.027 C 
ATOM     10  C   LIG A   1      -7.933   3.475 123.123  0.00  0.00    +0.031 C 
ATOM     11  C   LIG A   1      -8.838   2.362 122.546  0.00  0.00    +0.034 C 
ATOM     12  C   LIG A   1      -9.362   1.280 123.487  0.00  0.00    -0.076 C 
ATOM     13  C   LIG A   1      -9.446   1.460 124.819  0.00  0.00    -0.027 C 
ATOM     14  C   LIG A   1      -9.718   0.426 125.891  0.00  0.00    +0.035 C 
ATOM     15  C   LIG A   1      -9.695  -0.010 122.782  0.00  0.00    +0.038 C 
ATOM     16  C   LIG A   1      -6.302   5.064 125.199  0.00  0.00    +0.038 C 
ATOM     17  C   LIG A   1      -7.545   4.098 129.451  0.00  0.00    +0.038 C 
ENDROOT
BRANCH   1  18
ATOM     18  C   LIG A   1      -8.192  -1.526 126.577  0.00  0.00    -0.076 C 
ATOM     19  C   LIG A   1      -7.176  -2.137 127.205  0.00  0.00    +0.007 C 
ATOM     20  C   LIG A   1      -9.239  -2.318 125.839  0.00  0.00    +0.038 C 
ENDBRANCH   1  18
TORSDOF 1
ENDMDL
MODEL 8
REMARK VINA RESULT:      -6.4      1.166      4.912
REMARK  Name = NuBBE_1943
REMARK  5 active torsions:
REMARK  status: ('A' for Active; 'I' for Inactive)
REMARK    1  A    between atoms: C_1  and  C_3
REMARK    2  A    between atoms: C_1  and  C_4
REMARK    3  A    between atoms: C_8  and  C_21
REMARK    4  A    between atoms: C_12  and  C_20
REMARK    5  A    between atoms: C_16  and  C_19
REMARK                            x       y       z     vdW  Elec       q    Type
REMARK                         _______ _______ _______ _____ _____    ______ ____
ROOT
ATOM      1  C   LIG A   1      -7.092  -1.749 127.697  0.00  0.00    +0.018 C 
ATOM      2  C   LIG A   1      -6.732  -2.793 126.604  0.00  0.00    +0.012 C 
ATOM      3  C   LIG A   1      -5.844  -2.308 125.443  0.00  0.00    +0.030 C 
ATOM      4  C   LIG A   1      -6.394  -2.220 124.028  0.00  0.00    -0.076 C 
ATOM      5  C   LIG A   1      -7.589  -1.762 123.601  0.00  0.00    -0.027 C 
ATOM      6  C   LIG A   1      -8.737  -1.174 124.370  0.00  0.00    +0.031 C 
ATOM      7  C   LIG A   1      -9.066   0.284 123.999  0.00  0.00    +0.034 C 
ATOM      8  C   LIG A   1      -7.958   1.283 124.290  0.00  0.00    -0.076 C 
ATOM      9  C   LIG A   1      -7.871   1.887 125.495  0.00  0.00    -0.027 C 
ATOM     10  C   LIG A   1      -6.771   2.820 125.947  0.00  0.00    +0.031 C 
ATOM     11  C   LIG A   1      -6.595   2.892 127.482  0.00  0.00    +0.034 C 
ATOM     12  C   LIG A   1      -6.386   1.594 128.259  0.00  0.00    -0.076 C 
ATOM     13  C   LIG A   1      -5.927   0.469 127.678  0.00  0.00    -0.027 C 
ATOM     14  C   LIG A   1      -5.888  -0.933 128.246  0.00  0.00    +0.035 C 
ATOM     15  C   LIG A   1      -6.814   1.690 129.701  0.00  0.00    +0.038 C 
ATOM     16  C   LIG A   1      -7.030   1.575 123.141  0.00  0.00    +0.038 C 
ATOM     17  C   LIG A   1      -5.379  -2.645 122.984  0.00  0.00    +0.038 C 
ENDROOT
BRANCH   1  18
ATOM     18  C   LIG A   1      -7.901  -2.430 128.807  0.00  0.00    -0.076 C 
ATOM     19  C   LIG A   1      -7.919  -2.001 130.078  0.00  0.00    +0.007 C 
ATOM     20  C   LIG A   1      -8.692  -3.639 128.382  0.00  0.00    +0.038 C 
ENDBRANCH   1  18
TORSDOF 1
ENDMDL
MODEL 9
REMARK VINA RESULT:      -6.3      4.334      7.708
REMARK  Name = NuBBE_1943
REMARK  5 active torsions:
REMARK  status: ('A' for Active; 'I' for Inactive)
REMARK    1  A    between atoms: C_1  and  C_3
REMARK    2  A    between atoms: C_1  and  C_4
REMARK    3  A    between atoms: C_8  and  C_21
REMARK    4  A    between atoms: C_12  and  C_20
REMARK    5  A    between atoms: C_16  and  C_19
REMARK                            x       y       z     vdW  Elec       q    Type
REMARK                         _______ _______ _______ _____ _____    ______ ____
ROOT
ATOM      1  C   LIG A   1      -5.808   4.876 130.336  0.00  0.00    +0.018 C 
ATOM      2  C   LIG A   1      -6.879   3.872 130.843  0.00  0.00    +0.012 C 
ATOM      3  C   LIG A   1      -6.620   2.379 130.568  0.00  0.00    +0.030 C 
ATOM      4  C   LIG A   1      -7.513   1.598 129.615  0.00  0.00    -0.076 C 
ATOM      5  C   LIG A   1      -8.011   1.964 128.416  0.00  0.00    -0.027 C 
ATOM      6  C   LIG A   1      -7.828   3.230 127.631  0.00  0.00    +0.031 C 
ATOM      7  C   LIG A   1      -7.139   3.036 126.268  0.00  0.00    +0.034 C 
ATOM      8  C   LIG A   1      -5.714   2.512 126.341  0.00  0.00    -0.076 C 
ATOM      9  C   LIG A   1      -4.670   3.361 126.451  0.00  0.00    -0.027 C 
ATOM     10  C   LIG A   1      -3.220   2.973 126.631  0.00  0.00    +0.031 C 
ATOM     11  C   LIG A   1      -2.351   4.066 127.298  0.00  0.00    +0.034 C 
ATOM     12  C   LIG A   1      -2.797   4.642 128.639  0.00  0.00    -0.076 C 
ATOM     13  C   LIG A   1      -3.633   3.984 129.466  0.00  0.00    -0.027 C 
ATOM     14  C   LIG A   1      -4.340   4.509 130.697  0.00  0.00    +0.035 C 
ATOM     15  C   LIG A   1      -2.270   6.031 128.894  0.00  0.00    +0.038 C 
ATOM     16  C   LIG A   1      -5.566   1.017 126.229  0.00  0.00    +0.038 C 
ATOM     17  C   LIG A   1      -7.780   0.186 130.097  0.00  0.00    +0.038 C 
ENDROOT
BRANCH   1  18
ATOM     18  C   LIG A   1      -6.188   6.294 130.775  0.00  0.00    -0.076 C 
ATOM     19  C   LIG A   1      -7.429   6.647 131.147  0.00  0.00    +0.007 C 
ATOM     20  C   LIG A   1      -5.064   7.297 130.765  0.00  0.00    +0.038 C 
ENDBRANCH   1  18
TORSDOF 1
ENDMDL
