MODEL 1
REMARK VINA RESULT:      -6.6      0.000      0.000
REMARK  Name = NuBBE_1075
REMARK  6 active torsions:
REMARK  status: ('A' for Active; 'I' for Inactive)
REMARK    1  A    between atoms: C_1  and  N_2
REMARK    2  A    between atoms: C_7  and  O_8
REMARK    3  A    between atoms: C_10  and  O_11
REMARK    4  A    between atoms: C_12  and  O_13
REMARK    5  A    between atoms: O_13  and  C_14
REMARK    6  A    between atoms: C_20  and  O_21
REMARK                            x       y       z     vdW  Elec       q    Type
REMARK                         _______ _______ _______ _____ _____    ______ ____
ROOT
ATOM      1  C   LIG A   1      -8.509   1.547 128.032  0.00  0.00    +0.149 C 
ATOM      2  N   LIG A   1      -7.983   0.591 127.031  0.00  0.00    -0.337 N 
ATOM      3  C   LIG A   1      -8.381   0.913 125.694  0.00  0.00    +0.102 A 
ATOM      4  C   LIG A   1      -8.953  -0.090 124.886  0.00  0.00    +0.091 A 
ATOM      5  C   LIG A   1      -9.119  -1.453 125.440  0.00  0.00    +0.201 A 
ATOM      6  O   LIG A   1      -9.716  -2.308 124.787  0.00  0.00    -0.286 OA
ATOM      7  C   LIG A   1      -9.368   0.191 123.578  0.00  0.00    +0.133 A 
ATOM      8  C   LIG A   1      -9.188   1.456 123.037  0.00  0.00    +0.095 A 
ATOM      9  C   LIG A   1      -8.588   2.453 123.804  0.00  0.00    +0.164 A 
ATOM     10  C   LIG A   1      -8.196   2.206 125.132  0.00  0.00    +0.186 A 
ATOM     11  C   LIG A   1      -7.941  -0.748 127.495  0.00  0.00    +0.095 A 
ATOM     12  C   LIG A   1      -8.528  -1.779 126.751  0.00  0.00    +0.050 A 
ATOM     13  C   LIG A   1      -8.550  -3.100 127.222  0.00  0.00    +0.014 A 
ATOM     14  C   LIG A   1      -7.947  -3.415 128.439  0.00  0.00    +0.004 A 
ATOM     15  C   LIG A   1      -7.298  -2.419 129.165  0.00  0.00    +0.047 A 
ATOM     16  C   LIG A   1      -7.279  -1.113 128.680  0.00  0.00    +0.141 A 
ENDROOT
BRANCH   7  17
ATOM     17  O   LIG A   1      -9.954  -0.739 122.759  0.00  0.00    -0.506 OA
ATOM     18  H   LIG A   1      -9.489  -0.708 121.891  0.00  0.00    +0.292 HD
ENDBRANCH   7  17
BRANCH   9  19
ATOM     19  O   LIG A   1      -8.362   3.671 123.219  0.00  0.00    -0.503 OA
ATOM     20  H   LIG A   1      -7.948   4.265 123.868  0.00  0.00    +0.292 HD
ENDBRANCH   9  19
BRANCH  10  21
ATOM     21  O   LIG A   1      -7.537   3.120 125.923  0.00  0.00    -0.489 OA
ATOM     22  C   LIG A   1      -6.139   3.262 125.694  0.00  0.00    +0.277 C 
ENDBRANCH  10  21
BRANCH  16  23
ATOM     23  O   LIG A   1      -6.524  -0.203 129.372  0.00  0.00    -0.505 OA
ATOM     24  H   LIG A   1      -5.848  -0.731 129.839  0.00  0.00    +0.292 HD
ENDBRANCH  16  23
TORSDOF 4
ENDMDL
MODEL 2
REMARK VINA RESULT:      -6.4      1.702      3.780
REMARK  Name = NuBBE_1075
REMARK  6 active torsions:
REMARK  status: ('A' for Active; 'I' for Inactive)
REMARK    1  A    between atoms: C_1  and  N_2
REMARK    2  A    between atoms: C_7  and  O_8
REMARK    3  A    between atoms: C_10  and  O_11
REMARK    4  A    between atoms: C_12  and  O_13
REMARK    5  A    between atoms: O_13  and  C_14
REMARK    6  A    between atoms: C_20  and  O_21
REMARK                            x       y       z     vdW  Elec       q    Type
REMARK                         _______ _______ _______ _____ _____    ______ ____
ROOT
ATOM      1  C   LIG A   1      -7.920  -1.659 123.958  0.00  0.00    +0.149 C 
ATOM      2  N   LIG A   1      -7.965  -0.990 125.278  0.00  0.00    -0.337 N 
ATOM      3  C   LIG A   1      -7.137   0.176 125.338  0.00  0.00    +0.102 A 
ATOM      4  C   LIG A   1      -6.229   0.321 126.407  0.00  0.00    +0.091 A 
ATOM      5  C   LIG A   1      -6.164  -0.733 127.444  0.00  0.00    +0.201 A 
ATOM      6  O   LIG A   1      -5.302  -0.675 128.320  0.00  0.00    -0.286 OA
ATOM      7  C   LIG A   1      -5.391   1.440 126.491  0.00  0.00    +0.133 A 
ATOM      8  C   LIG A   1      -5.465   2.450 125.542  0.00  0.00    +0.095 A 
ATOM      9  C   LIG A   1      -6.383   2.348 124.498  0.00  0.00    +0.164 A 
ATOM     10  C   LIG A   1      -7.209   1.216 124.371  0.00  0.00    +0.186 A 
ATOM     11  C   LIG A   1      -8.063  -1.893 126.367  0.00  0.00    +0.095 A 
ATOM     12  C   LIG A   1      -7.162  -1.819 127.437  0.00  0.00    +0.050 A 
ATOM     13  C   LIG A   1      -7.204  -2.740 128.493  0.00  0.00    +0.014 A 
ATOM     14  C   LIG A   1      -8.180  -3.735 128.510  0.00  0.00    +0.004 A 
ATOM     15  C   LIG A   1      -9.129  -3.788 127.491  0.00  0.00    +0.047 A 
ATOM     16  C   LIG A   1      -9.078  -2.861 126.452  0.00  0.00    +0.141 A 
ENDROOT
BRANCH   7  17
ATOM     17  O   LIG A   1      -4.473   1.619 127.492  0.00  0.00    -0.506 OA
ATOM     18  H   LIG A   1      -4.053   2.500 127.360  0.00  0.00    +0.292 HD
ENDBRANCH   7  17
BRANCH   9  19
ATOM     19  O   LIG A   1      -6.481   3.392 123.617  0.00  0.00    -0.503 OA
ATOM     20  H   LIG A   1      -7.326   3.330 123.142  0.00  0.00    +0.292 HD
ENDBRANCH   9  19
BRANCH  10  21
ATOM     21  O   LIG A   1      -8.184   1.079 123.408  0.00  0.00    -0.489 OA
ATOM     22  C   LIG A   1      -9.398   1.789 123.632  0.00  0.00    +0.277 C 
ENDBRANCH  10  21
BRANCH  16  23
ATOM     23  O   LIG A   1     -10.105  -2.884 125.546  0.00  0.00    -0.505 OA
ATOM     24  H   LIG A   1     -10.632  -3.674 125.773  0.00  0.00    +0.292 HD
ENDBRANCH  16  23
TORSDOF 4
ENDMDL
MODEL 3
REMARK VINA RESULT:      -6.3      2.180      4.858
REMARK  Name = NuBBE_1075
REMARK  6 active torsions:
REMARK  status: ('A' for Active; 'I' for Inactive)
REMARK    1  A    between atoms: C_1  and  N_2
REMARK    2  A    between atoms: C_7  and  O_8
REMARK    3  A    between atoms: C_10  and  O_11
REMARK    4  A    between atoms: C_12  and  O_13
REMARK    5  A    between atoms: O_13  and  C_14
REMARK    6  A    between atoms: C_20  and  O_21
REMARK                            x       y       z     vdW  Elec       q    Type
REMARK                         _______ _______ _______ _____ _____    ______ ____
ROOT
ATOM      1  C   LIG A   1      -5.678  -0.482 125.099  0.00  0.00    +0.149 C 
ATOM      2  N   LIG A   1      -6.365   0.806 125.349  0.00  0.00    -0.337 N 
ATOM      3  C   LIG A   1      -7.378   1.091 124.379  0.00  0.00    +0.102 A 
ATOM      4  C   LIG A   1      -7.386   2.349 123.743  0.00  0.00    +0.091 A 
ATOM      5  C   LIG A   1      -6.352   3.345 124.103  0.00  0.00    +0.201 A 
ATOM      6  O   LIG A   1      -6.280   4.403 123.480  0.00  0.00    -0.286 OA
ATOM      7  C   LIG A   1      -8.353   2.660 122.777  0.00  0.00    +0.133 A 
ATOM      8  C   LIG A   1      -9.346   1.746 122.454  0.00  0.00    +0.095 A 
ATOM      9  C   LIG A   1      -9.382   0.511 123.098  0.00  0.00    +0.164 A 
ATOM     10  C   LIG A   1      -8.401   0.162 124.045  0.00  0.00    +0.186 A 
ATOM     11  C   LIG A   1      -5.508   1.816 125.852  0.00  0.00    +0.095 A 
ATOM     12  C   LIG A   1      -5.447   3.072 125.236  0.00  0.00    +0.050 A 
ATOM     13  C   LIG A   1      -4.563   4.064 125.681  0.00  0.00    +0.014 A 
ATOM     14  C   LIG A   1      -3.743   3.822 126.783  0.00  0.00    +0.004 A 
ATOM     15  C   LIG A   1      -3.834   2.605 127.455  0.00  0.00    +0.047 A 
ATOM     16  C   LIG A   1      -4.723   1.632 127.004  0.00  0.00    +0.141 A 
ENDROOT
BRANCH   7  17
ATOM     17  O   LIG A   1      -8.391   3.856 122.110  0.00  0.00    -0.506 OA
ATOM     18  H   LIG A   1      -9.326   4.167 122.107  0.00  0.00    +0.292 HD
ENDBRANCH   7  17
BRANCH   9  19
ATOM     19  O   LIG A   1     -10.415  -0.341 122.808  0.00  0.00    -0.503 OA
ATOM     20  H   LIG A   1     -10.267  -1.187 123.264  0.00  0.00    +0.292 HD
ENDBRANCH   9  19
BRANCH  10  21
ATOM     21  O   LIG A   1      -8.414  -1.009 124.769  0.00  0.00    -0.489 OA
ATOM     22  C   LIG A   1      -9.227  -1.022 125.938  0.00  0.00    +0.277 C 
ENDBRANCH  10  21
BRANCH  16  23
ATOM     23  O   LIG A   1      -4.857   0.507 127.773  0.00  0.00    -0.505 OA
ATOM     24  H   LIG A   1      -3.971   0.096 127.787  0.00  0.00    +0.292 HD
ENDBRANCH  16  23
TORSDOF 4
ENDMDL
MODEL 4
REMARK VINA RESULT:      -6.2      1.664      5.516
REMARK  Name = NuBBE_1075
REMARK  6 active torsions:
REMARK  status: ('A' for Active; 'I' for Inactive)
REMARK    1  A    between atoms: C_1  and  N_2
REMARK    2  A    between atoms: C_7  and  O_8
REMARK    3  A    between atoms: C_10  and  O_11
REMARK    4  A    between atoms: C_12  and  O_13
REMARK    5  A    between atoms: O_13  and  C_14
REMARK    6  A    between atoms: C_20  and  O_21
REMARK                            x       y       z     vdW  Elec       q    Type
REMARK                         _______ _______ _______ _____ _____    ______ ____
ROOT
ATOM      1  C   LIG A   1      -9.079   2.251 124.705  0.00  0.00    +0.149 C 
ATOM      2  N   LIG A   1      -7.816   1.478 124.736  0.00  0.00    -0.337 N 
ATOM      3  C   LIG A   1      -7.967   0.193 125.349  0.00  0.00    +0.102 A 
ATOM      4  C   LIG A   1      -7.068  -0.196 126.362  0.00  0.00    +0.091 A 
ATOM      5  C   LIG A   1      -5.985   0.733 126.759  0.00  0.00    +0.201 A 
ATOM      6  O   LIG A   1      -5.262   0.454 127.715  0.00  0.00    -0.286 OA
ATOM      7  C   LIG A   1      -7.193  -1.439 126.996  0.00  0.00    +0.133 A 
ATOM      8  C   LIG A   1      -8.184  -2.330 126.610  0.00  0.00    +0.095 A 
ATOM      9  C   LIG A   1      -9.060  -1.984 125.583  0.00  0.00    +0.164 A 
ATOM     10  C   LIG A   1      -8.978  -0.727 124.956  0.00  0.00    +0.186 A 
ATOM     11  C   LIG A   1      -6.667   2.279 124.956  0.00  0.00    +0.095 A 
ATOM     12  C   LIG A   1      -5.761   1.961 125.975  0.00  0.00    +0.050 A 
ATOM     13  C   LIG A   1      -4.652   2.774 126.247  0.00  0.00    +0.014 A 
ATOM     14  C   LIG A   1      -4.414   3.909 125.472  0.00  0.00    +0.004 A 
ATOM     15  C   LIG A   1      -5.263   4.209 124.410  0.00  0.00    +0.047 A 
ATOM     16  C   LIG A   1      -6.357   3.387 124.148  0.00  0.00    +0.141 A 
ENDROOT
BRANCH   7  17
ATOM     17  O   LIG A   1      -6.364  -1.856 128.003  0.00  0.00    -0.506 OA
ATOM     18  H   LIG A   1      -5.948  -2.702 127.718  0.00  0.00    +0.292 HD
ENDBRANCH   7  17
BRANCH   9  19
ATOM     19  O   LIG A   1      -9.983  -2.912 125.178  0.00  0.00    -0.503 OA
ATOM     20  H   LIG A   1      -9.593  -3.800 125.247  0.00  0.00    +0.292 HD
ENDBRANCH   9  19
BRANCH  10  21
ATOM     21  O   LIG A   1      -9.762  -0.345 123.892  0.00  0.00    -0.489 OA
ATOM     22  C   LIG A   1      -9.389  -0.855 122.615  0.00  0.00    +0.277 C 
ENDBRANCH  10  21
BRANCH  16  23
ATOM     23  O   LIG A   1      -7.085   3.660 123.021  0.00  0.00    -0.505 OA
ATOM     24  H   LIG A   1      -7.999   3.807 123.332  0.00  0.00    +0.292 HD
ENDBRANCH  16  23
TORSDOF 4
ENDMDL
MODEL 5
REMARK VINA RESULT:      -6.1      1.399      5.042
REMARK  Name = NuBBE_1075
REMARK  6 active torsions:
REMARK  status: ('A' for Active; 'I' for Inactive)
REMARK    1  A    between atoms: C_1  and  N_2
REMARK    2  A    between atoms: C_7  and  O_8
REMARK    3  A    between atoms: C_10  and  O_11
REMARK    4  A    between atoms: C_12  and  O_13
REMARK    5  A    between atoms: O_13  and  C_14
REMARK    6  A    between atoms: C_20  and  O_21
REMARK                            x       y       z     vdW  Elec       q    Type
REMARK                         _______ _______ _______ _____ _____    ______ ____
ROOT
ATOM      1  C   LIG A   1      -5.717   0.438 126.324  0.00  0.00    +0.149 C 
ATOM      2  N   LIG A   1      -7.184   0.421 126.129  0.00  0.00    -0.337 N 
ATOM      3  C   LIG A   1      -7.755  -0.877 126.326  0.00  0.00    +0.102 A 
ATOM      4  C   LIG A   1      -8.618  -1.406 125.345  0.00  0.00    +0.091 A 
ATOM      5  C   LIG A   1      -8.919  -0.599 124.141  0.00  0.00    +0.201 A 
ATOM      6  O   LIG A   1      -9.580  -1.090 123.227  0.00  0.00    -0.286 OA
ATOM      7  C   LIG A   1      -9.184  -2.678 125.496  0.00  0.00    +0.133 A 
ATOM      8  C   LIG A   1      -8.935  -3.430 126.636  0.00  0.00    +0.095 A 
ATOM      9  C   LIG A   1      -8.117  -2.912 127.638  0.00  0.00    +0.164 A 
ATOM     10  C   LIG A   1      -7.508  -1.652 127.493  0.00  0.00    +0.186 A 
ATOM     11  C   LIG A   1      -7.628   1.281 125.094  0.00  0.00    +0.095 A 
ATOM     12  C   LIG A   1      -8.455   0.799 124.071  0.00  0.00    +0.050 A 
ATOM     13  C   LIG A   1      -8.855   1.619 123.006  0.00  0.00    +0.014 A 
ATOM     14  C   LIG A   1      -8.457   2.954 122.969  0.00  0.00    +0.004 A 
ATOM     15  C   LIG A   1      -7.690   3.475 124.008  0.00  0.00    +0.047 A 
ATOM     16  C   LIG A   1      -7.306   2.649 125.063  0.00  0.00    +0.141 A 
ENDROOT
BRANCH   7  17
ATOM     17  O   LIG A   1     -10.007  -3.250 124.562  0.00  0.00    -0.506 OA
ATOM     18  H   LIG A   1     -10.085  -2.623 123.807  0.00  0.00    +0.292 HD
ENDBRANCH   7  17
BRANCH   9  19
ATOM     19  O   LIG A   1      -7.947  -3.648 128.780  0.00  0.00    -0.503 OA
ATOM     20  H   LIG A   1      -8.511  -3.283 129.482  0.00  0.00    +0.292 HD
ENDBRANCH   9  19
BRANCH  10  21
ATOM     21  O   LIG A   1      -6.746  -1.050 128.468  0.00  0.00    -0.489 OA
ATOM     22  C   LIG A   1      -7.458  -0.415 129.526  0.00  0.00    +0.277 C 
ENDBRANCH  10  21
BRANCH  16  23
ATOM     23  O   LIG A   1      -6.659   3.242 126.114  0.00  0.00    -0.505 OA
ATOM     24  H   LIG A   1      -6.806   2.649 126.877  0.00  0.00    +0.292 HD
ENDBRANCH  16  23
TORSDOF 4
ENDMDL
MODEL 6
REMARK VINA RESULT:      -6.0      2.061      4.873
REMARK  Name = NuBBE_1075
REMARK  6 active torsions:
REMARK  status: ('A' for Active; 'I' for Inactive)
REMARK    1  A    between atoms: C_1  and  N_2
REMARK    2  A    between atoms: C_7  and  O_8
REMARK    3  A    between atoms: C_10  and  O_11
REMARK    4  A    between atoms: C_12  and  O_13
REMARK    5  A    between atoms: O_13  and  C_14
REMARK    6  A    between atoms: C_20  and  O_21
REMARK                            x       y       z     vdW  Elec       q    Type
REMARK                         _______ _______ _______ _____ _____    ______ ____
ROOT
ATOM      1  C   LIG A   1      -6.234   0.171 125.478  0.00  0.00    +0.149 C 
ATOM      2  N   LIG A   1      -7.512  -0.355 126.009  0.00  0.00    -0.337 N 
ATOM      3  C   LIG A   1      -7.472  -0.585 127.422  0.00  0.00    +0.102 A 
ATOM      4  C   LIG A   1      -7.897  -1.830 127.928  0.00  0.00    +0.091 A 
ATOM      5  C   LIG A   1      -8.383  -2.863 126.985  0.00  0.00    +0.201 A 
ATOM      6  O   LIG A   1      -8.652  -3.989 127.400  0.00  0.00    -0.286 OA
ATOM      7  C   LIG A   1      -7.859  -2.098 129.303  0.00  0.00    +0.133 A 
ATOM      8  C   LIG A   1      -7.436  -1.126 130.199  0.00  0.00    +0.095 A 
ATOM      9  C   LIG A   1      -7.049   0.126 129.725  0.00  0.00    +0.164 A 
ATOM     10  C   LIG A   1      -7.044   0.407 128.347  0.00  0.00    +0.186 A 
ATOM     11  C   LIG A   1      -8.168  -1.248 125.126  0.00  0.00    +0.095 A 
ATOM     12  C   LIG A   1      -8.577  -2.514 125.566  0.00  0.00    +0.050 A 
ATOM     13  C   LIG A   1      -9.172  -3.434 124.692  0.00  0.00    +0.014 A 
ATOM     14  C   LIG A   1      -9.400  -3.084 123.362  0.00  0.00    +0.004 A 
ATOM     15  C   LIG A   1      -9.064  -1.808 122.918  0.00  0.00    +0.047 A 
ATOM     16  C   LIG A   1      -8.479  -0.902 123.800  0.00  0.00    +0.141 A 
ENDROOT
BRANCH   7  17
ATOM     17  O   LIG A   1      -8.234  -3.298 129.846  0.00  0.00    -0.506 OA
ATOM     18  H   LIG A   1      -7.735  -3.416 130.686  0.00  0.00    +0.292 HD
ENDBRANCH   7  17
BRANCH   9  19
ATOM     19  O   LIG A   1      -6.703   1.086 130.640  0.00  0.00    -0.503 OA
ATOM     20  H   LIG A   1      -5.947   0.770 131.163  0.00  0.00    +0.292 HD
ENDBRANCH   9  19
BRANCH  10  21
ATOM     21  O   LIG A   1      -6.741   1.639 127.814  0.00  0.00    -0.489 OA
ATOM     22  C   LIG A   1      -7.777   2.616 127.849  0.00  0.00    +0.277 C 
ENDBRANCH  10  21
BRANCH  16  23
ATOM     23  O   LIG A   1      -8.283   0.374 123.343  0.00  0.00    -0.505 OA
ATOM     24  H   LIG A   1      -9.173   0.774 123.301  0.00  0.00    +0.292 HD
ENDBRANCH  16  23
TORSDOF 4
ENDMDL
MODEL 7
REMARK VINA RESULT:      -5.9      2.176      4.407
REMARK  Name = NuBBE_1075
REMARK  6 active torsions:
REMARK  status: ('A' for Active; 'I' for Inactive)
REMARK    1  A    between atoms: C_1  and  N_2
REMARK    2  A    between atoms: C_7  and  O_8
REMARK    3  A    between atoms: C_10  and  O_11
REMARK    4  A    between atoms: C_12  and  O_13
REMARK    5  A    between atoms: O_13  and  C_14
REMARK    6  A    between atoms: C_20  and  O_21
REMARK                            x       y       z     vdW  Elec       q    Type
REMARK                         _______ _______ _______ _____ _____    ______ ____
ROOT
ATOM      1  C   LIG A   1      -7.129   0.775 122.970  0.00  0.00    +0.149 C 
ATOM      2  N   LIG A   1      -7.533   0.284 124.308  0.00  0.00    -0.337 N 
ATOM      3  C   LIG A   1      -6.718   0.809 125.361  0.00  0.00    +0.102 A 
ATOM      4  C   LIG A   1      -6.156  -0.076 126.303  0.00  0.00    +0.091 A 
ATOM      5  C   LIG A   1      -6.433  -1.526 126.183  0.00  0.00    +0.201 A 
ATOM      6  O   LIG A   1      -5.862  -2.320 126.929  0.00  0.00    -0.286 OA
ATOM      7  C   LIG A   1      -5.340   0.398 127.338  0.00  0.00    +0.133 A 
ATOM      8  C   LIG A   1      -5.100   1.758 127.480  0.00  0.00    +0.095 A 
ATOM      9  C   LIG A   1      -5.677   2.656 126.584  0.00  0.00    +0.164 A 
ATOM     10  C   LIG A   1      -6.469   2.201 125.514  0.00  0.00    +0.186 A 
ATOM     11  C   LIG A   1      -7.975  -1.062 124.307  0.00  0.00    +0.095 A 
ATOM     12  C   LIG A   1      -7.423  -1.994 125.195  0.00  0.00    +0.050 A 
ATOM     13  C   LIG A   1      -7.803  -3.344 125.170  0.00  0.00    +0.014 A 
ATOM     14  C   LIG A   1      -8.776  -3.775 124.269  0.00  0.00    +0.004 A 
ATOM     15  C   LIG A   1      -9.388  -2.855 123.422  0.00  0.00    +0.047 A 
ATOM     16  C   LIG A   1      -9.004  -1.516 123.464  0.00  0.00    +0.141 A 
ENDROOT
BRANCH   7  17
ATOM     17  O   LIG A   1      -4.749  -0.419 128.264  0.00  0.00    -0.506 OA
ATOM     18  H   LIG A   1      -5.458  -0.961 128.682  0.00  0.00    +0.292 HD
ENDBRANCH   7  17
BRANCH   9  19
ATOM     19  O   LIG A   1      -5.477   3.996 126.791  0.00  0.00    -0.503 OA
ATOM     20  H   LIG A   1      -6.120   4.499 126.263  0.00  0.00    +0.292 HD
ENDBRANCH   9  19
BRANCH  10  21
ATOM     21  O   LIG A   1      -7.125   3.033 124.635  0.00  0.00    -0.489 OA
ATOM     22  C   LIG A   1      -8.340   3.613 125.099  0.00  0.00    +0.277 C 
ENDBRANCH  10  21
BRANCH  16  23
ATOM     23  O   LIG A   1      -9.723  -0.638 122.698  0.00  0.00    -0.505 OA
ATOM     24  H   LIG A   1      -9.433  -0.798 121.779  0.00  0.00    +0.292 HD
ENDBRANCH  16  23
TORSDOF 4
ENDMDL
MODEL 8
REMARK VINA RESULT:      -5.9      1.527      3.782
REMARK  Name = NuBBE_1075
REMARK  6 active torsions:
REMARK  status: ('A' for Active; 'I' for Inactive)
REMARK    1  A    between atoms: C_1  and  N_2
REMARK    2  A    between atoms: C_7  and  O_8
REMARK    3  A    between atoms: C_10  and  O_11
REMARK    4  A    between atoms: C_12  and  O_13
REMARK    5  A    between atoms: O_13  and  C_14
REMARK    6  A    between atoms: C_20  and  O_21
REMARK                            x       y       z     vdW  Elec       q    Type
REMARK                         _______ _______ _______ _____ _____    ______ ____
ROOT
ATOM      1  C   LIG A   1      -7.632   0.176 123.468  0.00  0.00    +0.149 C 
ATOM      2  N   LIG A   1      -8.401   0.248 124.731  0.00  0.00    -0.337 N 
ATOM      3  C   LIG A   1      -8.170   1.463 125.452  0.00  0.00    +0.102 A 
ATOM      4  C   LIG A   1      -7.836   1.400 126.820  0.00  0.00    +0.091 A 
ATOM      5  C   LIG A   1      -7.743   0.076 127.477  0.00  0.00    +0.201 A 
ATOM      6  O   LIG A   1      -7.346  -0.001 128.639  0.00  0.00    -0.286 OA
ATOM      7  C   LIG A   1      -7.588   2.566 127.554  0.00  0.00    +0.133 A 
ATOM      8  C   LIG A   1      -7.705   3.814 126.957  0.00  0.00    +0.095 A 
ATOM      9  C   LIG A   1      -8.072   3.904 125.616  0.00  0.00    +0.164 A 
ATOM     10  C   LIG A   1      -8.291   2.746 124.848  0.00  0.00    +0.186 A 
ATOM     11  C   LIG A   1      -8.522  -0.999 125.392  0.00  0.00    +0.095 A 
ATOM     12  C   LIG A   1      -8.167  -1.129 126.741  0.00  0.00    +0.050 A 
ATOM     13  C   LIG A   1      -8.223  -2.367 127.397  0.00  0.00    +0.014 A 
ATOM     14  C   LIG A   1      -8.673  -3.496 126.713  0.00  0.00    +0.004 A 
ATOM     15  C   LIG A   1      -9.095  -3.380 125.391  0.00  0.00    +0.047 A 
ATOM     16  C   LIG A   1      -9.040  -2.141 124.756  0.00  0.00    +0.141 A 
ENDROOT
BRANCH   7  17
ATOM     17  O   LIG A   1      -7.235   2.561 128.878  0.00  0.00    -0.506 OA
ATOM     18  H   LIG A   1      -6.623   1.802 129.021  0.00  0.00    +0.292 HD
ENDBRANCH   7  17
BRANCH   9  19
ATOM     19  O   LIG A   1      -8.246   5.150 125.074  0.00  0.00    -0.503 OA
ATOM     20  H   LIG A   1      -8.183   5.088 124.106  0.00  0.00    +0.292 HD
ENDBRANCH   9  19
BRANCH  10  21
ATOM     21  O   LIG A   1      -8.722   2.759 123.540  0.00  0.00    -0.489 OA
ATOM     22  C   LIG A   1      -7.787   3.221 122.571  0.00  0.00    +0.277 C 
ENDBRANCH  10  21
BRANCH  16  23
ATOM     23  O   LIG A   1      -9.581  -2.060 123.500  0.00  0.00    -0.505 OA
ATOM     24  H   LIG A   1     -10.546  -2.005 123.637  0.00  0.00    +0.292 HD
ENDBRANCH  16  23
TORSDOF 4
ENDMDL
MODEL 9
REMARK VINA RESULT:      -5.8      1.250      5.021
REMARK  Name = NuBBE_1075
REMARK  6 active torsions:
REMARK  status: ('A' for Active; 'I' for Inactive)
REMARK    1  A    between atoms: C_1  and  N_2
REMARK    2  A    between atoms: C_7  and  O_8
REMARK    3  A    between atoms: C_10  and  O_11
REMARK    4  A    between atoms: C_12  and  O_13
REMARK    5  A    between atoms: O_13  and  C_14
REMARK    6  A    between atoms: C_20  and  O_21
REMARK                            x       y       z     vdW  Elec       q    Type
REMARK                         _______ _______ _______ _____ _____    ______ ____
ROOT
ATOM      1  C   LIG A   1      -6.908   1.905 126.294  0.00  0.00    +0.149 C 
ATOM      2  N   LIG A   1      -8.118   1.053 126.272  0.00  0.00    -0.337 N 
ATOM      3  C   LIG A   1      -8.010  -0.088 127.130  0.00  0.00    +0.102 A 
ATOM      4  C   LIG A   1      -8.312  -1.366 126.619  0.00  0.00    +0.091 A 
ATOM      5  C   LIG A   1      -8.744  -1.493 125.208  0.00  0.00    +0.201 A 
ATOM      6  O   LIG A   1      -8.905  -2.610 124.718  0.00  0.00    -0.286 OA
ATOM      7  C   LIG A   1      -8.203  -2.507 127.424  0.00  0.00    +0.133 A 
ATOM      8  C   LIG A   1      -7.830  -2.397 128.756  0.00  0.00    +0.095 A 
ATOM      9  C   LIG A   1      -7.564  -1.140 129.296  0.00  0.00    +0.164 A 
ATOM     10  C   LIG A   1      -7.632   0.017 128.498  0.00  0.00    +0.186 A 
ATOM     11  C   LIG A   1      -8.729   0.970 124.996  0.00  0.00    +0.095 A 
ATOM     12  C   LIG A   1      -9.017  -0.275 124.422  0.00  0.00    +0.050 A 
ATOM     13  C   LIG A   1      -9.565  -0.379 123.136  0.00  0.00    +0.014 A 
ATOM     14  C   LIG A   1      -9.868   0.774 122.414  0.00  0.00    +0.004 A 
ATOM     15  C   LIG A   1      -9.654   2.024 122.989  0.00  0.00    +0.047 A 
ATOM     16  C   LIG A   1      -9.115   2.110 124.271  0.00  0.00    +0.141 A 
ENDROOT
BRANCH   7  17
ATOM     17  O   LIG A   1      -8.459  -3.774 126.971  0.00  0.00    -0.506 OA
ATOM     18  H   LIG A   1      -9.127  -3.705 126.250  0.00  0.00    +0.292 HD
ENDBRANCH   7  17
BRANCH   9  19
ATOM     19  O   LIG A   1      -7.267  -1.057 130.630  0.00  0.00    -0.503 OA
ATOM     20  H   LIG A   1      -8.054  -0.755 131.114  0.00  0.00    +0.292 HD
ENDBRANCH   9  19
BRANCH  10  21
ATOM     21  O   LIG A   1      -7.450   1.295 128.978  0.00  0.00    -0.489 OA
ATOM     22  C   LIG A   1      -8.563   1.884 129.643  0.00  0.00    +0.277 C 
ENDBRANCH  10  21
BRANCH  16  23
ATOM     23  O   LIG A   1      -9.041   3.358 124.832  0.00  0.00    -0.505 OA
ATOM     24  H   LIG A   1      -9.536   3.943 124.227  0.00  0.00    +0.292 HD
ENDBRANCH  16  23
TORSDOF 4
ENDMDL
