MODEL 1
REMARK VINA RESULT:      -9.1      0.000      0.000
REMARK  Name = NuBBE_1158
REMARK  6 active torsions:
REMARK  status: ('A' for Active; 'I' for Inactive)
REMARK    1  A    between atoms: C_1  and  C_2
REMARK    2  A    between atoms: C_8  and  C_10
REMARK    3  A    between atoms: C_12  and  O_13
REMARK    4  A    between atoms: C_17  and  C_39
REMARK    5  A    between atoms: C_25  and  C_26
REMARK    6  A    between atoms: C_25  and  C_27
REMARK                            x       y       z     vdW  Elec       q    Type
REMARK                         _______ _______ _______ _____ _____    ______ ____
ROOT
ATOM      1  C   LIG A   1      -5.780  -0.080 127.339  0.00  0.00    +0.022 C 
ATOM      2  C   LIG A   1      -5.759   0.882 128.574  0.00  0.00    +0.062 C 
ATOM      3  C   LIG A   1      -5.486   2.337 128.027  0.00  0.00    +0.128 C 
ATOM      4  C   LIG A   1      -4.103   2.960 127.766  0.00  0.00    +0.260 C 
ATOM      5  C   LIG A   1      -3.963   4.400 127.424  0.00  0.00    +0.340 C 
ATOM      6  O   LIG A   1      -5.079   5.061 126.986  0.00  0.00    -0.454 OA
ATOM      7  C   LIG A   1      -6.380   4.409 126.837  0.00  0.00    +0.222 C 
ATOM      8  C   LIG A   1      -6.613   3.364 127.999  0.00  0.00    +0.042 C 
ATOM      9  C   LIG A   1      -7.947   2.622 127.867  0.00  0.00    +0.014 C 
ATOM     10  C   LIG A   1      -8.217   1.725 129.069  0.00  0.00    +0.006 C 
ATOM     11  C   LIG A   1      -7.133   0.671 129.373  0.00  0.00    +0.017 C 
ATOM     12  C   LIG A   1      -6.943   0.238 130.914  0.00  0.00    +0.041 C 
ATOM     13  C   LIG A   1      -6.012  -1.014 130.985  0.00  0.00    +0.040 C 
ATOM     14  C   LIG A   1      -7.005  -2.227 130.878  0.00  0.00    +0.068 C 
ATOM     15  C   LIG A   1      -6.768  -3.217 132.030  0.00  0.00    +0.041 C 
ATOM     16  C   LIG A   1      -7.047  -3.020 129.574  0.00  0.00    +0.041 C 
ATOM     17  O   LIG A   1      -8.329  -1.644 131.049  0.00  0.00    -0.369 OA
ATOM     18  C   LIG A   1      -8.124  -0.378 131.662  0.00  0.00    +0.140 C 
ATOM     19  C   LIG A   1      -9.328   0.503 131.789  0.00  0.00    +0.152 C 
ATOM     20  C   LIG A   1      -8.931   1.843 132.350  0.00  0.00    +0.310 C 
ATOM     21  O   LIG A   1      -7.640   2.243 132.209  0.00  0.00    -0.464 OA
ATOM     22  C   LIG A   1      -6.531   1.389 131.833  0.00  0.00    +0.242 C 
ATOM     23  O   LIG A   1      -9.766   2.598 132.839  0.00  0.00    -0.251 OA
ATOM     24  C   LIG A   1      -4.802  -1.003 130.062  0.00  0.00    +0.082 C 
ATOM     25  C   LIG A   1      -4.642   0.391 129.506  0.00  0.00    +0.143 C 
ATOM     26  O   LIG A   1      -3.734   1.110 129.918  0.00  0.00    -0.297 OA
ATOM     27  C   LIG A   1      -6.594   4.194 129.314  0.00  0.00    +0.018 C 
ATOM     28  O   LIG A   1      -2.881   4.961 127.525  0.00  0.00    -0.248 OA
ATOM     29  O   LIG A   1      -4.776   2.225 126.762  0.00  0.00    -0.351 OA
ENDROOT
BRANCH   7  30
ATOM     30  C   LIG A   1      -6.556   4.001 125.405  0.00  0.00    +0.079 C 
ATOM     31  C   LIG A   1      -5.680   3.812 124.416  0.00  0.00    +0.061 C 
ATOM     32  C   LIG A   1      -6.358   3.470 123.159  0.00  0.00    +0.334 C 
ATOM     33  O   LIG A   1      -7.738   3.556 123.464  0.00  0.00    -0.428 OA
ATOM     34  C   LIG A   1      -7.877   3.882 124.775  0.00  0.00    +0.341 C 
ATOM     35  O   LIG A   1      -8.938   4.066 125.342  0.00  0.00    -0.245 OA
BRANCH  32  36
ATOM     36  O   LIG A   1      -6.010   4.374 122.136  0.00  0.00    -0.354 OA
ATOM     37  H   LIG A   1      -5.056   4.289 121.979  0.00  0.00    +0.214 HD
ENDBRANCH  32  36
ENDBRANCH   7  30
TORSDOF 2
ENDMDL
MODEL 2
REMARK VINA RESULT:      -9.1      2.889      5.518
REMARK  Name = NuBBE_1158
REMARK  6 active torsions:
REMARK  status: ('A' for Active; 'I' for Inactive)
REMARK    1  A    between atoms: C_1  and  C_2
REMARK    2  A    between atoms: C_8  and  C_10
REMARK    3  A    between atoms: C_12  and  O_13
REMARK    4  A    between atoms: C_17  and  C_39
REMARK    5  A    between atoms: C_25  and  C_26
REMARK    6  A    between atoms: C_25  and  C_27
REMARK                            x       y       z     vdW  Elec       q    Type
REMARK                         _______ _______ _______ _____ _____    ______ ____
ROOT
ATOM      1  C   LIG A   1      -4.998  -0.104 126.761  0.00  0.00    +0.022 C 
ATOM      2  C   LIG A   1      -6.486   0.380 126.703  0.00  0.00    +0.062 C 
ATOM      3  C   LIG A   1      -6.515   1.865 127.235  0.00  0.00    +0.128 C 
ATOM      4  C   LIG A   1      -6.639   2.295 128.707  0.00  0.00    +0.260 C 
ATOM      5  C   LIG A   1      -6.839   3.722 129.075  0.00  0.00    +0.340 C 
ATOM      6  O   LIG A   1      -6.542   4.669 128.131  0.00  0.00    -0.454 OA
ATOM      7  C   LIG A   1      -6.037   4.333 126.801  0.00  0.00    +0.222 C 
ATOM      8  C   LIG A   1      -6.727   3.019 126.261  0.00  0.00    +0.042 C 
ATOM      9  C   LIG A   1      -6.201   2.598 124.884  0.00  0.00    +0.014 C 
ATOM     10  C   LIG A   1      -6.978   1.415 124.319  0.00  0.00    +0.006 C 
ATOM     11  C   LIG A   1      -7.008   0.152 125.204  0.00  0.00    +0.017 C 
ATOM     12  C   LIG A   1      -8.310  -0.790 125.092  0.00  0.00    +0.041 C 
ATOM     13  C   LIG A   1      -8.039  -2.134 125.840  0.00  0.00    +0.040 C 
ATOM     14  C   LIG A   1      -7.408  -3.057 124.736  0.00  0.00    +0.068 C 
ATOM     15  C   LIG A   1      -8.159  -4.397 124.664  0.00  0.00    +0.041 C 
ATOM     16  C   LIG A   1      -5.912  -3.357 124.805  0.00  0.00    +0.041 C 
ATOM     17  O   LIG A   1      -7.629  -2.348 123.482  0.00  0.00    -0.369 OA
ATOM     18  C   LIG A   1      -8.665  -1.409 123.741  0.00  0.00    +0.140 C 
ATOM     19  C   LIG A   1      -8.962  -0.429 122.648  0.00  0.00    +0.152 C 
ATOM     20  C   LIG A   1      -9.995   0.564 123.113  0.00  0.00    +0.310 C 
ATOM     21  O   LIG A   1     -10.143   0.764 124.449  0.00  0.00    -0.464 OA
ATOM     22  C   LIG A   1      -9.613  -0.094 125.490  0.00  0.00    +0.242 C 
ATOM     23  O   LIG A   1     -10.625   1.245 122.309  0.00  0.00    -0.251 OA
ATOM     24  C   LIG A   1      -7.313  -2.024 127.173  0.00  0.00    +0.082 C 
ATOM     25  C   LIG A   1      -7.301  -0.574 127.589  0.00  0.00    +0.143 C 
ATOM     26  O   LIG A   1      -8.034  -0.195 128.501  0.00  0.00    -0.297 OA
ATOM     27  C   LIG A   1      -8.244   3.352 126.172  0.00  0.00    +0.018 C 
ATOM     28  O   LIG A   1      -7.246   4.027 130.187  0.00  0.00    -0.248 OA
ATOM     29  O   LIG A   1      -5.375   2.058 128.118  0.00  0.00    -0.351 OA
ENDROOT
BRANCH   7  30
ATOM     30  C   LIG A   1      -4.543   4.456 126.807  0.00  0.00    +0.079 C 
ATOM     31  C   LIG A   1      -3.584   3.744 126.210  0.00  0.00    +0.061 C 
ATOM     32  C   LIG A   1      -2.248   4.231 126.579  0.00  0.00    +0.334 C 
ATOM     33  O   LIG A   1      -2.490   5.253 127.528  0.00  0.00    -0.428 OA
ATOM     34  C   LIG A   1      -3.833   5.392 127.689  0.00  0.00    +0.341 C 
ATOM     35  O   LIG A   1      -4.368   6.165 128.461  0.00  0.00    -0.245 OA
BRANCH  32  36
ATOM     36  O   LIG A   1      -1.472   3.197 127.139  0.00  0.00    -0.354 OA
ATOM     37  H   LIG A   1      -0.841   3.602 127.755  0.00  0.00    +0.214 HD
ENDBRANCH  32  36
ENDBRANCH   7  30
TORSDOF 2
ENDMDL
MODEL 3
REMARK VINA RESULT:      -9.0      4.620      7.687
REMARK  Name = NuBBE_1158
REMARK  6 active torsions:
REMARK  status: ('A' for Active; 'I' for Inactive)
REMARK    1  A    between atoms: C_1  and  C_2
REMARK    2  A    between atoms: C_8  and  C_10
REMARK    3  A    between atoms: C_12  and  O_13
REMARK    4  A    between atoms: C_17  and  C_39
REMARK    5  A    between atoms: C_25  and  C_26
REMARK    6  A    between atoms: C_25  and  C_27
REMARK                            x       y       z     vdW  Elec       q    Type
REMARK                         _______ _______ _______ _____ _____    ______ ____
ROOT
ATOM      1  C   LIG A   1      -8.117   6.028 134.367  0.00  0.00    +0.022 C 
ATOM      2  C   LIG A   1      -7.186   5.172 133.443  0.00  0.00    +0.062 C 
ATOM      3  C   LIG A   1      -8.048   4.723 132.200  0.00  0.00    +0.128 C 
ATOM      4  C   LIG A   1      -8.942   3.473 132.124  0.00  0.00    +0.260 C 
ATOM      5  C   LIG A   1      -9.564   3.052 130.841  0.00  0.00    +0.340 C 
ATOM      6  O   LIG A   1      -9.635   3.978 129.835  0.00  0.00    -0.454 OA
ATOM      7  C   LIG A   1      -9.136   5.345 129.978  0.00  0.00    +0.222 C 
ATOM      8  C   LIG A   1      -7.811   5.364 130.837  0.00  0.00    +0.042 C 
ATOM      9  C   LIG A   1      -7.267   6.781 131.053  0.00  0.00    +0.014 C 
ATOM     10  C   LIG A   1      -5.917   6.768 131.759  0.00  0.00    +0.006 C 
ATOM     11  C   LIG A   1      -5.884   6.052 133.124  0.00  0.00    +0.017 C 
ATOM     12  C   LIG A   1      -4.494   5.358 133.555  0.00  0.00    +0.041 C 
ATOM     13  C   LIG A   1      -4.575   4.933 135.056  0.00  0.00    +0.040 C 
ATOM     14  C   LIG A   1      -4.060   6.199 135.831  0.00  0.00    +0.068 C 
ATOM     15  C   LIG A   1      -2.939   5.810 136.809  0.00  0.00    +0.041 C 
ATOM     16  C   LIG A   1      -5.076   7.049 136.592  0.00  0.00    +0.041 C 
ATOM     17  O   LIG A   1      -3.486   7.061 134.807  0.00  0.00    -0.369 OA
ATOM     18  C   LIG A   1      -3.242   6.224 133.683  0.00  0.00    +0.140 C 
ATOM     19  C   LIG A   1      -2.808   6.909 132.425  0.00  0.00    +0.152 C 
ATOM     20  C   LIG A   1      -2.701   5.910 131.303  0.00  0.00    +0.310 C 
ATOM     21  O   LIG A   1      -3.411   4.755 131.398  0.00  0.00    -0.464 OA
ATOM     22  C   LIG A   1      -4.036   4.250 132.605  0.00  0.00    +0.242 C 
ATOM     23  O   LIG A   1      -2.065   6.166 130.285  0.00  0.00    -0.251 OA
ATOM     24  C   LIG A   1      -5.887   4.309 135.506  0.00  0.00    +0.082 C 
ATOM     25  C   LIG A   1      -6.701   3.978 134.279  0.00  0.00    +0.143 C 
ATOM     26  O   LIG A   1      -6.819   2.807 133.924  0.00  0.00    -0.297 OA
ATOM     27  C   LIG A   1      -6.782   4.517 130.035  0.00  0.00    +0.018 C 
ATOM     28  O   LIG A   1     -10.002   1.918 130.705  0.00  0.00    -0.248 OA
ATOM     29  O   LIG A   1      -9.448   4.707 132.595  0.00  0.00    -0.351 OA
ENDROOT
BRANCH   7  30
ATOM     30  C   LIG A   1     -10.283   6.243 130.334  0.00  0.00    +0.079 C 
ATOM     31  C   LIG A   1     -11.340   6.070 131.130  0.00  0.00    +0.061 C 
ATOM     32  C   LIG A   1     -12.227   7.240 131.103  0.00  0.00    +0.334 C 
ATOM     33  O   LIG A   1     -11.648   8.104 130.143  0.00  0.00    -0.428 OA
ATOM     34  C   LIG A   1     -10.512   7.531 129.667  0.00  0.00    +0.341 C 
ATOM     35  O   LIG A   1      -9.798   8.005 128.803  0.00  0.00    -0.245 OA
BRANCH  32  36
ATOM     36  O   LIG A   1     -13.534   6.872 130.727  0.00  0.00    -0.354 OA
ATOM     37  H   LIG A   1     -13.463   6.148 130.085  0.00  0.00    +0.214 HD
ENDBRANCH  32  36
ENDBRANCH   7  30
TORSDOF 2
ENDMDL
MODEL 4
REMARK VINA RESULT:      -9.0      2.570      4.662
REMARK  Name = NuBBE_1158
REMARK  6 active torsions:
REMARK  status: ('A' for Active; 'I' for Inactive)
REMARK    1  A    between atoms: C_1  and  C_2
REMARK    2  A    between atoms: C_8  and  C_10
REMARK    3  A    between atoms: C_12  and  O_13
REMARK    4  A    between atoms: C_17  and  C_39
REMARK    5  A    between atoms: C_25  and  C_26
REMARK    6  A    between atoms: C_25  and  C_27
REMARK                            x       y       z     vdW  Elec       q    Type
REMARK                         _______ _______ _______ _____ _____    ______ ____
ROOT
ATOM      1  C   LIG A   1      -8.123   1.755 126.572  0.00  0.00    +0.022 C 
ATOM      2  C   LIG A   1      -6.969   1.049 127.360  0.00  0.00    +0.062 C 
ATOM      3  C   LIG A   1      -6.329   2.128 128.317  0.00  0.00    +0.128 C 
ATOM      4  C   LIG A   1      -5.207   3.114 127.946  0.00  0.00    +0.260 C 
ATOM      5  C   LIG A   1      -4.558   3.961 128.980  0.00  0.00    +0.340 C 
ATOM      6  O   LIG A   1      -5.212   4.122 130.172  0.00  0.00    -0.454 OA
ATOM      7  C   LIG A   1      -6.508   3.506 130.456  0.00  0.00    +0.222 C 
ATOM      8  C   LIG A   1      -6.587   2.063 129.818  0.00  0.00    +0.042 C 
ATOM      9  C   LIG A   1      -7.944   1.389 130.051  0.00  0.00    +0.014 C 
ATOM     10  C   LIG A   1      -7.952  -0.052 129.554  0.00  0.00    +0.006 C 
ATOM     11  C   LIG A   1      -7.592  -0.247 128.067  0.00  0.00    +0.017 C 
ATOM     12  C   LIG A   1      -6.873  -1.633 127.664  0.00  0.00    +0.041 C 
ATOM     13  C   LIG A   1      -6.840  -1.760 126.107  0.00  0.00    +0.040 C 
ATOM     14  C   LIG A   1      -8.191  -2.484 125.762  0.00  0.00    +0.068 C 
ATOM     15  C   LIG A   1      -7.929  -3.714 124.877  0.00  0.00    +0.041 C 
ATOM     16  C   LIG A   1      -9.310  -1.668 125.118  0.00  0.00    +0.041 C 
ATOM     17  O   LIG A   1      -8.706  -2.951 127.042  0.00  0.00    -0.369 OA
ATOM     18  C   LIG A   1      -7.598  -2.951 127.934  0.00  0.00    +0.140 C 
ATOM     19  C   LIG A   1      -7.902  -3.229 129.373  0.00  0.00    +0.152 C 
ATOM     20  C   LIG A   1      -6.653  -3.081 130.202  0.00  0.00    +0.310 C 
ATOM     21  O   LIG A   1      -5.644  -2.311 129.717  0.00  0.00    -0.464 OA
ATOM     22  C   LIG A   1      -5.522  -1.851 128.348  0.00  0.00    +0.242 C 
ATOM     23  O   LIG A   1      -6.579  -3.565 131.327  0.00  0.00    -0.251 OA
ATOM     24  C   LIG A   1      -6.496  -0.493 125.339  0.00  0.00    +0.082 C 
ATOM     25  C   LIG A   1      -5.969   0.528 126.317  0.00  0.00    +0.143 C 
ATOM     26  O   LIG A   1      -4.768   0.788 126.337  0.00  0.00    -0.297 OA
ATOM     27  C   LIG A   1      -5.460   1.241 130.505  0.00  0.00    +0.018 C 
ATOM     28  O   LIG A   1      -3.482   4.499 128.758  0.00  0.00    -0.248 OA
ATOM     29  O   LIG A   1      -6.568   3.446 127.747  0.00  0.00    -0.351 OA
ENDROOT
BRANCH   7  30
ATOM     30  C   LIG A   1      -7.588   4.512 130.193  0.00  0.00    +0.079 C 
ATOM     31  C   LIG A   1      -8.714   4.448 129.480  0.00  0.00    +0.061 C 
ATOM     32  C   LIG A   1      -9.421   5.736 129.481  0.00  0.00    +0.334 C 
ATOM     33  O   LIG A   1      -8.566   6.611 130.193  0.00  0.00    -0.428 OA
ATOM     34  C   LIG A   1      -7.475   5.916 130.608  0.00  0.00    +0.341 C 
ATOM     35  O   LIG A   1      -6.534   6.389 131.218  0.00  0.00    -0.245 OA
BRANCH  32  36
ATOM     36  O   LIG A   1      -9.631   6.196 128.166  0.00  0.00    -0.354 OA
ATOM     37  H   LIG A   1      -9.557   7.163 128.176  0.00  0.00    +0.214 HD
ENDBRANCH  32  36
ENDBRANCH   7  30
TORSDOF 2
ENDMDL
MODEL 5
REMARK VINA RESULT:      -8.9      2.602      5.273
REMARK  Name = NuBBE_1158
REMARK  6 active torsions:
REMARK  status: ('A' for Active; 'I' for Inactive)
REMARK    1  A    between atoms: C_1  and  C_2
REMARK    2  A    between atoms: C_8  and  C_10
REMARK    3  A    between atoms: C_12  and  O_13
REMARK    4  A    between atoms: C_17  and  C_39
REMARK    5  A    between atoms: C_25  and  C_26
REMARK    6  A    between atoms: C_25  and  C_27
REMARK                            x       y       z     vdW  Elec       q    Type
REMARK                         _______ _______ _______ _____ _____    ______ ____
ROOT
ATOM      1  C   LIG A   1      -8.396   1.632 127.457  0.00  0.00    +0.022 C 
ATOM      2  C   LIG A   1      -7.134   0.935 128.067  0.00  0.00    +0.062 C 
ATOM      3  C   LIG A   1      -6.529   1.920 129.141  0.00  0.00    +0.128 C 
ATOM      4  C   LIG A   1      -5.526   3.054 128.866  0.00  0.00    +0.260 C 
ATOM      5  C   LIG A   1      -4.887   3.800 129.982  0.00  0.00    +0.340 C 
ATOM      6  O   LIG A   1      -5.471   3.720 131.217  0.00  0.00    -0.454 OA
ATOM      7  C   LIG A   1      -6.686   2.945 131.472  0.00  0.00    +0.222 C 
ATOM      8  C   LIG A   1      -6.680   1.611 130.627  0.00  0.00    +0.042 C 
ATOM      9  C   LIG A   1      -7.953   0.780 130.826  0.00  0.00    +0.014 C 
ATOM     10  C   LIG A   1      -7.866  -0.566 130.117  0.00  0.00    +0.006 C 
ATOM     11  C   LIG A   1      -7.590  -0.506 128.601  0.00  0.00    +0.017 C 
ATOM     12  C   LIG A   1      -6.780  -1.740 127.954  0.00  0.00    +0.041 C 
ATOM     13  C   LIG A   1      -6.840  -1.635 126.397  0.00  0.00    +0.040 C 
ATOM     14  C   LIG A   1      -8.141  -2.428 126.017  0.00  0.00    +0.068 C 
ATOM     15  C   LIG A   1      -7.831  -3.484 124.943  0.00  0.00    +0.041 C 
ATOM     16  C   LIG A   1      -9.368  -1.641 125.564  0.00  0.00    +0.041 C 
ATOM     17  O   LIG A   1      -8.526  -3.126 127.237  0.00  0.00    -0.369 OA
ATOM     18  C   LIG A   1      -7.365  -3.148 128.058  0.00  0.00    +0.140 C 
ATOM     19  C   LIG A   1      -7.546  -3.662 129.453  0.00  0.00    +0.152 C 
ATOM     20  C   LIG A   1      -6.263  -3.516 130.228  0.00  0.00    +0.310 C 
ATOM     21  O   LIG A   1      -5.361  -2.589 129.812  0.00  0.00    -0.464 OA
ATOM     22  C   LIG A   1      -5.372  -1.923 128.525  0.00  0.00    +0.242 C 
ATOM     23  O   LIG A   1      -6.072  -4.150 131.261  0.00  0.00    -0.251 OA
ATOM     24  C   LIG A   1      -6.662  -0.241 125.813  0.00  0.00    +0.082 C 
ATOM     25  C   LIG A   1      -6.163   0.672 126.905  0.00  0.00    +0.143 C 
ATOM     26  O   LIG A   1      -4.990   1.042 126.902  0.00  0.00    -0.297 OA
ATOM     27  C   LIG A   1      -5.440   0.811 131.121  0.00  0.00    +0.018 C 
ATOM     28  O   LIG A   1      -3.880   4.467 129.788  0.00  0.00    -0.248 OA
ATOM     29  O   LIG A   1      -6.922   3.277 128.792  0.00  0.00    -0.351 OA
ENDROOT
BRANCH   7  30
ATOM     30  C   LIG A   1      -7.866   3.868 131.422  0.00  0.00    +0.079 C 
ATOM     31  C   LIG A   1      -8.115   4.963 130.701  0.00  0.00    +0.061 C 
ATOM     32  C   LIG A   1      -9.409   5.559 131.061  0.00  0.00    +0.334 C 
ATOM     33  O   LIG A   1      -9.879   4.765 132.135  0.00  0.00    -0.428 OA
ATOM     34  C   LIG A   1      -8.981   3.775 132.375  0.00  0.00    +0.341 C 
ATOM     35  O   LIG A   1      -9.075   2.943 133.257  0.00  0.00    -0.245 OA
BRANCH  32  36
ATOM     36  O   LIG A   1      -9.252   6.902 131.457  0.00  0.00    -0.354 OA
ATOM     37  H   LIG A   1      -9.073   6.909 132.411  0.00  0.00    +0.214 HD
ENDBRANCH  32  36
ENDBRANCH   7  30
TORSDOF 2
ENDMDL
MODEL 6
REMARK VINA RESULT:      -8.9      2.951      5.874
REMARK  Name = NuBBE_1158
REMARK  6 active torsions:
REMARK  status: ('A' for Active; 'I' for Inactive)
REMARK    1  A    between atoms: C_1  and  C_2
REMARK    2  A    between atoms: C_8  and  C_10
REMARK    3  A    between atoms: C_12  and  O_13
REMARK    4  A    between atoms: C_17  and  C_39
REMARK    5  A    between atoms: C_25  and  C_26
REMARK    6  A    between atoms: C_25  and  C_27
REMARK                            x       y       z     vdW  Elec       q    Type
REMARK                         _______ _______ _______ _____ _____    ______ ____
ROOT
ATOM      1  C   LIG A   1      -4.877   1.698 125.488  0.00  0.00    +0.022 C 
ATOM      2  C   LIG A   1      -6.014   2.308 126.375  0.00  0.00    +0.062 C 
ATOM      3  C   LIG A   1      -7.319   1.462 126.108  0.00  0.00    +0.128 C 
ATOM      4  C   LIG A   1      -8.338   1.704 124.982  0.00  0.00    +0.260 C 
ATOM      5  C   LIG A   1      -9.624   0.957 124.937  0.00  0.00    +0.340 C 
ATOM      6  O   LIG A   1      -9.719  -0.188 125.682  0.00  0.00    -0.454 OA
ATOM      7  C   LIG A   1      -8.619  -0.698 126.499  0.00  0.00    +0.222 C 
ATOM      8  C   LIG A   1      -7.828   0.494 127.170  0.00  0.00    +0.042 C 
ATOM      9  C   LIG A   1      -6.637   0.014 128.006  0.00  0.00    +0.014 C 
ATOM     10  C   LIG A   1      -5.975   1.163 128.758  0.00  0.00    +0.006 C 
ATOM     11  C   LIG A   1      -5.482   2.336 127.887  0.00  0.00    +0.017 C 
ATOM     12  C   LIG A   1      -5.480   3.800 128.562  0.00  0.00    +0.041 C 
ATOM     13  C   LIG A   1      -4.704   4.791 127.638  0.00  0.00    +0.040 C 
ATOM     14  C   LIG A   1      -3.217   4.678 128.133  0.00  0.00    +0.068 C 
ATOM     15  C   LIG A   1      -2.646   6.073 128.439  0.00  0.00    +0.041 C 
ATOM     16  C   LIG A   1      -2.211   3.939 127.253  0.00  0.00    +0.041 C 
ATOM     17  O   LIG A   1      -3.292   3.937 129.385  0.00  0.00    -0.369 OA
ATOM     18  C   LIG A   1      -4.643   4.037 129.818  0.00  0.00    +0.140 C 
ATOM     19  C   LIG A   1      -5.024   3.207 131.005  0.00  0.00    +0.152 C 
ATOM     20  C   LIG A   1      -6.502   3.332 131.269  0.00  0.00    +0.310 C 
ATOM     21  O   LIG A   1      -7.311   3.707 130.244  0.00  0.00    -0.464 OA
ATOM     22  C   LIG A   1      -6.867   4.285 128.991  0.00  0.00    +0.242 C 
ATOM     23  O   LIG A   1      -6.980   3.016 132.354  0.00  0.00    -0.251 OA
ATOM     24  C   LIG A   1      -4.968   4.661 126.145  0.00  0.00    +0.082 C 
ATOM     25  C   LIG A   1      -6.174   3.776 125.951  0.00  0.00    +0.143 C 
ATOM     26  O   LIG A   1      -7.246   4.273 125.610  0.00  0.00    -0.297 OA
ATOM     27  C   LIG A   1      -8.861   1.217 128.081  0.00  0.00    +0.018 C 
ATOM     28  O   LIG A   1     -10.552   1.357 124.248  0.00  0.00    -0.248 OA
ATOM     29  O   LIG A   1      -7.216   0.865 124.785  0.00  0.00    -0.351 OA
ENDROOT
BRANCH   7  30
ATOM     30  C   LIG A   1      -7.887  -1.749 125.721  0.00  0.00    +0.079 C 
ATOM     31  C   LIG A   1      -6.595  -1.905 125.423  0.00  0.00    +0.061 C 
ATOM     32  C   LIG A   1      -6.380  -3.083 124.572  0.00  0.00    +0.334 C 
ATOM     33  O   LIG A   1      -7.681  -3.575 124.310  0.00  0.00    -0.428 OA
ATOM     34  C   LIG A   1      -8.584  -2.797 124.963  0.00  0.00    +0.341 C 
ATOM     35  O   LIG A   1      -9.792  -2.936 124.914  0.00  0.00    -0.245 OA
BRANCH  32  36
ATOM     36  O   LIG A   1      -5.726  -2.727 123.376  0.00  0.00    -0.354 OA
ATOM     37  H   LIG A   1      -5.454  -1.798 123.454  0.00  0.00    +0.214 HD
ENDBRANCH  32  36
ENDBRANCH   7  30
TORSDOF 2
ENDMDL
MODEL 7
REMARK VINA RESULT:      -8.8      3.037      8.352
REMARK  Name = NuBBE_1158
REMARK  6 active torsions:
REMARK  status: ('A' for Active; 'I' for Inactive)
REMARK    1  A    between atoms: C_1  and  C_2
REMARK    2  A    between atoms: C_8  and  C_10
REMARK    3  A    between atoms: C_12  and  O_13
REMARK    4  A    between atoms: C_17  and  C_39
REMARK    5  A    between atoms: C_25  and  C_26
REMARK    6  A    between atoms: C_25  and  C_27
REMARK                            x       y       z     vdW  Elec       q    Type
REMARK                         _______ _______ _______ _____ _____    ______ ____
ROOT
ATOM      1  C   LIG A   1      -7.312   0.113 131.888  0.00  0.00    +0.022 C 
ATOM      2  C   LIG A   1      -6.391  -0.534 130.799  0.00  0.00    +0.062 C 
ATOM      3  C   LIG A   1      -5.707  -1.795 131.455  0.00  0.00    +0.128 C 
ATOM      4  C   LIG A   1      -4.404  -1.794 132.274  0.00  0.00    +0.260 C 
ATOM      5  C   LIG A   1      -3.758  -3.067 132.689  0.00  0.00    +0.340 C 
ATOM      6  O   LIG A   1      -4.517  -4.205 132.657  0.00  0.00    -0.454 OA
ATOM      7  C   LIG A   1      -5.921  -4.212 132.244  0.00  0.00    +0.222 C 
ATOM      8  C   LIG A   1      -6.154  -3.197 131.056  0.00  0.00    +0.042 C 
ATOM      9  C   LIG A   1      -7.619  -3.135 130.612  0.00  0.00    +0.014 C 
ATOM     10  C   LIG A   1      -7.799  -2.261 129.376  0.00  0.00    +0.006 C 
ATOM     11  C   LIG A   1      -7.297  -0.809 129.506  0.00  0.00    +0.017 C 
ATOM     12  C   LIG A   1      -6.767  -0.095 128.162  0.00  0.00    +0.041 C 
ATOM     13  C   LIG A   1      -6.565   1.430 128.435  0.00  0.00    +0.040 C 
ATOM     14  C   LIG A   1      -7.962   2.060 128.092  0.00  0.00    +0.068 C 
ATOM     15  C   LIG A   1      -7.796   3.227 127.105  0.00  0.00    +0.041 C 
ATOM     16  C   LIG A   1      -8.848   2.536 129.241  0.00  0.00    +0.041 C 
ATOM     17  O   LIG A   1      -8.698   1.000 127.417  0.00  0.00    -0.369 OA
ATOM     18  C   LIG A   1      -7.722   0.063 126.979  0.00  0.00    +0.140 C 
ATOM     19  C   LIG A   1      -8.240  -1.218 126.402  0.00  0.00    +0.152 C 
ATOM     20  C   LIG A   1      -7.094  -2.146 126.093  0.00  0.00    +0.310 C 
ATOM     21  O   LIG A   1      -5.923  -1.967 126.758  0.00  0.00    -0.464 OA
ATOM     22  C   LIG A   1      -5.562  -0.790 127.525  0.00  0.00    +0.242 C 
ATOM     23  O   LIG A   1      -7.238  -3.097 125.331  0.00  0.00    -0.251 OA
ATOM     24  C   LIG A   1      -5.930   1.793 129.769  0.00  0.00    +0.082 C 
ATOM     25  C   LIG A   1      -5.368   0.535 130.386  0.00  0.00    +0.143 C 
ATOM     26  O   LIG A   1      -4.152   0.355 130.401  0.00  0.00    -0.297 OA
ATOM     27  C   LIG A   1      -5.266  -3.713 129.888  0.00  0.00    +0.018 C 
ATOM     28  O   LIG A   1      -2.590  -3.082 133.053  0.00  0.00    -0.248 OA
ATOM     29  O   LIG A   1      -5.659  -1.593 132.896  0.00  0.00    -0.351 OA
ENDROOT
BRANCH   7  30
ATOM     30  C   LIG A   1      -6.784  -4.156 133.468  0.00  0.00    +0.079 C 
ATOM     31  C   LIG A   1      -7.711  -3.285 133.870  0.00  0.00    +0.061 C 
ATOM     32  C   LIG A   1      -8.244  -3.640 135.192  0.00  0.00    +0.334 C 
ATOM     33  O   LIG A   1      -7.483  -4.766 135.591  0.00  0.00    -0.428 OA
ATOM     34  C   LIG A   1      -6.609  -5.078 134.599  0.00  0.00    +0.341 C 
ATOM     35  O   LIG A   1      -5.789  -5.975 134.646  0.00  0.00    -0.245 OA
BRANCH  32  36
ATOM     36  O   LIG A   1      -8.085  -2.576 136.102  0.00  0.00    -0.354 OA
ATOM     37  H   LIG A   1      -7.439  -1.958 135.723  0.00  0.00    +0.214 HD
ENDBRANCH  32  36
ENDBRANCH   7  30
TORSDOF 2
ENDMDL
MODEL 8
REMARK VINA RESULT:      -8.7      2.650      4.254
REMARK  Name = NuBBE_1158
REMARK  6 active torsions:
REMARK  status: ('A' for Active; 'I' for Inactive)
REMARK    1  A    between atoms: C_1  and  C_2
REMARK    2  A    between atoms: C_8  and  C_10
REMARK    3  A    between atoms: C_12  and  O_13
REMARK    4  A    between atoms: C_17  and  C_39
REMARK    5  A    between atoms: C_25  and  C_26
REMARK    6  A    between atoms: C_25  and  C_27
REMARK                            x       y       z     vdW  Elec       q    Type
REMARK                         _______ _______ _______ _____ _____    ______ ____
ROOT
ATOM      1  C   LIG A   1      -5.462   0.444 126.820  0.00  0.00    +0.022 C 
ATOM      2  C   LIG A   1      -5.916   1.939 126.909  0.00  0.00    +0.062 C 
ATOM      3  C   LIG A   1      -6.694   2.271 125.577  0.00  0.00    +0.128 C 
ATOM      4  C   LIG A   1      -6.064   2.747 124.256  0.00  0.00    +0.260 C 
ATOM      5  C   LIG A   1      -6.911   3.203 123.123  0.00  0.00    +0.340 C 
ATOM      6  O   LIG A   1      -8.233   2.848 123.135  0.00  0.00    -0.454 OA
ATOM      7  C   LIG A   1      -8.830   2.044 124.201  0.00  0.00    +0.222 C 
ATOM      8  C   LIG A   1      -8.210   2.431 125.601  0.00  0.00    +0.042 C 
ATOM      9  C   LIG A   1      -8.772   1.586 126.750  0.00  0.00    +0.014 C 
ATOM     10  C   LIG A   1      -8.271   2.070 128.105  0.00  0.00    +0.006 C 
ATOM     11  C   LIG A   1      -6.739   2.112 128.274  0.00  0.00    +0.017 C 
ATOM     12  C   LIG A   1      -6.142   3.230 129.270  0.00  0.00    +0.041 C 
ATOM     13  C   LIG A   1      -4.627   2.941 129.519  0.00  0.00    +0.040 C 
ATOM     14  C   LIG A   1      -4.627   1.984 130.765  0.00  0.00    +0.068 C 
ATOM     15  C   LIG A   1      -3.686   2.521 131.854  0.00  0.00    +0.041 C 
ATOM     16  C   LIG A   1      -4.305   0.507 130.548  0.00  0.00    +0.041 C 
ATOM     17  O   LIG A   1      -5.989   2.037 131.280  0.00  0.00    -0.369 OA
ATOM     18  C   LIG A   1      -6.567   3.218 130.738  0.00  0.00    +0.140 C 
ATOM     19  C   LIG A   1      -8.032   3.414 130.980  0.00  0.00    +0.152 C 
ATOM     20  C   LIG A   1      -8.515   4.641 130.253  0.00  0.00    +0.310 C 
ATOM     21  O   LIG A   1      -7.800   5.082 129.185  0.00  0.00    -0.464 OA
ATOM     22  C   LIG A   1      -6.453   4.666 128.846  0.00  0.00    +0.242 C 
ATOM     23  O   LIG A   1      -9.576   5.179 130.555  0.00  0.00    -0.251 OA
ATOM     24  C   LIG A   1      -3.817   2.522 128.301  0.00  0.00    +0.082 C 
ATOM     25  C   LIG A   1      -4.643   2.785 127.067  0.00  0.00    +0.143 C 
ATOM     26  O   LIG A   1      -4.360   3.730 126.334  0.00  0.00    -0.297 OA
ATOM     27  C   LIG A   1      -8.572   3.929 125.816  0.00  0.00    +0.018 C 
ATOM     28  O   LIG A   1      -6.430   3.863 122.213  0.00  0.00    -0.248 OA
ATOM     29  O   LIG A   1      -6.226   1.369 124.536  0.00  0.00    -0.351 OA
ENDROOT
BRANCH   7  30
ATOM     30  C   LIG A   1      -8.869   0.611 123.760  0.00  0.00    +0.079 C 
ATOM     31  C   LIG A   1      -7.977  -0.377 123.852  0.00  0.00    +0.061 C 
ATOM     32  C   LIG A   1      -8.468  -1.603 123.208  0.00  0.00    +0.334 C 
ATOM     33  O   LIG A   1      -9.711  -1.233 122.640  0.00  0.00    -0.428 OA
ATOM     34  C   LIG A   1      -9.959   0.069 122.939  0.00  0.00    +0.341 C 
ATOM     35  O   LIG A   1     -10.932   0.698 122.568  0.00  0.00    -0.245 OA
BRANCH  32  36
ATOM     36  O   LIG A   1      -7.571  -2.044 122.215  0.00  0.00    -0.354 OA
ATOM     37  H   LIG A   1      -8.095  -2.340 121.454  0.00  0.00    +0.214 HD
ENDBRANCH  32  36
ENDBRANCH   7  30
TORSDOF 2
ENDMDL
MODEL 9
REMARK VINA RESULT:      -8.6      3.206      5.523
REMARK  Name = NuBBE_1158
REMARK  6 active torsions:
REMARK  status: ('A' for Active; 'I' for Inactive)
REMARK    1  A    between atoms: C_1  and  C_2
REMARK    2  A    between atoms: C_8  and  C_10
REMARK    3  A    between atoms: C_12  and  O_13
REMARK    4  A    between atoms: C_17  and  C_39
REMARK    5  A    between atoms: C_25  and  C_26
REMARK    6  A    between atoms: C_25  and  C_27
REMARK                            x       y       z     vdW  Elec       q    Type
REMARK                         _______ _______ _______ _____ _____    ______ ____
ROOT
ATOM      1  C   LIG A   1      -6.673   1.286 132.796  0.00  0.00    +0.022 C 
ATOM      2  C   LIG A   1      -7.389   0.717 131.525  0.00  0.00    +0.062 C 
ATOM      3  C   LIG A   1      -8.087   1.931 130.799  0.00  0.00    +0.128 C 
ATOM      4  C   LIG A   1      -9.492   2.480 131.102  0.00  0.00    +0.260 C 
ATOM      5  C   LIG A   1     -10.117   3.511 130.232  0.00  0.00    +0.340 C 
ATOM      6  O   LIG A   1      -9.297   4.220 129.396  0.00  0.00    -0.454 OA
ATOM      7  C   LIG A   1      -7.851   4.008 129.336  0.00  0.00    +0.222 C 
ATOM      8  C   LIG A   1      -7.508   2.475 129.497  0.00  0.00    +0.042 C 
ATOM      9  C   LIG A   1      -5.999   2.203 129.483  0.00  0.00    +0.014 C 
ATOM     10  C   LIG A   1      -5.694   0.710 129.495  0.00  0.00    +0.006 C 
ATOM     11  C   LIG A   1      -6.292  -0.084 130.674  0.00  0.00    +0.017 C 
ATOM     12  C   LIG A   1      -6.662  -1.629 130.403  0.00  0.00    +0.041 C 
ATOM     13  C   LIG A   1      -6.989  -2.326 131.762  0.00  0.00    +0.040 C 
ATOM     14  C   LIG A   1      -5.595  -2.858 132.255  0.00  0.00    +0.068 C 
ATOM     15  C   LIG A   1      -5.683  -4.353 132.602  0.00  0.00    +0.041 C 
ATOM     16  C   LIG A   1      -4.913  -2.142 133.419  0.00  0.00    +0.041 C 
ATOM     17  O   LIG A   1      -4.710  -2.713 131.107  0.00  0.00    -0.369 OA
ATOM     18  C   LIG A   1      -5.558  -2.593 129.971  0.00  0.00    +0.140 C 
ATOM     19  C   LIG A   1      -4.889  -2.257 128.674  0.00  0.00    +0.152 C 
ATOM     20  C   LIG A   1      -5.924  -2.053 127.598  0.00  0.00    +0.310 C 
ATOM     21  O   LIG A   1      -7.187  -1.722 127.973  0.00  0.00    -0.464 OA
ATOM     22  C   LIG A   1      -7.721  -1.830 129.317  0.00  0.00    +0.242 C 
ATOM     23  O   LIG A   1      -5.618  -2.092 126.411  0.00  0.00    -0.251 OA
ATOM     24  C   LIG A   1      -7.829  -1.521 132.743  0.00  0.00    +0.082 C 
ATOM     25  C   LIG A   1      -8.401  -0.331 132.013  0.00  0.00    +0.143 C 
ATOM     26  O   LIG A   1      -9.594  -0.313 131.717  0.00  0.00    -0.297 OA
ATOM     27  C   LIG A   1      -8.187   1.768 128.290  0.00  0.00    +0.018 C 
ATOM     28  O   LIG A   1     -11.322   3.715 130.278  0.00  0.00    -0.248 OA
ATOM     29  O   LIG A   1      -8.353   2.965 131.788  0.00  0.00    -0.351 OA
ENDROOT
BRANCH   7  30
ATOM     30  C   LIG A   1      -7.177   5.031 130.202  0.00  0.00    +0.079 C 
ATOM     31  C   LIG A   1      -6.093   4.971 130.977  0.00  0.00    +0.061 C 
ATOM     32  C   LIG A   1      -5.868   6.240 131.682  0.00  0.00    +0.334 C 
ATOM     33  O   LIG A   1      -6.974   7.047 131.323  0.00  0.00    -0.428 OA
ATOM     34  C   LIG A   1      -7.765   6.351 130.465  0.00  0.00    +0.341 C 
ATOM     35  O   LIG A   1      -8.814   6.753 129.998  0.00  0.00    -0.245 OA
BRANCH  32  36
ATOM     36  O   LIG A   1      -5.820   6.041 133.076  0.00  0.00    -0.354 OA
ATOM     37  H   LIG A   1      -5.027   5.517 133.271  0.00  0.00    +0.214 HD
ENDBRANCH  32  36
ENDBRANCH   7  30
TORSDOF 2
ENDMDL
