MODEL 1
REMARK VINA RESULT:      -9.3      0.000      0.000
REMARK  Name = NuBBE_101
REMARK  12 active torsions:
REMARK  status: ('A' for Active; 'I' for Inactive)
REMARK    1  A    between atoms: C_2  and  C_3
REMARK    2  A    between atoms: C_4  and  O_6
REMARK    3  A    between atoms: O_6  and  C_7
REMARK    4  A    between atoms: C_9  and  O_11
REMARK    5  A    between atoms: C_13  and  C_15
REMARK    6  A    between atoms: C_15  and  O_16
REMARK    7  A    between atoms: C_17  and  O_19
REMARK    8  A    between atoms: C_20  and  O_22
REMARK    9  A    between atoms: C_25  and  C_26
REMARK   10  A    between atoms: C_26  and  O_27
REMARK   11  A    between atoms: C_29  and  C_30
REMARK   12  A    between atoms: C_30  and  C_31
REMARK                            x       y       z     vdW  Elec       q    Type
REMARK                         _______ _______ _______ _____ _____    ______ ____
ROOT
ATOM      1  C   LIG A   1      -7.363   2.983 122.944  0.00  0.00    +0.088 C 
ATOM      2  C   LIG A   1      -7.265   3.534 124.399  0.00  0.00    +0.316 C 
ATOM      3  O   LIG A   1      -8.575   3.666 124.980  0.00  0.00    -0.470 OA
ATOM      4  C   LIG A   1      -9.504   2.730 124.623  0.00  0.00    +0.201 C 
ATOM      5  C   LIG A   1      -9.366   1.769 123.700  0.00  0.00    +0.075 C 
ATOM      6  C   LIG A   1      -8.073   1.589 122.907  0.00  0.00    +0.048 C 
ENDROOT
BRANCH   1   8
ATOM      7  C   LIG A   1      -5.340   4.251 122.174  0.00  0.00    +0.004 C 
ATOM      8  C   LIG A   1      -6.075   3.126 122.157  0.00  0.00    -0.025 C 
ENDBRANCH   1   8
BRANCH   5   9
ATOM      9  C   LIG A   1     -10.568   0.998 123.308  0.00  0.00    +0.336 C 
ATOM     10  O   LIG A   1     -10.696   0.270 122.338  0.00  0.00    -0.245 OA
BRANCH   9  11
ATOM     11  O   LIG A   1     -11.620   1.253 124.086  0.00  0.00    -0.477 OA
ATOM     12  H   LIG A   1     -11.409   2.144 124.437  0.00  0.00    +0.295 HD
ENDBRANCH   9  11
ENDBRANCH   5   9
BRANCH   2  13
ATOM     13  O   LIG A   1      -6.397   2.780 125.262  0.00  0.00    -0.309 OA
BRANCH  13  14
ATOM     14  C   LIG A   1      -5.473   3.654 125.939  0.00  0.00    +0.286 C 
ATOM     15  C   LIG A   1      -5.897   3.874 127.411  0.00  0.00    +0.201 C 
ATOM     16  O   LIG A   1      -4.156   3.094 125.888  0.00  0.00    -0.340 OA
ATOM     17  C   LIG A   1      -3.158   3.954 126.440  0.00  0.00    +0.178 C 
ATOM     18  C   LIG A   1      -3.422   4.136 127.940  0.00  0.00    +0.177 C 
ATOM     19  C   LIG A   1      -4.828   4.707 128.140  0.00  0.00    +0.179 C 
BRANCH  15  20
ATOM     20  O   LIG A   1      -7.153   4.574 127.508  0.00  0.00    -0.384 OA
ATOM     21  H   LIG A   1      -7.397   4.508 128.454  0.00  0.00    +0.210 HD
ENDBRANCH  15  20
BRANCH  18  22
ATOM     22  O   LIG A   1      -2.469   5.002 128.572  0.00  0.00    -0.387 OA
ATOM     23  H   LIG A   1      -2.494   5.870 128.126  0.00  0.00    +0.210 HD
ENDBRANCH  18  22
BRANCH  19  24
ATOM     24  O   LIG A   1      -5.139   4.770 129.541  0.00  0.00    -0.386 OA
ATOM     25  H   LIG A   1      -4.779   5.622 129.862  0.00  0.00    +0.210 HD
ENDBRANCH  19  24
BRANCH  17  26
ATOM     26  C   LIG A   1      -1.781   3.338 126.163  0.00  0.00    +0.190 C 
BRANCH  26  27
ATOM     27  O   LIG A   1      -1.427   2.361 127.133  0.00  0.00    -0.392 OA
ATOM     28  H   LIG A   1      -1.412   1.495 126.679  0.00  0.00    +0.209 HD
ENDBRANCH  26  27
ENDBRANCH  17  26
ENDBRANCH  13  14
ENDBRANCH   2  13
BRANCH   6  29
ATOM     29  C   LIG A   1      -7.179   0.422 123.375  0.00  0.00    +0.066 C 
BRANCH  29  30
ATOM     30  C   LIG A   1      -7.919  -0.860 123.731  0.00  0.00    +0.060 C 
ATOM     31  N   LIG A   1      -8.249  -1.690 122.791  0.00  0.00    -0.286 NA
ATOM     32  C   LIG A   1      -9.078  -2.874 123.151  0.00  0.00    +0.146 C 
ATOM     33  C   LIG A   1      -8.797  -3.505 124.527  0.00  0.00    +0.061 C 
ATOM     34  C   LIG A   1      -8.507  -2.454 125.532  0.00  0.00    -0.011 A 
ATOM     35  C   LIG A   1      -8.133  -1.192 125.121  0.00  0.00    +0.065 A 
ATOM     36  N   LIG A   1      -7.919  -0.439 126.246  0.00  0.00    -0.353 N 
ATOM     37  C   LIG A   1      -7.983  -1.245 127.364  0.00  0.00    +0.047 A 
ATOM     38  C   LIG A   1      -7.693  -0.948 128.701  0.00  0.00    +0.026 A 
ATOM     39  C   LIG A   1      -7.768  -1.993 129.627  0.00  0.00    +0.002 A 
ATOM     40  C   LIG A   1      -8.157  -3.273 129.236  0.00  0.00    +0.001 A 
ATOM     41  C   LIG A   1      -8.477  -3.546 127.901  0.00  0.00    +0.010 A 
ATOM     42  C   LIG A   1      -8.371  -2.519 126.943  0.00  0.00    +0.004 A 
ATOM     43  H   LIG A   1      -7.639   0.533 126.270  0.00  0.00    +0.166 HD
ENDBRANCH  29  30
ENDBRANCH   6  29
TORSDOF 12
ENDMDL
MODEL 2
REMARK VINA RESULT:      -8.9      7.787     11.410
REMARK  Name = NuBBE_101
REMARK  12 active torsions:
REMARK  status: ('A' for Active; 'I' for Inactive)
REMARK    1  A    between atoms: C_2  and  C_3
REMARK    2  A    between atoms: C_4  and  O_6
REMARK    3  A    between atoms: O_6  and  C_7
REMARK    4  A    between atoms: C_9  and  O_11
REMARK    5  A    between atoms: C_13  and  C_15
REMARK    6  A    between atoms: C_15  and  O_16
REMARK    7  A    between atoms: C_17  and  O_19
REMARK    8  A    between atoms: C_20  and  O_22
REMARK    9  A    between atoms: C_25  and  C_26
REMARK   10  A    between atoms: C_26  and  O_27
REMARK   11  A    between atoms: C_29  and  C_30
REMARK   12  A    between atoms: C_30  and  C_31
REMARK                            x       y       z     vdW  Elec       q    Type
REMARK                         _______ _______ _______ _____ _____    ______ ____
ROOT
ATOM      1  C   LIG A   1      -6.301   5.364 131.610  0.00  0.00    +0.088 C 
ATOM      2  C   LIG A   1      -7.448   5.673 130.601  0.00  0.00    +0.316 C 
ATOM      3  O   LIG A   1      -8.091   4.458 130.176  0.00  0.00    -0.470 OA
ATOM      4  C   LIG A   1      -8.193   3.459 131.102  0.00  0.00    +0.201 C 
ATOM      5  C   LIG A   1      -7.658   3.441 132.329  0.00  0.00    +0.075 C 
ATOM      6  C   LIG A   1      -6.837   4.609 132.872  0.00  0.00    +0.048 C 
ENDROOT
BRANCH   1   8
ATOM      7  C   LIG A   1      -4.790   7.212 130.842  0.00  0.00    +0.004 C 
ATOM      8  C   LIG A   1      -5.372   6.538 131.848  0.00  0.00    -0.025 C 
ENDBRANCH   1   8
BRANCH   5   9
ATOM      9  C   LIG A   1      -7.702   2.172 133.092  0.00  0.00    +0.336 C 
ATOM     10  O   LIG A   1      -8.505   1.263 132.972  0.00  0.00    -0.245 OA
BRANCH   9  11
ATOM     11  O   LIG A   1      -6.797   2.128 134.071  0.00  0.00    -0.477 OA
ATOM     12  H   LIG A   1      -6.412   3.029 134.040  0.00  0.00    +0.295 HD
ENDBRANCH   9  11
ENDBRANCH   5   9
BRANCH   2  13
ATOM     13  O   LIG A   1      -8.416   6.624 131.077  0.00  0.00    -0.309 OA
BRANCH  13  14
ATOM     14  C   LIG A   1      -9.700   6.388 130.467  0.00  0.00    +0.286 C 
ATOM     15  C   LIG A   1     -10.848   6.811 131.415  0.00  0.00    +0.201 C 
ATOM     16  O   LIG A   1      -9.788   7.115 129.237  0.00  0.00    -0.340 OA
ATOM     17  C   LIG A   1     -10.989   6.847 128.510  0.00  0.00    +0.178 C 
ATOM     18  C   LIG A   1     -12.191   7.348 129.321  0.00  0.00    +0.177 C 
ATOM     19  C   LIG A   1     -12.198   6.665 130.691  0.00  0.00    +0.179 C 
BRANCH  15  20
ATOM     20  O   LIG A   1     -10.888   5.999 132.604  0.00  0.00    -0.384 OA
ATOM     21  H   LIG A   1      -9.952   5.757 132.765  0.00  0.00    +0.210 HD
ENDBRANCH  15  20
BRANCH  18  22
ATOM     22  O   LIG A   1     -13.444   7.105 128.668  0.00  0.00    -0.387 OA
ATOM     23  H   LIG A   1     -13.884   6.353 129.109  0.00  0.00    +0.210 HD
ENDBRANCH  18  22
BRANCH  19  24
ATOM     24  O   LIG A   1     -13.245   7.213 131.508  0.00  0.00    -0.386 OA
ATOM     25  H   LIG A   1     -14.087   6.907 131.113  0.00  0.00    +0.210 HD
ENDBRANCH  19  24
BRANCH  17  26
ATOM     26  C   LIG A   1     -10.888   7.526 127.139  0.00  0.00    +0.190 C 
BRANCH  26  27
ATOM     27  O   LIG A   1     -11.637   6.838 126.146  0.00  0.00    -0.392 OA
ATOM     28  H   LIG A   1     -10.998   6.499 125.486  0.00  0.00    +0.209 HD
ENDBRANCH  26  27
ENDBRANCH  17  26
ENDBRANCH  13  14
ENDBRANCH   2  13
BRANCH   6  29
ATOM     29  C   LIG A   1      -7.581   5.518 133.873  0.00  0.00    +0.066 C 
BRANCH  29  30
ATOM     30  C   LIG A   1      -7.068   5.461 135.305  0.00  0.00    +0.060 C 
ATOM     31  N   LIG A   1      -6.042   4.721 135.588  0.00  0.00    -0.286 NA
ATOM     32  C   LIG A   1      -5.637   4.588 137.015  0.00  0.00    +0.146 C 
ATOM     33  C   LIG A   1      -5.812   5.844 137.889  0.00  0.00    +0.061 C 
ATOM     34  C   LIG A   1      -7.054   6.565 137.521  0.00  0.00    -0.011 A 
ATOM     35  C   LIG A   1      -7.653   6.329 136.302  0.00  0.00    +0.065 A 
ATOM     36  N   LIG A   1      -8.763   7.130 136.226  0.00  0.00    -0.353 N 
ATOM     37  C   LIG A   1      -8.786   7.995 137.301  0.00  0.00    +0.047 A 
ATOM     38  C   LIG A   1      -9.639   9.073 137.565  0.00  0.00    +0.026 A 
ATOM     39  C   LIG A   1      -9.381   9.837 138.706  0.00  0.00    +0.002 A 
ATOM     40  C   LIG A   1      -8.336   9.511 139.568  0.00  0.00    +0.001 A 
ATOM     41  C   LIG A   1      -7.512   8.409 139.308  0.00  0.00    +0.010 A 
ATOM     42  C   LIG A   1      -7.729   7.647 138.144  0.00  0.00    +0.004 A 
ATOM     43  H   LIG A   1      -9.412   7.179 135.451  0.00  0.00    +0.166 HD
ENDBRANCH  29  30
ENDBRANCH   6  29
TORSDOF 12
ENDMDL
MODEL 3
REMARK VINA RESULT:      -8.6      3.454      7.316
REMARK  Name = NuBBE_101
REMARK  12 active torsions:
REMARK  status: ('A' for Active; 'I' for Inactive)
REMARK    1  A    between atoms: C_2  and  C_3
REMARK    2  A    between atoms: C_4  and  O_6
REMARK    3  A    between atoms: O_6  and  C_7
REMARK    4  A    between atoms: C_9  and  O_11
REMARK    5  A    between atoms: C_13  and  C_15
REMARK    6  A    between atoms: C_15  and  O_16
REMARK    7  A    between atoms: C_17  and  O_19
REMARK    8  A    between atoms: C_20  and  O_22
REMARK    9  A    between atoms: C_25  and  C_26
REMARK   10  A    between atoms: C_26  and  O_27
REMARK   11  A    between atoms: C_29  and  C_30
REMARK   12  A    between atoms: C_30  and  C_31
REMARK                            x       y       z     vdW  Elec       q    Type
REMARK                         _______ _______ _______ _____ _____    ______ ____
ROOT
ATOM      1  C   LIG A   1      -6.843   1.653 127.881  0.00  0.00    +0.088 C 
ATOM      2  C   LIG A   1      -7.276   2.266 129.247  0.00  0.00    +0.316 C 
ATOM      3  O   LIG A   1      -6.239   3.113 129.774  0.00  0.00    -0.470 OA
ATOM      4  C   LIG A   1      -5.500   3.819 128.867  0.00  0.00    +0.201 C 
ATOM      5  C   LIG A   1      -5.556   3.722 127.533  0.00  0.00    +0.075 C 
ATOM      6  C   LIG A   1      -6.520   2.767 126.831  0.00  0.00    +0.048 C 
ENDROOT
BRANCH   1   8
ATOM      7  C   LIG A   1      -7.636  -0.725 127.954  0.00  0.00    +0.004 C 
ATOM      8  C   LIG A   1      -7.725   0.507 127.426  0.00  0.00    -0.025 C 
ENDBRANCH   1   8
BRANCH   5   9
ATOM      9  C   LIG A   1      -4.517   4.415 126.737  0.00  0.00    +0.336 C 
ATOM     10  O   LIG A   1      -4.014   4.042 125.691  0.00  0.00    -0.245 OA
BRANCH   9  11
ATOM     11  O   LIG A   1      -4.052   5.510 127.339  0.00  0.00    -0.477 OA
ATOM     12  H   LIG A   1      -4.013   5.231 128.278  0.00  0.00    +0.295 HD
ENDBRANCH   9  11
ENDBRANCH   5   9
BRANCH   2  13
ATOM     13  O   LIG A   1      -8.535   2.960 129.214  0.00  0.00    -0.309 OA
BRANCH  13  14
ATOM     14  C   LIG A   1      -8.560   4.011 130.200  0.00  0.00    +0.286 C 
ATOM     15  C   LIG A   1      -9.572   5.114 129.806  0.00  0.00    +0.201 C 
ATOM     16  O   LIG A   1      -8.906   3.463 131.476  0.00  0.00    -0.340 OA
ATOM     17  C   LIG A   1      -8.844   4.421 132.534  0.00  0.00    +0.178 C 
ATOM     18  C   LIG A   1      -9.906   5.503 132.298  0.00  0.00    +0.177 C 
ATOM     19  C   LIG A   1      -9.668   6.156 130.934  0.00  0.00    +0.179 C 
BRANCH  15  20
ATOM     20  O   LIG A   1      -9.178   5.796 128.599  0.00  0.00    -0.384 OA
ATOM     21  H   LIG A   1      -8.638   6.551 128.910  0.00  0.00    +0.210 HD
ENDBRANCH  15  20
BRANCH  18  22
ATOM     22  O   LIG A   1      -9.902   6.518 133.311  0.00  0.00    -0.387 OA
ATOM     23  H   LIG A   1      -8.980   6.667 133.598  0.00  0.00    +0.210 HD
ENDBRANCH  18  22
BRANCH  19  24
ATOM     24  O   LIG A   1     -10.724   7.086 130.642  0.00  0.00    -0.386 OA
ATOM     25  H   LIG A   1     -11.041   6.864 129.743  0.00  0.00    +0.210 HD
ENDBRANCH  19  24
BRANCH  17  26
ATOM     26  C   LIG A   1      -9.047   3.688 133.865  0.00  0.00    +0.190 C 
BRANCH  26  27
ATOM     27  O   LIG A   1      -8.881   4.551 134.982  0.00  0.00    -0.392 OA
ATOM     28  H   LIG A   1      -8.305   4.087 135.623  0.00  0.00    +0.209 HD
ENDBRANCH  26  27
ENDBRANCH  17  26
ENDBRANCH  13  14
ENDBRANCH   2  13
BRANCH   6  29
ATOM     29  C   LIG A   1      -7.773   3.435 126.226  0.00  0.00    +0.066 C 
BRANCH  29  30
ATOM     30  C   LIG A   1      -8.186   2.916 124.855  0.00  0.00    +0.060 C 
ATOM     31  N   LIG A   1      -9.329   2.320 124.715  0.00  0.00    -0.286 NA
ATOM     32  C   LIG A   1      -9.654   1.714 123.393  0.00  0.00    +0.146 C 
ATOM     33  C   LIG A   1      -9.145   2.477 122.156  0.00  0.00    +0.061 C 
ATOM     34  C   LIG A   1      -7.802   3.050 122.413  0.00  0.00    -0.011 A 
ATOM     35  C   LIG A   1      -7.356   3.206 123.708  0.00  0.00    +0.065 A 
ATOM     36  N   LIG A   1      -6.104   3.761 123.649  0.00  0.00    -0.353 N 
ATOM     37  C   LIG A   1      -5.816   4.119 122.347  0.00  0.00    +0.047 A 
ATOM     38  C   LIG A   1      -4.728   4.837 121.836  0.00  0.00    +0.026 A 
ATOM     39  C   LIG A   1      -4.732   5.128 120.468  0.00  0.00    +0.002 A 
ATOM     40  C   LIG A   1      -5.762   4.683 119.642  0.00  0.00    +0.001 A 
ATOM     41  C   LIG A   1      -6.825   3.936 120.163  0.00  0.00    +0.010 A 
ATOM     42  C   LIG A   1      -6.863   3.664 121.544  0.00  0.00    +0.004 A 
ATOM     43  H   LIG A   1      -5.515   3.991 124.439  0.00  0.00    +0.166 HD
ENDBRANCH  29  30
ENDBRANCH   6  29
TORSDOF 12
ENDMDL
MODEL 4
REMARK VINA RESULT:      -8.6      1.154      2.132
REMARK  Name = NuBBE_101
REMARK  12 active torsions:
REMARK  status: ('A' for Active; 'I' for Inactive)
REMARK    1  A    between atoms: C_2  and  C_3
REMARK    2  A    between atoms: C_4  and  O_6
REMARK    3  A    between atoms: O_6  and  C_7
REMARK    4  A    between atoms: C_9  and  O_11
REMARK    5  A    between atoms: C_13  and  C_15
REMARK    6  A    between atoms: C_15  and  O_16
REMARK    7  A    between atoms: C_17  and  O_19
REMARK    8  A    between atoms: C_20  and  O_22
REMARK    9  A    between atoms: C_25  and  C_26
REMARK   10  A    between atoms: C_26  and  O_27
REMARK   11  A    between atoms: C_29  and  C_30
REMARK   12  A    between atoms: C_30  and  C_31
REMARK                            x       y       z     vdW  Elec       q    Type
REMARK                         _______ _______ _______ _____ _____    ______ ____
ROOT
ATOM      1  C   LIG A   1      -7.293   2.909 123.492  0.00  0.00    +0.088 C 
ATOM      2  C   LIG A   1      -7.227   3.091 125.038  0.00  0.00    +0.316 C 
ATOM      3  O   LIG A   1      -8.550   3.121 125.603  0.00  0.00    -0.470 OA
ATOM      4  C   LIG A   1      -9.491   2.328 125.008  0.00  0.00    +0.201 C 
ATOM      5  C   LIG A   1      -9.348   1.614 123.884  0.00  0.00    +0.075 C 
ATOM      6  C   LIG A   1      -8.037   1.589 123.102  0.00  0.00    +0.048 C 
ENDROOT
BRANCH   1   8
ATOM      7  C   LIG A   1      -5.890   3.361 121.463  0.00  0.00    +0.004 C 
ATOM      8  C   LIG A   1      -5.979   3.197 122.793  0.00  0.00    -0.025 C 
ENDBRANCH   1   8
BRANCH   5   9
ATOM      9  C   LIG A   1     -10.556   0.997 123.289  0.00  0.00    +0.336 C 
ATOM     10  O   LIG A   1     -10.634   0.388 122.236  0.00  0.00    -0.245 OA
BRANCH   9  11
ATOM     11  O   LIG A   1     -11.665   1.264 123.981  0.00  0.00    -0.477 OA
ATOM     12  H   LIG A   1     -12.367   1.119 123.313  0.00  0.00    +0.295 HD
ENDBRANCH   9  11
ENDBRANCH   5   9
BRANCH   2  13
ATOM     13  O   LIG A   1      -6.405   2.125 125.715  0.00  0.00    -0.309 OA
BRANCH  13  14
ATOM     14  C   LIG A   1      -5.801   2.706 126.887  0.00  0.00    +0.286 C 
ATOM     15  C   LIG A   1      -5.236   4.114 126.578  0.00  0.00    +0.201 C 
ATOM     16  O   LIG A   1      -6.770   2.787 127.937  0.00  0.00    -0.340 OA
ATOM     17  C   LIG A   1      -6.223   3.249 129.173  0.00  0.00    +0.178 C 
ATOM     18  C   LIG A   1      -5.742   4.696 129.003  0.00  0.00    +0.177 C 
ATOM     19  C   LIG A   1      -4.711   4.757 127.873  0.00  0.00    +0.179 C 
BRANCH  15  20
ATOM     20  O   LIG A   1      -4.150   4.059 125.633  0.00  0.00    -0.384 OA
ATOM     21  H   LIG A   1      -3.347   3.974 126.188  0.00  0.00    +0.210 HD
ENDBRANCH  15  20
BRANCH  18  22
ATOM     22  O   LIG A   1      -5.162   5.234 130.199  0.00  0.00    -0.387 OA
ATOM     23  H   LIG A   1      -4.358   5.733 129.957  0.00  0.00    +0.210 HD
ENDBRANCH  18  22
BRANCH  19  24
ATOM     24  O   LIG A   1      -4.341   6.121 127.618  0.00  0.00    -0.386 OA
ATOM     25  H   LIG A   1      -5.177   6.606 127.466  0.00  0.00    +0.210 HD
ENDBRANCH  19  24
BRANCH  17  26
ATOM     26  C   LIG A   1      -7.298   3.117 130.259  0.00  0.00    +0.190 C 
BRANCH  26  27
ATOM     27  O   LIG A   1      -6.747   3.186 131.567  0.00  0.00    -0.392 OA
ATOM     28  H   LIG A   1      -5.852   3.573 131.483  0.00  0.00    +0.209 HD
ENDBRANCH  26  27
ENDBRANCH  17  26
ENDBRANCH  13  14
ENDBRANCH   2  13
BRANCH   6  29
ATOM     29  C   LIG A   1      -7.186   0.315 123.296  0.00  0.00    +0.066 C 
BRANCH  29  30
ATOM     30  C   LIG A   1      -7.966  -0.930 123.695  0.00  0.00    +0.060 C 
ATOM     31  N   LIG A   1      -8.362  -1.757 122.779  0.00  0.00    -0.286 NA
ATOM     32  C   LIG A   1      -9.226  -2.901 123.182  0.00  0.00    +0.146 C 
ATOM     33  C   LIG A   1      -8.923  -3.526 124.556  0.00  0.00    +0.061 C 
ATOM     34  C   LIG A   1      -8.554  -2.477 125.537  0.00  0.00    -0.011 A 
ATOM     35  C   LIG A   1      -8.144  -1.236 125.096  0.00  0.00    +0.065 A 
ATOM     36  N   LIG A   1      -7.860  -0.479 126.202  0.00  0.00    -0.353 N 
ATOM     37  C   LIG A   1      -7.917  -1.269 127.333  0.00  0.00    +0.047 A 
ATOM     38  C   LIG A   1      -7.567  -0.968 128.655  0.00  0.00    +0.026 A 
ATOM     39  C   LIG A   1      -7.653  -1.998 129.596  0.00  0.00    +0.002 A 
ATOM     40  C   LIG A   1      -8.107  -3.265 129.237  0.00  0.00    +0.001 A 
ATOM     41  C   LIG A   1      -8.486  -3.540 127.917  0.00  0.00    +0.010 A 
ATOM     42  C   LIG A   1      -8.371  -2.530 126.943  0.00  0.00    +0.004 A 
ATOM     43  H   LIG A   1      -7.539   0.480 126.203  0.00  0.00    +0.166 HD
ENDBRANCH  29  30
ENDBRANCH   6  29
TORSDOF 12
ENDMDL
MODEL 5
REMARK VINA RESULT:      -8.6      3.557      7.699
REMARK  Name = NuBBE_101
REMARK  12 active torsions:
REMARK  status: ('A' for Active; 'I' for Inactive)
REMARK    1  A    between atoms: C_2  and  C_3
REMARK    2  A    between atoms: C_4  and  O_6
REMARK    3  A    between atoms: O_6  and  C_7
REMARK    4  A    between atoms: C_9  and  O_11
REMARK    5  A    between atoms: C_13  and  C_15
REMARK    6  A    between atoms: C_15  and  O_16
REMARK    7  A    between atoms: C_17  and  O_19
REMARK    8  A    between atoms: C_20  and  O_22
REMARK    9  A    between atoms: C_25  and  C_26
REMARK   10  A    between atoms: C_26  and  O_27
REMARK   11  A    between atoms: C_29  and  C_30
REMARK   12  A    between atoms: C_30  and  C_31
REMARK                            x       y       z     vdW  Elec       q    Type
REMARK                         _______ _______ _______ _____ _____    ______ ____
ROOT
ATOM      1  C   LIG A   1      -6.746   2.868 128.881  0.00  0.00    +0.088 C 
ATOM      2  C   LIG A   1      -6.615   4.107 129.818  0.00  0.00    +0.316 C 
ATOM      3  O   LIG A   1      -5.237   4.502 129.947  0.00  0.00    -0.470 OA
ATOM      4  C   LIG A   1      -4.445   4.342 128.845  0.00  0.00    +0.201 C 
ATOM      5  C   LIG A   1      -4.780   3.749 127.692  0.00  0.00    +0.075 C 
ATOM      6  C   LIG A   1      -6.172   3.165 127.457  0.00  0.00    +0.048 C 
ENDROOT
BRANCH   1   8
ATOM      7  C   LIG A   1      -8.262   0.871 128.798  0.00  0.00    +0.004 C 
ATOM      8  C   LIG A   1      -8.103   2.196 128.956  0.00  0.00    -0.025 C 
ENDBRANCH   1   8
BRANCH   5   9
ATOM      9  C   LIG A   1      -3.709   3.483 126.705  0.00  0.00    +0.336 C 
ATOM     10  O   LIG A   1      -3.650   3.875 125.551  0.00  0.00    -0.245 OA
BRANCH   9  11
ATOM     11  O   LIG A   1      -2.788   2.632 127.160  0.00  0.00    -0.477 OA
ATOM     12  H   LIG A   1      -2.437   2.242 126.332  0.00  0.00    +0.295 HD
ENDBRANCH   9  11
ENDBRANCH   5   9
BRANCH   2  13
ATOM     13  O   LIG A   1      -7.433   5.227 129.439  0.00  0.00    -0.309 OA
BRANCH  13  14
ATOM     14  C   LIG A   1      -8.704   5.178 130.117  0.00  0.00    +0.286 C 
ATOM     15  C   LIG A   1      -8.583   5.730 131.558  0.00  0.00    +0.201 C 
ATOM     16  O   LIG A   1      -9.670   5.936 129.383  0.00  0.00    -0.340 OA
ATOM     17  C   LIG A   1     -10.987   5.847 129.928  0.00  0.00    +0.178 C 
ATOM     18  C   LIG A   1     -11.000   6.487 131.323  0.00  0.00    +0.177 C 
ATOM     19  C   LIG A   1      -9.974   5.780 132.212  0.00  0.00    +0.179 C 
BRANCH  15  20
ATOM     20  O   LIG A   1      -7.732   4.904 132.378  0.00  0.00    -0.384 OA
ATOM     21  H   LIG A   1      -8.200   4.851 133.238  0.00  0.00    +0.210 HD
ENDBRANCH  15  20
BRANCH  18  22
ATOM     22  O   LIG A   1     -12.288   6.427 131.951  0.00  0.00    -0.387 OA
ATOM     23  H   LIG A   1     -12.964   6.280 131.261  0.00  0.00    +0.210 HD
ENDBRANCH  18  22
BRANCH  19  24
ATOM     24  O   LIG A   1      -9.885   6.445 133.483  0.00  0.00    -0.386 OA
ATOM     25  H   LIG A   1      -9.289   7.209 133.350  0.00  0.00    +0.210 HD
ENDBRANCH  19  24
BRANCH  17  26
ATOM     26  C   LIG A   1     -11.960   6.536 128.963  0.00  0.00    +0.190 C 
BRANCH  26  27
ATOM     27  O   LIG A   1     -12.381   7.805 129.445  0.00  0.00    -0.392 OA
ATOM     28  H   LIG A   1     -12.628   7.689 130.385  0.00  0.00    +0.209 HD
ENDBRANCH  26  27
ENDBRANCH  17  26
ENDBRANCH  13  14
ENDBRANCH   2  13
BRANCH   6  29
ATOM     29  C   LIG A   1      -7.101   4.028 126.577  0.00  0.00    +0.066 C 
BRANCH  29  30
ATOM     30  C   LIG A   1      -7.680   3.323 125.358  0.00  0.00    +0.060 C 
ATOM     31  N   LIG A   1      -8.809   2.695 125.459  0.00  0.00    -0.286 NA
ATOM     32  C   LIG A   1      -9.291   1.912 124.287  0.00  0.00    +0.146 C 
ATOM     33  C   LIG A   1      -8.983   2.509 122.901  0.00  0.00    +0.061 C 
ATOM     34  C   LIG A   1      -7.638   3.133 122.890  0.00  0.00    -0.011 A 
ATOM     35  C   LIG A   1      -7.024   3.470 124.078  0.00  0.00    +0.065 A 
ATOM     36  N   LIG A   1      -5.812   4.031 123.772  0.00  0.00    -0.353 N 
ATOM     37  C   LIG A   1      -5.717   4.215 122.408  0.00  0.00    +0.047 A 
ATOM     38  C   LIG A   1      -4.735   4.875 121.659  0.00  0.00    +0.026 A 
ATOM     39  C   LIG A   1      -4.936   4.979 120.279  0.00  0.00    +0.002 A 
ATOM     40  C   LIG A   1      -6.053   4.411 119.670  0.00  0.00    +0.001 A 
ATOM     41  C   LIG A   1      -7.008   3.724 120.429  0.00  0.00    +0.010 A 
ATOM     42  C   LIG A   1      -6.848   3.639 121.825  0.00  0.00    +0.004 A 
ATOM     43  H   LIG A   1      -5.129   4.375 124.434  0.00  0.00    +0.166 HD
ENDBRANCH  29  30
ENDBRANCH   6  29
TORSDOF 12
ENDMDL
MODEL 6
REMARK VINA RESULT:      -8.3      2.317      4.528
REMARK  Name = NuBBE_101
REMARK  12 active torsions:
REMARK  status: ('A' for Active; 'I' for Inactive)
REMARK    1  A    between atoms: C_2  and  C_3
REMARK    2  A    between atoms: C_4  and  O_6
REMARK    3  A    between atoms: O_6  and  C_7
REMARK    4  A    between atoms: C_9  and  O_11
REMARK    5  A    between atoms: C_13  and  C_15
REMARK    6  A    between atoms: C_15  and  O_16
REMARK    7  A    between atoms: C_17  and  O_19
REMARK    8  A    between atoms: C_20  and  O_22
REMARK    9  A    between atoms: C_25  and  C_26
REMARK   10  A    between atoms: C_26  and  O_27
REMARK   11  A    between atoms: C_29  and  C_30
REMARK   12  A    between atoms: C_30  and  C_31
REMARK                            x       y       z     vdW  Elec       q    Type
REMARK                         _______ _______ _______ _____ _____    ______ ____
ROOT
ATOM      1  C   LIG A   1      -4.362   3.597 126.336  0.00  0.00    +0.088 C 
ATOM      2  C   LIG A   1      -4.862   4.925 126.980  0.00  0.00    +0.316 C 
ATOM      3  O   LIG A   1      -5.581   5.717 126.018  0.00  0.00    -0.470 OA
ATOM      4  C   LIG A   1      -6.324   5.037 125.094  0.00  0.00    +0.201 C 
ATOM      5  C   LIG A   1      -6.365   3.711 124.912  0.00  0.00    +0.075 C 
ATOM      6  C   LIG A   1      -5.552   2.750 125.776  0.00  0.00    +0.048 C 
ENDROOT
BRANCH   1   8
ATOM      7  C   LIG A   1      -2.008   3.081 127.034  0.00  0.00    +0.004 C 
ATOM      8  C   LIG A   1      -3.328   2.871 127.174  0.00  0.00    -0.025 C 
ENDBRANCH   1   8
BRANCH   5   9
ATOM      9  C   LIG A   1      -7.064   3.191 123.714  0.00  0.00    +0.336 C 
ATOM     10  O   LIG A   1      -6.676   2.327 122.946  0.00  0.00    -0.245 OA
BRANCH   9  11
ATOM     11  O   LIG A   1      -8.189   3.856 123.445  0.00  0.00    -0.477 OA
ATOM     12  H   LIG A   1      -7.951   4.350 122.633  0.00  0.00    +0.295 HD
ENDBRANCH   9  11
ENDBRANCH   5   9
BRANCH   2  13
ATOM     13  O   LIG A   1      -5.637   4.749 128.178  0.00  0.00    -0.309 OA
BRANCH  13  14
ATOM     14  C   LIG A   1      -5.072   5.508 129.264  0.00  0.00    +0.286 C 
ATOM     15  C   LIG A   1      -4.043   4.663 130.053  0.00  0.00    +0.201 C 
ATOM     16  O   LIG A   1      -4.445   6.688 128.750  0.00  0.00    -0.340 OA
ATOM     17  C   LIG A   1      -3.956   7.556 129.774  0.00  0.00    +0.178 C 
ATOM     18  C   LIG A   1      -2.833   6.847 130.542  0.00  0.00    +0.177 C 
ATOM     19  C   LIG A   1      -3.368   5.537 131.125  0.00  0.00    +0.179 C 
BRANCH  15  20
ATOM     20  O   LIG A   1      -4.664   3.543 130.714  0.00  0.00    -0.384 OA
ATOM     21  H   LIG A   1      -4.582   2.806 130.073  0.00  0.00    +0.210 HD
ENDBRANCH  15  20
BRANCH  18  22
ATOM     22  O   LIG A   1      -2.293   7.647 131.603  0.00  0.00    -0.387 OA
ATOM     23  H   LIG A   1      -1.401   7.314 131.821  0.00  0.00    +0.210 HD
ENDBRANCH  18  22
BRANCH  19  24
ATOM     24  O   LIG A   1      -2.300   4.801 131.743  0.00  0.00    -0.386 OA
ATOM     25  H   LIG A   1      -2.672   3.927 131.979  0.00  0.00    +0.210 HD
ENDBRANCH  19  24
BRANCH  17  26
ATOM     26  C   LIG A   1      -3.481   8.859 129.119  0.00  0.00    +0.190 C 
BRANCH  26  27
ATOM     27  O   LIG A   1      -4.270   9.973 129.512  0.00  0.00    -0.392 OA
ATOM     28  H   LIG A   1      -4.984   9.632 130.088  0.00  0.00    +0.209 HD
ENDBRANCH  26  27
ENDBRANCH  17  26
ENDBRANCH  13  14
ENDBRANCH   2  13
BRANCH   6  29
ATOM     29  C   LIG A   1      -6.358   2.012 126.865  0.00  0.00    +0.066 C 
BRANCH  29  30
ATOM     30  C   LIG A   1      -6.110   0.512 126.951  0.00  0.00    +0.060 C 
ATOM     31  N   LIG A   1      -5.471   0.026 127.968  0.00  0.00    -0.286 NA
ATOM     32  C   LIG A   1      -5.135  -1.425 127.967  0.00  0.00    +0.146 C 
ATOM     33  C   LIG A   1      -6.179  -2.360 127.329  0.00  0.00    +0.061 C 
ATOM     34  C   LIG A   1      -6.787  -1.726 126.135  0.00  0.00    -0.011 A 
ATOM     35  C   LIG A   1      -6.700  -0.361 125.961  0.00  0.00    +0.065 A 
ATOM     36  N   LIG A   1      -7.349  -0.052 124.794  0.00  0.00    -0.353 N 
ATOM     37  C   LIG A   1      -7.995  -1.172 124.311  0.00  0.00    +0.047 A 
ATOM     38  C   LIG A   1      -8.887  -1.300 123.240  0.00  0.00    +0.026 A 
ATOM     39  C   LIG A   1      -9.459  -2.557 123.022  0.00  0.00    +0.002 A 
ATOM     40  C   LIG A   1      -9.121  -3.649 123.819  0.00  0.00    +0.001 A 
ATOM     41  C   LIG A   1      -8.201  -3.512 124.865  0.00  0.00    +0.010 A 
ATOM     42  C   LIG A   1      -7.641  -2.247 125.129  0.00  0.00    +0.004 A 
ATOM     43  H   LIG A   1      -7.452   0.872 124.394  0.00  0.00    +0.166 HD
ENDBRANCH  29  30
ENDBRANCH   6  29
TORSDOF 12
ENDMDL
MODEL 7
REMARK VINA RESULT:      -8.3      3.685      6.687
REMARK  Name = NuBBE_101
REMARK  12 active torsions:
REMARK  status: ('A' for Active; 'I' for Inactive)
REMARK    1  A    between atoms: C_2  and  C_3
REMARK    2  A    between atoms: C_4  and  O_6
REMARK    3  A    between atoms: O_6  and  C_7
REMARK    4  A    between atoms: C_9  and  O_11
REMARK    5  A    between atoms: C_13  and  C_15
REMARK    6  A    between atoms: C_15  and  O_16
REMARK    7  A    between atoms: C_17  and  O_19
REMARK    8  A    between atoms: C_20  and  O_22
REMARK    9  A    between atoms: C_25  and  C_26
REMARK   10  A    between atoms: C_26  and  O_27
REMARK   11  A    between atoms: C_29  and  C_30
REMARK   12  A    between atoms: C_30  and  C_31
REMARK                            x       y       z     vdW  Elec       q    Type
REMARK                         _______ _______ _______ _____ _____    ______ ____
ROOT
ATOM      1  C   LIG A   1      -7.605   2.681 130.000  0.00  0.00    +0.088 C 
ATOM      2  C   LIG A   1      -8.042   4.148 129.706  0.00  0.00    +0.316 C 
ATOM      3  O   LIG A   1      -7.027   4.838 128.955  0.00  0.00    -0.470 OA
ATOM      4  C   LIG A   1      -6.322   4.099 128.049  0.00  0.00    +0.201 C 
ATOM      5  C   LIG A   1      -6.390   2.775 127.862  0.00  0.00    +0.075 C 
ATOM      6  C   LIG A   1      -7.330   1.890 128.678  0.00  0.00    +0.048 C 
ENDROOT
BRANCH   1   8
ATOM      7  C   LIG A   1      -8.124   0.810 131.589  0.00  0.00    +0.004 C 
ATOM      8  C   LIG A   1      -8.455   1.997 131.053  0.00  0.00    -0.025 C 
ENDBRANCH   1   8
BRANCH   5   9
ATOM      9  C   LIG A   1      -5.383   2.139 126.981  0.00  0.00    +0.336 C 
ATOM     10  O   LIG A   1      -5.075   2.471 125.849  0.00  0.00    -0.245 OA
BRANCH   9  11
ATOM     11  O   LIG A   1      -4.868   1.027 127.506  0.00  0.00    -0.477 OA
ATOM     12  H   LIG A   1      -4.693   0.482 126.710  0.00  0.00    +0.295 HD
ENDBRANCH   9  11
ENDBRANCH   5   9
BRANCH   2  13
ATOM     13  O   LIG A   1      -9.323   4.268 129.064  0.00  0.00    -0.309 OA
BRANCH  13  14
ATOM     14  C   LIG A   1      -9.700   5.653 128.942  0.00  0.00    +0.286 C 
ATOM     15  C   LIG A   1     -10.050   6.004 127.475  0.00  0.00    +0.201 C 
ATOM     16  O   LIG A   1     -10.822   5.922 129.790  0.00  0.00    -0.340 OA
ATOM     17  C   LIG A   1     -11.190   7.302 129.814  0.00  0.00    +0.178 C 
ATOM     18  C   LIG A   1     -11.675   7.719 128.419  0.00  0.00    +0.177 C 
ATOM     19  C   LIG A   1     -10.567   7.451 127.398  0.00  0.00    +0.179 C 
BRANCH  15  20
ATOM     20  O   LIG A   1      -8.903   5.891 126.610  0.00  0.00    -0.384 OA
ATOM     21  H   LIG A   1      -8.645   6.818 126.425  0.00  0.00    +0.210 HD
ENDBRANCH  15  20
BRANCH  18  22
ATOM     22  O   LIG A   1     -12.052   9.101 128.351  0.00  0.00    -0.387 OA
ATOM     23  H   LIG A   1     -11.847   9.436 127.457  0.00  0.00    +0.210 HD
ENDBRANCH  18  22
BRANCH  19  24
ATOM     24  O   LIG A   1     -11.046   7.721 126.070  0.00  0.00    -0.386 OA
ATOM     25  H   LIG A   1     -11.871   8.236 126.178  0.00  0.00    +0.210 HD
ENDBRANCH  19  24
BRANCH  17  26
ATOM     26  C   LIG A   1     -12.268   7.498 130.887  0.00  0.00    +0.190 C 
BRANCH  26  27
ATOM     27  O   LIG A   1     -12.345   6.391 131.775  0.00  0.00    -0.392 OA
ATOM     28  H   LIG A   1     -12.449   5.587 131.226  0.00  0.00    +0.209 HD
ENDBRANCH  26  27
ENDBRANCH  17  26
ENDBRANCH  13  14
ENDBRANCH   2  13
BRANCH   6  29
ATOM     29  C   LIG A   1      -8.611   1.446 127.940  0.00  0.00    +0.066 C 
BRANCH  29  30
ATOM     30  C   LIG A   1      -8.548   1.531 126.422  0.00  0.00    +0.060 C 
ATOM     31  N   LIG A   1      -8.790   2.660 125.834  0.00  0.00    -0.286 NA
ATOM     32  C   LIG A   1      -8.842   2.688 124.346  0.00  0.00    +0.146 C 
ATOM     33  C   LIG A   1      -7.854   1.758 123.617  0.00  0.00    +0.061 C 
ATOM     34  C   LIG A   1      -7.716   0.473 124.344  0.00  0.00    -0.011 A 
ATOM     35  C   LIG A   1      -8.095   0.385 125.666  0.00  0.00    +0.065 A 
ATOM     36  N   LIG A   1      -7.850  -0.898 126.081  0.00  0.00    -0.353 N 
ATOM     37  C   LIG A   1      -7.163  -1.581 125.098  0.00  0.00    +0.047 A 
ATOM     38  C   LIG A   1      -6.583  -2.855 125.130  0.00  0.00    +0.026 A 
ATOM     39  C   LIG A   1      -5.870  -3.269 124.001  0.00  0.00    +0.002 A 
ATOM     40  C   LIG A   1      -5.775  -2.457 122.873  0.00  0.00    +0.001 A 
ATOM     41  C   LIG A   1      -6.390  -1.199 122.843  0.00  0.00    +0.010 A 
ATOM     42  C   LIG A   1      -7.081  -0.744 123.983  0.00  0.00    +0.004 A 
ATOM     43  H   LIG A   1      -8.030  -1.272 127.004  0.00  0.00    +0.166 HD
ENDBRANCH  29  30
ENDBRANCH   6  29
TORSDOF 12
ENDMDL
MODEL 8
REMARK VINA RESULT:      -8.2      4.029      6.558
REMARK  Name = NuBBE_101
REMARK  12 active torsions:
REMARK  status: ('A' for Active; 'I' for Inactive)
REMARK    1  A    between atoms: C_2  and  C_3
REMARK    2  A    between atoms: C_4  and  O_6
REMARK    3  A    between atoms: O_6  and  C_7
REMARK    4  A    between atoms: C_9  and  O_11
REMARK    5  A    between atoms: C_13  and  C_15
REMARK    6  A    between atoms: C_15  and  O_16
REMARK    7  A    between atoms: C_17  and  O_19
REMARK    8  A    between atoms: C_20  and  O_22
REMARK    9  A    between atoms: C_25  and  C_26
REMARK   10  A    between atoms: C_26  and  O_27
REMARK   11  A    between atoms: C_29  and  C_30
REMARK   12  A    between atoms: C_30  and  C_31
REMARK                            x       y       z     vdW  Elec       q    Type
REMARK                         _______ _______ _______ _____ _____    ______ ____
ROOT
ATOM      1  C   LIG A   1      -7.000   4.085 128.724  0.00  0.00    +0.088 C 
ATOM      2  C   LIG A   1      -8.424   4.688 128.920  0.00  0.00    +0.316 C 
ATOM      3  O   LIG A   1      -8.843   5.395 127.740  0.00  0.00    -0.470 OA
ATOM      4  C   LIG A   1      -8.432   4.887 126.540  0.00  0.00    +0.201 C 
ATOM      5  C   LIG A   1      -7.586   3.868 126.344  0.00  0.00    +0.075 C 
ATOM      6  C   LIG A   1      -6.958   3.103 127.507  0.00  0.00    +0.048 C 
ENDROOT
BRANCH   1   8
ATOM      7  C   LIG A   1      -5.031   3.476 130.153  0.00  0.00    +0.004 C 
ATOM      8  C   LIG A   1      -6.360   3.616 130.015  0.00  0.00    -0.025 C 
ENDBRANCH   1   8
BRANCH   5   9
ATOM      9  C   LIG A   1      -7.101   3.616 124.967  0.00  0.00    +0.336 C 
ATOM     10  O   LIG A   1      -6.022   3.156 124.635  0.00  0.00    -0.245 OA
BRANCH   9  11
ATOM     11  O   LIG A   1      -7.946   4.058 124.034  0.00  0.00    -0.477 OA
ATOM     12  H   LIG A   1      -8.816   3.791 124.398  0.00  0.00    +0.295 HD
ENDBRANCH   9  11
ENDBRANCH   5   9
BRANCH   2  13
ATOM     13  O   LIG A   1      -9.422   3.735 129.325  0.00  0.00    -0.309 OA
BRANCH  13  14
ATOM     14  C   LIG A   1     -10.437   4.372 130.124  0.00  0.00    +0.286 C 
ATOM     15  C   LIG A   1      -9.813   5.077 131.352  0.00  0.00    +0.201 C 
ATOM     16  O   LIG A   1     -11.151   5.322 129.325  0.00  0.00    -0.340 OA
ATOM     17  C   LIG A   1     -12.252   5.919 130.012  0.00  0.00    +0.178 C 
ATOM     18  C   LIG A   1     -11.722   6.751 131.187  0.00  0.00    +0.177 C 
ATOM     19  C   LIG A   1     -10.903   5.851 132.115  0.00  0.00    +0.179 C 
BRANCH  15  20
ATOM     20  O   LIG A   1      -9.212   4.136 132.262  0.00  0.00    -0.384 OA
ATOM     21  H   LIG A   1      -9.515   3.260 131.943  0.00  0.00    +0.210 HD
ENDBRANCH  15  20
BRANCH  18  22
ATOM     22  O   LIG A   1     -12.769   7.377 131.942  0.00  0.00    -0.387 OA
ATOM     23  H   LIG A   1     -13.415   6.693 132.203  0.00  0.00    +0.210 HD
ENDBRANCH  18  22
BRANCH  19  24
ATOM     24  O   LIG A   1     -10.297   6.637 133.154  0.00  0.00    -0.386 OA
ATOM     25  H   LIG A   1     -10.803   6.445 133.970  0.00  0.00    +0.210 HD
ENDBRANCH  19  24
BRANCH  17  26
ATOM     26  C   LIG A   1     -13.046   6.766 129.010  0.00  0.00    +0.190 C 
BRANCH  26  27
ATOM     27  O   LIG A   1     -12.686   8.140 129.069  0.00  0.00    -0.392 OA
ATOM     28  H   LIG A   1     -11.709   8.182 129.089  0.00  0.00    +0.209 HD
ENDBRANCH  26  27
ENDBRANCH  17  26
ENDBRANCH  13  14
ENDBRANCH   2  13
BRANCH   6  29
ATOM     29  C   LIG A   1      -7.590   1.724 127.796  0.00  0.00    +0.066 C 
BRANCH  29  30
ATOM     30  C   LIG A   1      -6.612   0.557 127.829  0.00  0.00    +0.060 C 
ATOM     31  N   LIG A   1      -6.197   0.103 128.970  0.00  0.00    -0.286 NA
ATOM     32  C   LIG A   1      -5.149  -0.956 128.972  0.00  0.00    +0.146 C 
ATOM     33  C   LIG A   1      -5.230  -1.990 127.834  0.00  0.00    +0.061 C 
ATOM     34  C   LIG A   1      -5.642  -1.339 126.567  0.00  0.00    -0.011 A 
ATOM     35  C   LIG A   1      -6.259  -0.106 126.595  0.00  0.00    +0.065 A 
ATOM     36  N   LIG A   1      -6.535   0.246 125.299  0.00  0.00    -0.353 N 
ATOM     37  C   LIG A   1      -6.262  -0.816 124.461  0.00  0.00    +0.047 A 
ATOM     38  C   LIG A   1      -6.519  -0.967 123.093  0.00  0.00    +0.026 A 
ATOM     39  C   LIG A   1      -6.203  -2.196 122.508  0.00  0.00    +0.002 A 
ATOM     40  C   LIG A   1      -5.617  -3.217 123.253  0.00  0.00    +0.001 A 
ATOM     41  C   LIG A   1      -5.334  -3.038 124.612  0.00  0.00    +0.010 A 
ATOM     42  C   LIG A   1      -5.679  -1.822 125.233  0.00  0.00    +0.004 A 
ATOM     43  H   LIG A   1      -6.983   1.101 124.995  0.00  0.00    +0.166 HD
ENDBRANCH  29  30
ENDBRANCH   6  29
TORSDOF 12
ENDMDL
MODEL 9
REMARK VINA RESULT:      -8.2      4.939      8.933
REMARK  Name = NuBBE_101
REMARK  12 active torsions:
REMARK  status: ('A' for Active; 'I' for Inactive)
REMARK    1  A    between atoms: C_2  and  C_3
REMARK    2  A    between atoms: C_4  and  O_6
REMARK    3  A    between atoms: O_6  and  C_7
REMARK    4  A    between atoms: C_9  and  O_11
REMARK    5  A    between atoms: C_13  and  C_15
REMARK    6  A    between atoms: C_15  and  O_16
REMARK    7  A    between atoms: C_17  and  O_19
REMARK    8  A    between atoms: C_20  and  O_22
REMARK    9  A    between atoms: C_25  and  C_26
REMARK   10  A    between atoms: C_26  and  O_27
REMARK   11  A    between atoms: C_29  and  C_30
REMARK   12  A    between atoms: C_30  and  C_31
REMARK                            x       y       z     vdW  Elec       q    Type
REMARK                         _______ _______ _______ _____ _____    ______ ____
ROOT
ATOM      1  C   LIG A   1      -6.451   5.693 132.293  0.00  0.00    +0.088 C 
ATOM      2  C   LIG A   1      -7.525   6.213 131.291  0.00  0.00    +0.316 C 
ATOM      3  O   LIG A   1      -7.092   7.437 130.672  0.00  0.00    -0.470 OA
ATOM      4  C   LIG A   1      -5.754   7.562 130.425  0.00  0.00    +0.201 C 
ATOM      5  C   LIG A   1      -4.784   6.719 130.801  0.00  0.00    +0.075 C 
ATOM      6  C   LIG A   1      -5.080   5.440 131.582  0.00  0.00    +0.048 C 
ENDROOT
BRANCH   1   8
ATOM      7  C   LIG A   1      -7.537   4.879 134.403  0.00  0.00    +0.004 C 
ATOM      8  C   LIG A   1      -6.962   4.608 133.219  0.00  0.00    -0.025 C 
ENDBRANCH   1   8
BRANCH   5   9
ATOM      9  C   LIG A   1      -3.377   7.149 130.626  0.00  0.00    +0.336 C 
ATOM     10  O   LIG A   1      -2.537   7.308 131.495  0.00  0.00    -0.245 OA
BRANCH   9  11
ATOM     11  O   LIG A   1      -3.093   7.479 129.365  0.00  0.00    -0.477 OA
ATOM     12  H   LIG A   1      -3.605   6.817 128.856  0.00  0.00    +0.295 HD
ENDBRANCH   9  11
ENDBRANCH   5   9
BRANCH   2  13
ATOM     13  O   LIG A   1      -7.925   5.252 130.299  0.00  0.00    -0.309 OA
BRANCH  13  14
ATOM     14  C   LIG A   1      -9.305   5.447 129.933  0.00  0.00    +0.286 C 
ATOM     15  C   LIG A   1     -10.185   5.668 131.187  0.00  0.00    +0.201 C 
ATOM     16  O   LIG A   1      -9.415   6.571 129.054  0.00  0.00    -0.340 OA
ATOM     17  C   LIG A   1     -10.739   6.765 128.552  0.00  0.00    +0.178 C 
ATOM     18  C   LIG A   1     -11.673   7.116 129.717  0.00  0.00    +0.177 C 
ATOM     19  C   LIG A   1     -11.626   5.996 130.759  0.00  0.00    +0.179 C 
BRANCH  15  20
ATOM     20  O   LIG A   1     -10.222   4.499 132.029  0.00  0.00    -0.384 OA
ATOM     21  H   LIG A   1     -11.091   4.550 132.479  0.00  0.00    +0.210 HD
ENDBRANCH  15  20
BRANCH  18  22
ATOM     22  O   LIG A   1     -13.031   7.314 129.301  0.00  0.00    -0.387 OA
ATOM     23  H   LIG A   1     -13.507   6.464 129.378  0.00  0.00    +0.210 HD
ENDBRANCH  18  22
BRANCH  19  24
ATOM     24  O   LIG A   1     -12.399   6.363 131.912  0.00  0.00    -0.386 OA
ATOM     25  H   LIG A   1     -13.148   6.898 131.579  0.00  0.00    +0.210 HD
ENDBRANCH  19  24
BRANCH  17  26
ATOM     26  C   LIG A   1     -10.696   7.868 127.487  0.00  0.00    +0.190 C 
BRANCH  26  27
ATOM     27  O   LIG A   1     -11.107   9.126 128.005  0.00  0.00    -0.392 OA
ATOM     28  H   LIG A   1     -11.229   9.726 127.242  0.00  0.00    +0.209 HD
ENDBRANCH  26  27
ENDBRANCH  17  26
ENDBRANCH  13  14
ENDBRANCH   2  13
BRANCH   6  29
ATOM     29  C   LIG A   1      -5.043   4.143 130.745  0.00  0.00    +0.066 C 
BRANCH  29  30
ATOM     30  C   LIG A   1      -4.314   4.252 129.413  0.00  0.00    +0.060 C 
ATOM     31  N   LIG A   1      -3.020   4.182 129.385  0.00  0.00    -0.286 NA
ATOM     32  C   LIG A   1      -2.327   4.414 128.087  0.00  0.00    +0.146 C 
ATOM     33  C   LIG A   1      -3.048   3.891 126.832  0.00  0.00    +0.061 C 
ATOM     34  C   LIG A   1      -4.513   4.091 126.950  0.00  0.00    -0.011 A 
ATOM     35  C   LIG A   1      -5.081   4.304 128.189  0.00  0.00    +0.065 A 
ATOM     36  N   LIG A   1      -6.431   4.445 128.004  0.00  0.00    -0.353 N 
ATOM     37  C   LIG A   1      -6.754   4.154 126.694  0.00  0.00    +0.047 A 
ATOM     38  C   LIG A   1      -8.009   4.027 126.087  0.00  0.00    +0.026 A 
ATOM     39  C   LIG A   1      -8.042   3.643 124.744  0.00  0.00    +0.002 A 
ATOM     40  C   LIG A   1      -6.865   3.432 124.028  0.00  0.00    +0.001 A 
ATOM     41  C   LIG A   1      -5.617   3.596 124.639  0.00  0.00    +0.010 A 
ATOM     42  C   LIG A   1      -5.559   3.946 126.003  0.00  0.00    +0.004 A 
ATOM     43  H   LIG A   1      -7.118   4.616 128.727  0.00  0.00    +0.166 HD
ENDBRANCH  29  30
ENDBRANCH   6  29
TORSDOF 12
ENDMDL
