MODEL 1
REMARK VINA RESULT:      -6.8      0.000      0.000
REMARK  Name = NuBBE_1874
REMARK  10 active torsions:
REMARK  status: ('A' for Active; 'I' for Inactive)
REMARK    1  A    between atoms: C_4  and  O_26
REMARK    2  A    between atoms: C_5  and  O_6
REMARK    3  A    between atoms: C_7  and  O_24
REMARK    4  A    between atoms: C_11  and  C_12
REMARK    5  A    between atoms: C_15  and  O_19
REMARK    6  A    between atoms: C_16  and  O_17
REMARK    7  A    between atoms: O_19  and  C_20
REMARK    8  A    between atoms: C_21  and  O_22
REMARK    9  A    between atoms: O_22  and  C_23
REMARK   10  A    between atoms: O_24  and  C_25
REMARK                            x       y       z     vdW  Elec       q    Type
REMARK                         _______ _______ _______ _____ _____    ______ ____
ROOT
ATOM      1  O   LIG A   1      -7.580   5.832 133.479  0.00  0.00    -0.283 OA
ATOM      2  C   LIG A   1      -7.499   5.591 132.267  0.00  0.00    +0.238 A 
ATOM      3  C   LIG A   1      -8.729   5.674 131.480  0.00  0.00    +0.113 A 
ATOM      4  C   LIG A   1      -9.930   6.044 132.068  0.00  0.00    +0.177 A 
ATOM      5  C   LIG A   1     -11.088   6.138 131.305  0.00  0.00    +0.202 A 
ATOM      6  C   LIG A   1     -11.066   5.865 129.933  0.00  0.00    +0.169 A 
ATOM      7  C   LIG A   1      -9.847   5.484 129.348  0.00  0.00    +0.096 A 
ATOM      8  C   LIG A   1      -8.683   5.388 130.123  0.00  0.00    +0.147 A 
ATOM      9  O   LIG A   1      -7.526   5.010 129.502  0.00  0.00    -0.451 OA
ATOM     10  C   LIG A   1      -6.354   4.966 130.243  0.00  0.00    +0.181 A 
ATOM     11  C   LIG A   1      -6.237   5.236 131.563  0.00  0.00    +0.211 A 
ENDROOT
BRANCH  10  12
ATOM     12  C   LIG A   1      -5.206   4.586 129.410  0.00  0.00    +0.025 A 
ATOM     13  C   LIG A   1      -4.949   3.234 129.143  0.00  0.00    +0.015 A 
ATOM     14  C   LIG A   1      -3.786   2.851 128.465  0.00  0.00    +0.050 A 
ATOM     15  C   LIG A   1      -2.863   3.815 128.061  0.00  0.00    +0.161 A 
ATOM     16  C   LIG A   1      -3.136   5.162 128.327  0.00  0.00    +0.159 A 
ATOM     17  C   LIG A   1      -4.300   5.557 128.977  0.00  0.00    +0.060 A 
BRANCH  16  18
ATOM     18  O   LIG A   1      -2.229   6.133 127.994  0.00  0.00    -0.503 OA
ATOM     19  H   LIG A   1      -2.221   6.148 127.018  0.00  0.00    +0.292 HD
ENDBRANCH  16  18
BRANCH  15  20
ATOM     20  O   LIG A   1      -1.673   3.570 127.425  0.00  0.00    -0.491 OA
ATOM     21  C   LIG A   1      -1.762   3.117 126.078  0.00  0.00    +0.277 C 
ENDBRANCH  15  20
ENDBRANCH  10  12
BRANCH   5  22
ATOM     22  O   LIG A   1     -12.217   6.514 131.983  0.00  0.00    -0.501 OA
ATOM     23  H   LIG A   1     -12.508   5.709 132.459  0.00  0.00    +0.292 HD
ENDBRANCH   5  22
BRANCH  11  24
ATOM     24  O   LIG A   1      -4.999   5.170 132.188  0.00  0.00    -0.488 OA
ATOM     25  C   LIG A   1      -4.699   3.998 132.939  0.00  0.00    +0.277 C 
ENDBRANCH  11  24
BRANCH   6  26
ATOM     26  O   LIG A   1     -12.132   5.932 129.072  0.00  0.00    -0.491 OA
ATOM     27  C   LIG A   1     -12.342   7.197 128.444  0.00  0.00    +0.277 C 
ENDBRANCH   6  26
BRANCH   4  28
ATOM     28  O   LIG A   1     -10.074   6.343 133.405  0.00  0.00    -0.503 OA
ATOM     29  H   LIG A   1      -9.687   7.236 133.549  0.00  0.00    +0.292 HD
ENDBRANCH   4  28
TORSDOF 7
ENDMDL
MODEL 2
REMARK VINA RESULT:      -6.7      3.683      7.340
REMARK  Name = NuBBE_1874
REMARK  10 active torsions:
REMARK  status: ('A' for Active; 'I' for Inactive)
REMARK    1  A    between atoms: C_4  and  O_26
REMARK    2  A    between atoms: C_5  and  O_6
REMARK    3  A    between atoms: C_7  and  O_24
REMARK    4  A    between atoms: C_11  and  C_12
REMARK    5  A    between atoms: C_15  and  O_19
REMARK    6  A    between atoms: C_16  and  O_17
REMARK    7  A    between atoms: O_19  and  C_20
REMARK    8  A    between atoms: C_21  and  O_22
REMARK    9  A    between atoms: O_22  and  C_23
REMARK   10  A    between atoms: O_24  and  C_25
REMARK                            x       y       z     vdW  Elec       q    Type
REMARK                         _______ _______ _______ _____ _____    ______ ____
ROOT
ATOM      1  O   LIG A   1      -7.420   2.661 131.875  0.00  0.00    -0.283 OA
ATOM      2  C   LIG A   1      -7.935   3.743 132.186  0.00  0.00    +0.238 A 
ATOM      3  C   LIG A   1      -7.572   4.313 133.483  0.00  0.00    +0.113 A 
ATOM      4  C   LIG A   1      -6.658   3.678 134.312  0.00  0.00    +0.177 A 
ATOM      5  C   LIG A   1      -6.308   4.241 135.534  0.00  0.00    +0.202 A 
ATOM      6  C   LIG A   1      -6.865   5.454 135.952  0.00  0.00    +0.169 A 
ATOM      7  C   LIG A   1      -7.794   6.086 135.108  0.00  0.00    +0.096 A 
ATOM      8  C   LIG A   1      -8.146   5.512 133.878  0.00  0.00    +0.147 A 
ATOM      9  O   LIG A   1      -9.058   6.169 133.100  0.00  0.00    -0.451 OA
ATOM     10  C   LIG A   1      -9.373   5.646 131.855  0.00  0.00    +0.181 A 
ATOM     11  C   LIG A   1      -8.883   4.502 131.327  0.00  0.00    +0.211 A 
ENDROOT
BRANCH  10  12
ATOM     12  C   LIG A   1     -10.330   6.499 131.140  0.00  0.00    +0.025 A 
ATOM     13  C   LIG A   1     -11.694   6.444 131.458  0.00  0.00    +0.015 A 
ATOM     14  C   LIG A   1     -12.632   7.151 130.696  0.00  0.00    +0.050 A 
ATOM     15  C   LIG A   1     -12.215   7.907 129.600  0.00  0.00    +0.161 A 
ATOM     16  C   LIG A   1     -10.849   7.959 129.299  0.00  0.00    +0.159 A 
ATOM     17  C   LIG A   1      -9.906   7.282 130.064  0.00  0.00    +0.060 A 
BRANCH  16  18
ATOM     18  O   LIG A   1     -10.406   8.647 128.200  0.00  0.00    -0.503 OA
ATOM     19  H   LIG A   1      -9.572   8.209 127.945  0.00  0.00    +0.292 HD
ENDBRANCH  16  18
BRANCH  15  20
ATOM     20  O   LIG A   1     -13.032   8.612 128.754  0.00  0.00    -0.491 OA
ATOM     21  C   LIG A   1     -13.821   7.840 127.854  0.00  0.00    +0.277 C 
ENDBRANCH  15  20
ENDBRANCH  10  12
BRANCH   5  22
ATOM     22  O   LIG A   1      -5.396   3.534 136.273  0.00  0.00    -0.501 OA
ATOM     23  H   LIG A   1      -4.619   3.429 135.687  0.00  0.00    +0.292 HD
ENDBRANCH   5  22
BRANCH  11  24
ATOM     24  O   LIG A   1      -9.269   4.090 130.057  0.00  0.00    -0.488 OA
ATOM     25  C   LIG A   1      -8.305   4.179 129.012  0.00  0.00    +0.277 C 
ENDBRANCH  11  24
BRANCH   6  26
ATOM     26  O   LIG A   1      -6.595   6.115 137.123  0.00  0.00    -0.491 OA
ATOM     27  C   LIG A   1      -7.727   6.666 137.797  0.00  0.00    +0.277 C 
ENDBRANCH   6  26
BRANCH   4  28
ATOM     28  O   LIG A   1      -6.040   2.486 134.008  0.00  0.00    -0.503 OA
ATOM     29  H   LIG A   1      -6.710   1.911 133.571  0.00  0.00    +0.292 HD
ENDBRANCH   4  28
TORSDOF 7
ENDMDL
MODEL 3
REMARK VINA RESULT:      -6.7      5.611      7.890
REMARK  Name = NuBBE_1874
REMARK  10 active torsions:
REMARK  status: ('A' for Active; 'I' for Inactive)
REMARK    1  A    between atoms: C_4  and  O_26
REMARK    2  A    between atoms: C_5  and  O_6
REMARK    3  A    between atoms: C_7  and  O_24
REMARK    4  A    between atoms: C_11  and  C_12
REMARK    5  A    between atoms: C_15  and  O_19
REMARK    6  A    between atoms: C_16  and  O_17
REMARK    7  A    between atoms: O_19  and  C_20
REMARK    8  A    between atoms: C_21  and  O_22
REMARK    9  A    between atoms: O_22  and  C_23
REMARK   10  A    between atoms: O_24  and  C_25
REMARK                            x       y       z     vdW  Elec       q    Type
REMARK                         _______ _______ _______ _____ _____    ______ ____
ROOT
ATOM      1  O   LIG A   1      -8.444   2.168 123.018  0.00  0.00    -0.283 OA
ATOM      2  C   LIG A   1      -7.732   1.847 123.978  0.00  0.00    +0.238 A 
ATOM      3  C   LIG A   1      -7.861   0.481 124.486  0.00  0.00    +0.113 A 
ATOM      4  C   LIG A   1      -8.726  -0.425 123.886  0.00  0.00    +0.177 A 
ATOM      5  C   LIG A   1      -8.825  -1.725 124.367  0.00  0.00    +0.202 A 
ATOM      6  C   LIG A   1      -8.058  -2.148 125.458  0.00  0.00    +0.169 A 
ATOM      7  C   LIG A   1      -7.191  -1.221 126.062  0.00  0.00    +0.096 A 
ATOM      8  C   LIG A   1      -7.098   0.090 125.575  0.00  0.00    +0.147 A 
ATOM      9  O   LIG A   1      -6.240   0.949 126.204  0.00  0.00    -0.451 OA
ATOM     10  C   LIG A   1      -6.092   2.233 125.699  0.00  0.00    +0.181 A 
ATOM     11  C   LIG A   1      -6.750   2.750 124.637  0.00  0.00    +0.211 A 
ENDROOT
BRANCH  10  12
ATOM     12  C   LIG A   1      -5.103   3.000 126.466  0.00  0.00    +0.025 A 
ATOM     13  C   LIG A   1      -5.526   3.970 127.385  0.00  0.00    +0.015 A 
ATOM     14  C   LIG A   1      -4.597   4.800 128.023  0.00  0.00    +0.050 A 
ATOM     15  C   LIG A   1      -3.238   4.679 127.735  0.00  0.00    +0.161 A 
ATOM     16  C   LIG A   1      -2.829   3.701 126.820  0.00  0.00    +0.159 A 
ATOM     17  C   LIG A   1      -3.740   2.854 126.200  0.00  0.00    +0.060 A 
BRANCH  16  18
ATOM     18  O   LIG A   1      -1.509   3.587 126.471  0.00  0.00    -0.503 OA
ATOM     19  H   LIG A   1      -1.105   4.439 126.722  0.00  0.00    +0.292 HD
ENDBRANCH  16  18
BRANCH  15  20
ATOM     20  O   LIG A   1      -2.234   5.452 128.259  0.00  0.00    -0.491 OA
ATOM     21  C   LIG A   1      -2.431   6.861 128.202  0.00  0.00    +0.277 C 
ENDBRANCH  15  20
ENDBRANCH  10  12
BRANCH   5  22
ATOM     22  O   LIG A   1      -9.705  -2.538 123.702  0.00  0.00    -0.501 OA
ATOM     23  H   LIG A   1      -9.421  -3.450 123.915  0.00  0.00    +0.292 HD
ENDBRANCH   5  22
BRANCH  11  24
ATOM     24  O   LIG A   1      -6.502   4.051 124.220  0.00  0.00    -0.488 OA
ATOM     25  C   LIG A   1      -5.597   4.237 123.135  0.00  0.00    +0.277 C 
ENDBRANCH  11  24
BRANCH   6  26
ATOM     26  O   LIG A   1      -8.056  -3.401 126.017  0.00  0.00    -0.491 OA
ATOM     27  C   LIG A   1      -8.919  -3.577 127.141  0.00  0.00    +0.277 C 
ENDBRANCH   6  26
BRANCH   4  28
ATOM     28  O   LIG A   1      -9.525  -0.128 122.805  0.00  0.00    -0.503 OA
ATOM     29  H   LIG A   1     -10.284  -0.755 122.821  0.00  0.00    +0.292 HD
ENDBRANCH   4  28
TORSDOF 7
ENDMDL
MODEL 4
REMARK VINA RESULT:      -6.6      6.792      8.892
REMARK  Name = NuBBE_1874
REMARK  10 active torsions:
REMARK  status: ('A' for Active; 'I' for Inactive)
REMARK    1  A    between atoms: C_4  and  O_26
REMARK    2  A    between atoms: C_5  and  O_6
REMARK    3  A    between atoms: C_7  and  O_24
REMARK    4  A    between atoms: C_11  and  C_12
REMARK    5  A    between atoms: C_15  and  O_19
REMARK    6  A    between atoms: C_16  and  O_17
REMARK    7  A    between atoms: O_19  and  C_20
REMARK    8  A    between atoms: C_21  and  O_22
REMARK    9  A    between atoms: O_22  and  C_23
REMARK   10  A    between atoms: O_24  and  C_25
REMARK                            x       y       z     vdW  Elec       q    Type
REMARK                         _______ _______ _______ _____ _____    ______ ____
ROOT
ATOM      1  O   LIG A   1      -9.780  -0.800 123.413  0.00  0.00    -0.283 OA
ATOM      2  C   LIG A   1      -8.913  -0.532 124.256  0.00  0.00    +0.238 A 
ATOM      3  C   LIG A   1      -8.265   0.775 124.163  0.00  0.00    +0.113 A 
ATOM      4  C   LIG A   1      -8.636   1.689 123.187  0.00  0.00    +0.177 A 
ATOM      5  C   LIG A   1      -8.025   2.936 123.122  0.00  0.00    +0.202 A 
ATOM      6  C   LIG A   1      -7.028   3.295 124.036  0.00  0.00    +0.169 A 
ATOM      7  C   LIG A   1      -6.654   2.360 125.016  0.00  0.00    +0.096 A 
ATOM      8  C   LIG A   1      -7.272   1.103 125.074  0.00  0.00    +0.147 A 
ATOM      9  O   LIG A   1      -6.866   0.232 126.047  0.00  0.00    -0.451 OA
ATOM     10  C   LIG A   1      -7.507  -0.993 126.155  0.00  0.00    +0.181 A 
ATOM     11  C   LIG A   1      -8.501  -1.444 125.356  0.00  0.00    +0.211 A 
ENDROOT
BRANCH  10  12
ATOM     12  C   LIG A   1      -6.977  -1.779 127.276  0.00  0.00    +0.025 A 
ATOM     13  C   LIG A   1      -7.852  -2.342 128.215  0.00  0.00    +0.015 A 
ATOM     14  C   LIG A   1      -7.356  -2.978 129.359  0.00  0.00    +0.050 A 
ATOM     15  C   LIG A   1      -5.981  -3.043 129.582  0.00  0.00    +0.161 A 
ATOM     16  C   LIG A   1      -5.118  -2.483 128.632  0.00  0.00    +0.159 A 
ATOM     17  C   LIG A   1      -5.598  -1.872 127.479  0.00  0.00    +0.060 A 
BRANCH  16  18
ATOM     18  O   LIG A   1      -3.764  -2.480 128.841  0.00  0.00    -0.503 OA
ATOM     19  H   LIG A   1      -3.530  -3.414 129.003  0.00  0.00    +0.292 HD
ENDBRANCH  16  18
BRANCH  15  20
ATOM     20  O   LIG A   1      -5.370  -3.602 130.675  0.00  0.00    -0.491 OA
ATOM     21  C   LIG A   1      -5.548  -5.006 130.845  0.00  0.00    +0.277 C 
ENDBRANCH  15  20
ENDBRANCH  10  12
BRANCH   5  22
ATOM     22  O   LIG A   1      -8.467   3.762 122.123  0.00  0.00    -0.501 OA
ATOM     23  H   LIG A   1      -8.268   4.669 122.435  0.00  0.00    +0.292 HD
ENDBRANCH   5  22
BRANCH  11  24
ATOM     24  O   LIG A   1      -9.073  -2.690 125.579  0.00  0.00    -0.488 OA
ATOM     25  C   LIG A   1      -8.619  -3.778 124.780  0.00  0.00    +0.277 C 
ENDBRANCH  11  24
BRANCH   6  26
ATOM     26  O   LIG A   1      -6.359   4.492 124.084  0.00  0.00    -0.491 OA
ATOM     27  C   LIG A   1      -6.047   4.974 125.392  0.00  0.00    +0.277 C 
ENDBRANCH   6  26
BRANCH   4  28
ATOM     28  O   LIG A   1      -9.606   1.453 122.238  0.00  0.00    -0.503 OA
ATOM     29  H   LIG A   1      -9.157   1.420 121.362  0.00  0.00    +0.292 HD
ENDBRANCH   4  28
TORSDOF 7
ENDMDL
MODEL 5
REMARK VINA RESULT:      -6.6      5.237      6.793
REMARK  Name = NuBBE_1874
REMARK  10 active torsions:
REMARK  status: ('A' for Active; 'I' for Inactive)
REMARK    1  A    between atoms: C_4  and  O_26
REMARK    2  A    between atoms: C_5  and  O_6
REMARK    3  A    between atoms: C_7  and  O_24
REMARK    4  A    between atoms: C_11  and  C_12
REMARK    5  A    between atoms: C_15  and  O_19
REMARK    6  A    between atoms: C_16  and  O_17
REMARK    7  A    between atoms: O_19  and  C_20
REMARK    8  A    between atoms: C_21  and  O_22
REMARK    9  A    between atoms: O_22  and  C_23
REMARK   10  A    between atoms: O_24  and  C_25
REMARK                            x       y       z     vdW  Elec       q    Type
REMARK                         _______ _______ _______ _____ _____    ______ ____
ROOT
ATOM      1  O   LIG A   1      -8.113  -0.533 126.635  0.00  0.00    -0.283 OA
ATOM      2  C   LIG A   1      -7.620   0.531 126.237  0.00  0.00    +0.238 A 
ATOM      3  C   LIG A   1      -8.115   1.070 124.971  0.00  0.00    +0.113 A 
ATOM      4  C   LIG A   1      -9.124   0.428 124.266  0.00  0.00    +0.177 A 
ATOM      5  C   LIG A   1      -9.599   0.962 123.074  0.00  0.00    +0.202 A 
ATOM      6  C   LIG A   1      -9.073   2.154 122.562  0.00  0.00    +0.169 A 
ATOM      7  C   LIG A   1      -8.047   2.792 123.279  0.00  0.00    +0.096 A 
ATOM      8  C   LIG A   1      -7.571   2.247 124.479  0.00  0.00    +0.147 A 
ATOM      9  O   LIG A   1      -6.569   2.910 125.133  0.00  0.00    -0.451 OA
ATOM     10  C   LIG A   1      -6.126   2.416 126.351  0.00  0.00    +0.181 A 
ATOM     11  C   LIG A   1      -6.572   1.296 126.964  0.00  0.00    +0.211 A 
ENDROOT
BRANCH  10  12
ATOM     12  C   LIG A   1      -5.084   3.272 126.931  0.00  0.00    +0.025 A 
ATOM     13  C   LIG A   1      -5.440   4.403 127.678  0.00  0.00    +0.015 A 
ATOM     14  C   LIG A   1      -4.462   5.300 128.122  0.00  0.00    +0.050 A 
ATOM     15  C   LIG A   1      -3.121   5.083 127.809  0.00  0.00    +0.161 A 
ATOM     16  C   LIG A   1      -2.778   3.945 127.068  0.00  0.00    +0.159 A 
ATOM     17  C   LIG A   1      -3.738   3.033 126.644  0.00  0.00    +0.060 A 
BRANCH  16  18
ATOM     18  O   LIG A   1      -1.479   3.724 126.696  0.00  0.00    -0.503 OA
ATOM     19  H   LIG A   1      -1.532   3.357 125.794  0.00  0.00    +0.292 HD
ENDBRANCH  16  18
BRANCH  15  20
ATOM     20  O   LIG A   1      -2.074   5.901 128.150  0.00  0.00    -0.491 OA
ATOM     21  C   LIG A   1      -2.051   6.364 129.497  0.00  0.00    +0.277 C 
ENDBRANCH  15  20
ENDBRANCH  10  12
BRANCH   5  22
ATOM     22  O   LIG A   1     -10.596   0.251 122.461  0.00  0.00    -0.501 OA
ATOM     23  H   LIG A   1     -10.196  -0.091 121.636  0.00  0.00    +0.292 HD
ENDBRANCH   5  22
BRANCH  11  24
ATOM     24  O   LIG A   1      -6.055   0.914 128.195  0.00  0.00    -0.488 OA
ATOM     25  C   LIG A   1      -6.834   1.190 129.355  0.00  0.00    +0.277 C 
ENDBRANCH  11  24
BRANCH   6  26
ATOM     26  O   LIG A   1      -9.461   2.786 121.408  0.00  0.00    -0.491 OA
ATOM     27  C   LIG A   1      -8.525   3.720 120.870  0.00  0.00    +0.277 C 
ENDBRANCH   6  26
BRANCH   4  28
ATOM     28  O   LIG A   1      -9.722  -0.744 124.672  0.00  0.00    -0.503 OA
ATOM     29  H   LIG A   1     -10.525  -0.500 125.186  0.00  0.00    +0.292 HD
ENDBRANCH   4  28
TORSDOF 7
ENDMDL
MODEL 6
REMARK VINA RESULT:      -6.6      3.522      4.136
REMARK  Name = NuBBE_1874
REMARK  10 active torsions:
REMARK  status: ('A' for Active; 'I' for Inactive)
REMARK    1  A    between atoms: C_4  and  O_26
REMARK    2  A    between atoms: C_5  and  O_6
REMARK    3  A    between atoms: C_7  and  O_24
REMARK    4  A    between atoms: C_11  and  C_12
REMARK    5  A    between atoms: C_15  and  O_19
REMARK    6  A    between atoms: C_16  and  O_17
REMARK    7  A    between atoms: O_19  and  C_20
REMARK    8  A    between atoms: C_21  and  O_22
REMARK    9  A    between atoms: O_22  and  C_23
REMARK   10  A    between atoms: O_24  and  C_25
REMARK                            x       y       z     vdW  Elec       q    Type
REMARK                         _______ _______ _______ _____ _____    ______ ____
ROOT
ATOM      1  O   LIG A   1      -8.434   3.052 130.935  0.00  0.00    -0.283 OA
ATOM      2  C   LIG A   1      -8.513   3.718 129.894  0.00  0.00    +0.238 A 
ATOM      3  C   LIG A   1      -9.362   4.909 129.918  0.00  0.00    +0.113 A 
ATOM      4  C   LIG A   1     -10.022   5.292 131.077  0.00  0.00    +0.177 A 
ATOM      5  C   LIG A   1     -10.810   6.437 131.092  0.00  0.00    +0.202 A 
ATOM      6  C   LIG A   1     -10.952   7.225 129.944  0.00  0.00    +0.169 A 
ATOM      7  C   LIG A   1     -10.285   6.825 128.774  0.00  0.00    +0.096 A 
ATOM      8  C   LIG A   1      -9.494   5.667 128.765  0.00  0.00    +0.147 A 
ATOM      9  O   LIG A   1      -8.872   5.324 127.597  0.00  0.00    -0.451 OA
ATOM     10  C   LIG A   1      -8.039   4.214 127.586  0.00  0.00    +0.181 A 
ATOM     11  C   LIG A   1      -7.796   3.393 128.632  0.00  0.00    +0.211 A 
ENDROOT
BRANCH  10  12
ATOM     12  C   LIG A   1      -7.421   4.020 126.268  0.00  0.00    +0.025 A 
ATOM     13  C   LIG A   1      -6.122   4.487 126.026  0.00  0.00    +0.015 A 
ATOM     14  C   LIG A   1      -5.572   4.429 124.740  0.00  0.00    +0.050 A 
ATOM     15  C   LIG A   1      -6.322   3.918 123.682  0.00  0.00    +0.161 A 
ATOM     16  C   LIG A   1      -7.616   3.448 123.939  0.00  0.00    +0.159 A 
ATOM     17  C   LIG A   1      -8.163   3.476 125.217  0.00  0.00    +0.060 A 
BRANCH  16  18
ATOM     18  O   LIG A   1      -8.403   2.988 122.917  0.00  0.00    -0.503 OA
ATOM     19  H   LIG A   1      -9.189   2.606 123.353  0.00  0.00    +0.292 HD
ENDBRANCH  16  18
BRANCH  15  20
ATOM     20  O   LIG A   1      -5.917   3.840 122.374  0.00  0.00    -0.491 OA
ATOM     21  C   LIG A   1      -4.772   4.612 122.024  0.00  0.00    +0.277 C 
ENDBRANCH  15  20
ENDBRANCH  10  12
BRANCH   5  22
ATOM     22  O   LIG A   1     -11.414   6.726 132.287  0.00  0.00    -0.501 OA
ATOM     23  H   LIG A   1     -11.276   7.686 132.417  0.00  0.00    +0.292 HD
ENDBRANCH   5  22
BRANCH  11  24
ATOM     24  O   LIG A   1      -6.927   2.318 128.496  0.00  0.00    -0.488 OA
ATOM     25  C   LIG A   1      -7.496   1.028 128.292  0.00  0.00    +0.277 C 
ENDBRANCH  11  24
BRANCH   6  26
ATOM     26  O   LIG A   1     -11.688   8.377 129.833  0.00  0.00    -0.491 OA
ATOM     27  C   LIG A   1     -12.119   8.711 128.513  0.00  0.00    +0.277 C 
ENDBRANCH   6  26
BRANCH   4  28
ATOM     28  O   LIG A   1      -9.954   4.602 132.267  0.00  0.00    -0.503 OA
ATOM     29  H   LIG A   1     -10.767   4.051 132.334  0.00  0.00    +0.292 HD
ENDBRANCH   4  28
TORSDOF 7
ENDMDL
MODEL 7
REMARK VINA RESULT:      -6.5      2.131      7.208
REMARK  Name = NuBBE_1874
REMARK  10 active torsions:
REMARK  status: ('A' for Active; 'I' for Inactive)
REMARK    1  A    between atoms: C_4  and  O_26
REMARK    2  A    between atoms: C_5  and  O_6
REMARK    3  A    between atoms: C_7  and  O_24
REMARK    4  A    between atoms: C_11  and  C_12
REMARK    5  A    between atoms: C_15  and  O_19
REMARK    6  A    between atoms: C_16  and  O_17
REMARK    7  A    between atoms: O_19  and  C_20
REMARK    8  A    between atoms: C_21  and  O_22
REMARK    9  A    between atoms: O_22  and  C_23
REMARK   10  A    between atoms: O_24  and  C_25
REMARK                            x       y       z     vdW  Elec       q    Type
REMARK                         _______ _______ _______ _____ _____    ______ ____
ROOT
ATOM      1  O   LIG A   1      -5.463   5.759 134.513  0.00  0.00    -0.283 OA
ATOM      2  C   LIG A   1      -5.785   5.883 133.324  0.00  0.00    +0.238 A 
ATOM      3  C   LIG A   1      -4.709   6.071 132.351  0.00  0.00    +0.113 A 
ATOM      4  C   LIG A   1      -3.379   6.073 132.748  0.00  0.00    +0.177 A 
ATOM      5  C   LIG A   1      -2.366   6.232 131.810  0.00  0.00    +0.202 A 
ATOM      6  C   LIG A   1      -2.663   6.392 130.452  0.00  0.00    +0.169 A 
ATOM      7  C   LIG A   1      -4.013   6.396 130.062  0.00  0.00    +0.096 A 
ATOM      8  C   LIG A   1      -5.031   6.237 131.012  0.00  0.00    +0.147 A 
ATOM      9  O   LIG A   1      -6.326   6.252 130.575  0.00  0.00    -0.451 OA
ATOM     10  C   LIG A   1      -7.343   6.039 131.494  0.00  0.00    +0.181 A 
ATOM     11  C   LIG A   1      -7.185   5.842 132.823  0.00  0.00    +0.211 A 
ENDROOT
BRANCH  10  12
ATOM     12  C   LIG A   1      -8.661   6.043 130.847  0.00  0.00    +0.025 A 
ATOM     13  C   LIG A   1      -9.235   7.252 130.432  0.00  0.00    +0.015 A 
ATOM     14  C   LIG A   1     -10.544   7.285 129.937  0.00  0.00    +0.050 A 
ATOM     15  C   LIG A   1     -11.296   6.113 129.868  0.00  0.00    +0.161 A 
ATOM     16  C   LIG A   1     -10.707   4.911 130.279  0.00  0.00    +0.159 A 
ATOM     17  C   LIG A   1      -9.399   4.861 130.748  0.00  0.00    +0.060 A 
BRANCH  16  18
ATOM     18  O   LIG A   1     -11.430   3.747 130.277  0.00  0.00    -0.503 OA
ATOM     19  H   LIG A   1     -10.909   3.127 129.732  0.00  0.00    +0.292 HD
ENDBRANCH  16  18
BRANCH  15  20
ATOM     20  O   LIG A   1     -12.595   6.016 129.441  0.00  0.00    -0.491 OA
ATOM     21  C   LIG A   1     -12.949   6.819 128.318  0.00  0.00    +0.277 C 
ENDBRANCH  15  20
ENDBRANCH  10  12
BRANCH   5  22
ATOM     22  O   LIG A   1      -1.090   6.217 132.308  0.00  0.00    -0.501 OA
ATOM     23  H   LIG A   1      -0.975   7.087 132.742  0.00  0.00    +0.292 HD
ENDBRANCH   5  22
BRANCH  11  24
ATOM     24  O   LIG A   1      -8.288   5.624 133.638  0.00  0.00    -0.488 OA
ATOM     25  C   LIG A   1      -8.422   4.341 134.241  0.00  0.00    +0.277 C 
ENDBRANCH  11  24
BRANCH   6  26
ATOM     26  O   LIG A   1      -1.759   6.547 129.433  0.00  0.00    -0.491 OA
ATOM     27  C   LIG A   1      -2.312   6.607 128.118  0.00  0.00    +0.277 C 
ENDBRANCH   6  26
BRANCH   4  28
ATOM     28  O   LIG A   1      -2.964   5.918 134.052  0.00  0.00    -0.503 OA
ATOM     29  H   LIG A   1      -3.764   5.733 134.594  0.00  0.00    +0.292 HD
ENDBRANCH   4  28
TORSDOF 7
ENDMDL
MODEL 8
REMARK VINA RESULT:      -6.4      4.140      4.838
REMARK  Name = NuBBE_1874
REMARK  10 active torsions:
REMARK  status: ('A' for Active; 'I' for Inactive)
REMARK    1  A    between atoms: C_4  and  O_26
REMARK    2  A    between atoms: C_5  and  O_6
REMARK    3  A    between atoms: C_7  and  O_24
REMARK    4  A    between atoms: C_11  and  C_12
REMARK    5  A    between atoms: C_15  and  O_19
REMARK    6  A    between atoms: C_16  and  O_17
REMARK    7  A    between atoms: O_19  and  C_20
REMARK    8  A    between atoms: C_21  and  O_22
REMARK    9  A    between atoms: O_22  and  C_23
REMARK   10  A    between atoms: O_24  and  C_25
REMARK                            x       y       z     vdW  Elec       q    Type
REMARK                         _______ _______ _______ _____ _____    ______ ____
ROOT
ATOM      1  O   LIG A   1      -8.887   1.550 132.255  0.00  0.00    -0.283 OA
ATOM      2  C   LIG A   1      -8.820   2.043 131.121  0.00  0.00    +0.238 A 
ATOM      3  C   LIG A   1      -9.166   3.457 130.980  0.00  0.00    +0.113 A 
ATOM      4  C   LIG A   1      -9.520   4.220 132.085  0.00  0.00    +0.177 A 
ATOM      5  C   LIG A   1      -9.827   5.568 131.940  0.00  0.00    +0.202 A 
ATOM      6  C   LIG A   1      -9.784   6.182 130.683  0.00  0.00    +0.169 A 
ATOM      7  C   LIG A   1      -9.431   5.400 129.571  0.00  0.00    +0.096 A 
ATOM      8  C   LIG A   1      -9.126   4.041 129.723  0.00  0.00    +0.147 A 
ATOM      9  O   LIG A   1      -8.793   3.328 128.605  0.00  0.00    -0.451 OA
ATOM     10  C   LIG A   1      -8.431   1.996 128.745  0.00  0.00    +0.181 A 
ATOM     11  C   LIG A   1      -8.402   1.298 129.903  0.00  0.00    +0.211 A 
ENDROOT
BRANCH  10  12
ATOM     12  C   LIG A   1      -8.062   1.401 127.455  0.00  0.00    +0.025 A 
ATOM     13  C   LIG A   1      -6.735   1.461 127.007  0.00  0.00    +0.015 A 
ATOM     14  C   LIG A   1      -6.396   1.018 125.723  0.00  0.00    +0.050 A 
ATOM     15  C   LIG A   1      -7.383   0.525 124.871  0.00  0.00    +0.161 A 
ATOM     16  C   LIG A   1      -8.704   0.464 125.334  0.00  0.00    +0.159 A 
ATOM     17  C   LIG A   1      -9.048   0.876 126.615  0.00  0.00    +0.060 A 
BRANCH  16  18
ATOM     18  O   LIG A   1      -9.709   0.036 124.508  0.00  0.00    -0.503 OA
ATOM     19  H   LIG A   1     -10.532   0.363 124.919  0.00  0.00    +0.292 HD
ENDBRANCH  16  18
BRANCH  15  20
ATOM     20  O   LIG A   1      -7.191   0.097 123.582  0.00  0.00    -0.491 OA
ATOM     21  C   LIG A   1      -6.574  -1.178 123.430  0.00  0.00    +0.277 C 
ENDBRANCH  15  20
ENDBRANCH  10  12
BRANCH   5  22
ATOM     22  O   LIG A   1     -10.160   6.227 133.093  0.00  0.00    -0.501 OA
ATOM     23  H   LIG A   1     -11.096   5.993 133.259  0.00  0.00    +0.292 HD
ENDBRANCH   5  22
BRANCH  11  24
ATOM     24  O   LIG A   1      -8.006  -0.033 129.914  0.00  0.00    -0.488 OA
ATOM     25  C   LIG A   1      -6.711  -0.334 130.423  0.00  0.00    +0.277 C 
ENDBRANCH  11  24
BRANCH   6  26
ATOM     26  O   LIG A   1     -10.053   7.499 130.411  0.00  0.00    -0.491 OA
ATOM     27  C   LIG A   1     -10.284   7.812 129.037  0.00  0.00    +0.277 C 
ENDBRANCH   6  26
BRANCH   4  28
ATOM     28  O   LIG A   1      -9.591   3.729 133.370  0.00  0.00    -0.503 OA
ATOM     29  H   LIG A   1      -8.786   4.036 133.846  0.00  0.00    +0.292 HD
ENDBRANCH   4  28
TORSDOF 7
ENDMDL
MODEL 9
REMARK VINA RESULT:      -6.3      6.359      8.257
REMARK  Name = NuBBE_1874
REMARK  10 active torsions:
REMARK  status: ('A' for Active; 'I' for Inactive)
REMARK    1  A    between atoms: C_4  and  O_26
REMARK    2  A    between atoms: C_5  and  O_6
REMARK    3  A    between atoms: C_7  and  O_24
REMARK    4  A    between atoms: C_11  and  C_12
REMARK    5  A    between atoms: C_15  and  O_19
REMARK    6  A    between atoms: C_16  and  O_17
REMARK    7  A    between atoms: O_19  and  C_20
REMARK    8  A    between atoms: C_21  and  O_22
REMARK    9  A    between atoms: O_22  and  C_23
REMARK   10  A    between atoms: O_24  and  C_25
REMARK                            x       y       z     vdW  Elec       q    Type
REMARK                         _______ _______ _______ _____ _____    ______ ____
ROOT
ATOM      1  O   LIG A   1      -9.529  -1.861 125.475  0.00  0.00    -0.283 OA
ATOM      2  C   LIG A   1      -8.636  -1.452 126.229  0.00  0.00    +0.238 A 
ATOM      3  C   LIG A   1      -8.323  -0.024 126.190  0.00  0.00    +0.113 A 
ATOM      4  C   LIG A   1      -9.027   0.839 125.363  0.00  0.00    +0.177 A 
ATOM      5  C   LIG A   1      -8.732   2.198 125.350  0.00  0.00    +0.202 A 
ATOM      6  C   LIG A   1      -7.724   2.721 126.168  0.00  0.00    +0.169 A 
ATOM      7  C   LIG A   1      -7.012   1.837 126.996  0.00  0.00    +0.096 A 
ATOM      8  C   LIG A   1      -7.313   0.468 127.003  0.00  0.00    +0.147 A 
ATOM      9  O   LIG A   1      -6.585  -0.345 127.826  0.00  0.00    -0.451 OA
ATOM     10  C   LIG A   1      -6.908  -1.693 127.888  0.00  0.00    +0.181 A 
ATOM     11  C   LIG A   1      -7.875  -2.312 127.174  0.00  0.00    +0.211 A 
ENDROOT
BRANCH  10  12
ATOM     12  C   LIG A   1      -6.059  -2.404 128.851  0.00  0.00    +0.025 A 
ATOM     13  C   LIG A   1      -6.541  -2.689 130.136  0.00  0.00    +0.015 A 
ATOM     14  C   LIG A   1      -5.699  -3.246 131.106  0.00  0.00    +0.050 A 
ATOM     15  C   LIG A   1      -4.364  -3.508 130.804  0.00  0.00    +0.161 A 
ATOM     16  C   LIG A   1      -3.897  -3.226 129.515  0.00  0.00    +0.159 A 
ATOM     17  C   LIG A   1      -4.730  -2.697 128.536  0.00  0.00    +0.060 A 
BRANCH  16  18
ATOM     18  O   LIG A   1      -2.579  -3.420 129.196  0.00  0.00    -0.503 OA
ATOM     19  H   LIG A   1      -2.422  -4.373 129.334  0.00  0.00    +0.292 HD
ENDBRANCH  16  18
BRANCH  15  20
ATOM     20  O   LIG A   1      -3.429  -4.015 131.671  0.00  0.00    -0.491 OA
ATOM     21  C   LIG A   1      -3.618  -3.707 133.049  0.00  0.00    +0.277 C 
ENDBRANCH  15  20
ENDBRANCH  10  12
BRANCH   5  22
ATOM     22  O   LIG A   1      -9.488   2.961 124.500  0.00  0.00    -0.501 OA
ATOM     23  H   LIG A   1      -9.285   3.888 124.741  0.00  0.00    +0.292 HD
ENDBRANCH   5  22
BRANCH  11  24
ATOM     24  O   LIG A   1      -8.110  -3.671 127.338  0.00  0.00    -0.488 OA
ATOM     25  C   LIG A   1      -9.265  -4.059 128.077  0.00  0.00    +0.277 C 
ENDBRANCH  11  24
BRANCH   6  26
ATOM     26  O   LIG A   1      -7.346   4.037 126.254  0.00  0.00    -0.491 OA
ATOM     27  C   LIG A   1      -6.336   4.452 125.335  0.00  0.00    +0.277 C 
ENDBRANCH   6  26
BRANCH   4  28
ATOM     28  O   LIG A   1     -10.042   0.444 124.520  0.00  0.00    -0.503 OA
ATOM     29  H   LIG A   1     -10.238   1.200 123.921  0.00  0.00    +0.292 HD
ENDBRANCH   4  28
TORSDOF 7
ENDMDL
