MODEL 1
REMARK VINA RESULT:      -6.6      0.000      0.000
REMARK  Name = NuBBE_1783
REMARK  3 active torsions:
REMARK  status: ('A' for Active; 'I' for Inactive)
REMARK    1  A    between atoms: O_1  and  C_2
REMARK    2  A    between atoms: O_1  and  C_3
REMARK    3  A    between atoms: C_5  and  C_10
REMARK                            x       y       z     vdW  Elec       q    Type
REMARK                         _______ _______ _______ _____ _____    ______ ____
ROOT
ATOM      1  C   LIG A   1     -13.157   9.141 128.647  0.00  0.00    +0.130 A 
ATOM      2  C   LIG A   1     -12.244   8.724 129.676  0.00  0.00    +0.092 A 
ATOM      3  C   LIG A   1     -11.560   7.580 129.547  0.00  0.00    +0.144 A 
ATOM      4  O   LIG A   1     -11.707   6.770 128.394  0.00  0.00    -0.422 OA
ATOM      5  C   LIG A   1     -12.564   7.129 127.393  0.00  0.00    +0.341 A 
ATOM      6  O   LIG A   1     -12.721   6.445 126.386  0.00  0.00    -0.245 OA
ATOM      7  C   LIG A   1     -13.314   8.385 127.551  0.00  0.00    +0.137 A 
ENDROOT
BRANCH   3   8
ATOM      8  C   LIG A   1     -10.598   7.074 130.543  0.00  0.00    +0.036 A 
ATOM      9  C   LIG A   1      -9.219   7.122 130.311  0.00  0.00    +0.014 A 
ATOM     10  C   LIG A   1      -8.328   6.631 131.266  0.00  0.00    +0.020 A 
ATOM     11  C   LIG A   1      -8.843   6.095 132.433  0.00  0.00    +0.111 A 
ATOM     12  N   LIG A   1     -10.163   6.019 132.699  0.00  0.00    -0.263 NA
ATOM     13  C   LIG A   1     -11.002   6.503 131.751  0.00  0.00    +0.122 A 
ENDBRANCH   3   8
BRANCH   1  14
ATOM     14  O   LIG A   1     -13.780  10.326 128.942  0.00  0.00    -0.495 OA
ATOM     15  C   LIG A   1     -13.455  10.959 130.175  0.00  0.00    +0.277 C 
ENDBRANCH   1  14
TORSDOF 2
ENDMDL
MODEL 2
REMARK VINA RESULT:      -6.3      2.040      3.142
REMARK  Name = NuBBE_1783
REMARK  3 active torsions:
REMARK  status: ('A' for Active; 'I' for Inactive)
REMARK    1  A    between atoms: O_1  and  C_2
REMARK    2  A    between atoms: O_1  and  C_3
REMARK    3  A    between atoms: C_5  and  C_10
REMARK                            x       y       z     vdW  Elec       q    Type
REMARK                         _______ _______ _______ _____ _____    ______ ____
ROOT
ATOM      1  C   LIG A   1     -11.150   7.962 128.937  0.00  0.00    +0.130 A 
ATOM      2  C   LIG A   1      -9.915   7.538 129.539  0.00  0.00    +0.092 A 
ATOM      3  C   LIG A   1      -9.914   6.998 130.765  0.00  0.00    +0.144 A 
ATOM      4  O   LIG A   1     -11.122   6.819 131.483  0.00  0.00    -0.422 OA
ATOM      5  C   LIG A   1     -12.316   7.209 130.949  0.00  0.00    +0.341 A 
ATOM      6  O   LIG A   1     -13.379   7.076 131.548  0.00  0.00    -0.245 OA
ATOM      7  C   LIG A   1     -12.303   7.807 129.603  0.00  0.00    +0.137 A 
ENDROOT
BRANCH   3   8
ATOM      8  C   LIG A   1      -8.702   6.528 131.460  0.00  0.00    +0.036 A 
ATOM      9  C   LIG A   1      -7.425   6.908 131.030  0.00  0.00    +0.014 A 
ATOM     10  C   LIG A   1      -6.292   6.445 131.700  0.00  0.00    +0.020 A 
ATOM     11  C   LIG A   1      -6.465   5.603 132.784  0.00  0.00    +0.111 A 
ATOM     12  N   LIG A   1      -7.673   5.202 133.231  0.00  0.00    -0.263 NA
ATOM     13  C   LIG A   1      -8.754   5.668 132.558  0.00  0.00    +0.122 A 
ENDBRANCH   3   8
BRANCH   1  14
ATOM     14  O   LIG A   1     -10.971   8.500 127.689  0.00  0.00    -0.495 OA
ATOM     15  C   LIG A   1     -10.979   7.614 126.575  0.00  0.00    +0.277 C 
ENDBRANCH   1  14
TORSDOF 2
ENDMDL
MODEL 3
REMARK VINA RESULT:      -6.3      8.390     10.053
REMARK  Name = NuBBE_1783
REMARK  3 active torsions:
REMARK  status: ('A' for Active; 'I' for Inactive)
REMARK    1  A    between atoms: O_1  and  C_2
REMARK    2  A    between atoms: O_1  and  C_3
REMARK    3  A    between atoms: C_5  and  C_10
REMARK                            x       y       z     vdW  Elec       q    Type
REMARK                         _______ _______ _______ _____ _____    ______ ____
ROOT
ATOM      1  C   LIG A   1      -8.960   2.345 124.883  0.00  0.00    +0.130 A 
ATOM      2  C   LIG A   1      -8.155   3.037 123.913  0.00  0.00    +0.092 A 
ATOM      3  C   LIG A   1      -8.339   2.817 122.605  0.00  0.00    +0.144 A 
ATOM      4  O   LIG A   1      -9.335   1.916 122.151  0.00  0.00    -0.422 OA
ATOM      5  C   LIG A   1     -10.120   1.238 123.038  0.00  0.00    +0.341 A 
ATOM      6  O   LIG A   1     -10.985   0.446 122.678  0.00  0.00    -0.245 OA
ATOM      7  C   LIG A   1      -9.902   1.485 124.473  0.00  0.00    +0.137 A 
ENDROOT
BRANCH   3   8
ATOM      8  C   LIG A   1      -7.570   3.482 121.538  0.00  0.00    +0.036 A 
ATOM      9  C   LIG A   1      -6.207   3.760 121.691  0.00  0.00    +0.014 A 
ATOM     10  C   LIG A   1      -5.501   4.397 120.670  0.00  0.00    +0.020 A 
ATOM     11  C   LIG A   1      -6.181   4.748 119.517  0.00  0.00    +0.111 A 
ATOM     12  N   LIG A   1      -7.495   4.509 119.326  0.00  0.00    -0.263 NA
ATOM     13  C   LIG A   1      -8.153   3.891 120.337  0.00  0.00    +0.122 A 
ENDBRANCH   3   8
BRANCH   1  14
ATOM     14  O   LIG A   1      -8.634   2.678 126.172  0.00  0.00    -0.495 OA
ATOM     15  C   LIG A   1      -7.680   3.715 126.371  0.00  0.00    +0.277 C 
ENDBRANCH   1  14
TORSDOF 2
ENDMDL
MODEL 4
REMARK VINA RESULT:      -6.2      3.102      5.929
REMARK  Name = NuBBE_1783
REMARK  3 active torsions:
REMARK  status: ('A' for Active; 'I' for Inactive)
REMARK    1  A    between atoms: O_1  and  C_2
REMARK    2  A    between atoms: O_1  and  C_3
REMARK    3  A    between atoms: C_5  and  C_10
REMARK                            x       y       z     vdW  Elec       q    Type
REMARK                         _______ _______ _______ _____ _____    ______ ____
ROOT
ATOM      1  C   LIG A   1      -8.675   5.745 132.597  0.00  0.00    +0.130 A 
ATOM      2  C   LIG A   1      -9.824   6.131 131.824  0.00  0.00    +0.092 A 
ATOM      3  C   LIG A   1      -9.676   6.889 130.730  0.00  0.00    +0.144 A 
ATOM      4  O   LIG A   1      -8.392   7.310 130.304  0.00  0.00    -0.422 OA
ATOM      5  C   LIG A   1      -7.275   6.966 131.009  0.00  0.00    +0.341 A 
ATOM      6  O   LIG A   1      -6.149   7.321 130.672  0.00  0.00    -0.245 OA
ATOM      7  C   LIG A   1      -7.453   6.138 132.213  0.00  0.00    +0.137 A 
ENDROOT
BRANCH   3   8
ATOM      8  C   LIG A   1     -10.791   7.329 129.872  0.00  0.00    +0.036 A 
ATOM      9  C   LIG A   1     -12.111   6.956 130.148  0.00  0.00    +0.014 A 
ATOM     10  C   LIG A   1     -13.150   7.379 129.318  0.00  0.00    +0.020 A 
ATOM     11  C   LIG A   1     -12.839   8.164 128.222  0.00  0.00    +0.111 A 
ATOM     12  N   LIG A   1     -11.582   8.542 127.909  0.00  0.00    -0.263 NA
ATOM     13  C   LIG A   1     -10.596   8.114 128.734  0.00  0.00    +0.122 A 
ENDBRANCH   3   8
BRANCH   1  14
ATOM     14  O   LIG A   1      -9.005   4.980 133.687  0.00  0.00    -0.495 OA
ATOM     15  C   LIG A   1      -8.949   3.565 133.547  0.00  0.00    +0.277 C 
ENDBRANCH   1  14
TORSDOF 2
ENDMDL
MODEL 5
REMARK VINA RESULT:      -6.0      1.795      2.080
REMARK  Name = NuBBE_1783
REMARK  3 active torsions:
REMARK  status: ('A' for Active; 'I' for Inactive)
REMARK    1  A    between atoms: O_1  and  C_2
REMARK    2  A    between atoms: O_1  and  C_3
REMARK    3  A    between atoms: C_5  and  C_10
REMARK                            x       y       z     vdW  Elec       q    Type
REMARK                         _______ _______ _______ _____ _____    ______ ____
ROOT
ATOM      1  C   LIG A   1     -11.972   8.332 129.086  0.00  0.00    +0.130 A 
ATOM      2  C   LIG A   1     -11.020   7.632 129.904  0.00  0.00    +0.092 A 
ATOM      3  C   LIG A   1     -10.069   6.878 129.336  0.00  0.00    +0.144 A 
ATOM      4  O   LIG A   1      -9.973   6.768 127.927  0.00  0.00    -0.422 OA
ATOM      5  C   LIG A   1     -10.858   7.415 127.113  0.00  0.00    +0.341 A 
ATOM      6  O   LIG A   1     -10.807   7.334 125.890  0.00  0.00    -0.245 OA
ATOM      7  C   LIG A   1     -11.901   8.236 127.751  0.00  0.00    +0.137 A 
ENDROOT
BRANCH   3   8
ATOM      8  C   LIG A   1      -9.047   6.130 130.090  0.00  0.00    +0.036 A 
ATOM      9  C   LIG A   1      -8.378   6.707 131.175  0.00  0.00    +0.014 A 
ATOM     10  C   LIG A   1      -7.409   5.982 131.870  0.00  0.00    +0.020 A 
ATOM     11  C   LIG A   1      -7.126   4.693 131.454  0.00  0.00    +0.111 A 
ATOM     12  N   LIG A   1      -7.736   4.097 130.409  0.00  0.00    -0.263 NA
ATOM     13  C   LIG A   1      -8.672   4.828 129.754  0.00  0.00    +0.122 A 
ENDBRANCH   3   8
BRANCH   1  14
ATOM     14  O   LIG A   1     -12.879   9.047 129.826  0.00  0.00    -0.495 OA
ATOM     15  C   LIG A   1     -13.308  10.305 129.318  0.00  0.00    +0.277 C 
ENDBRANCH   1  14
TORSDOF 2
ENDMDL
MODEL 6
REMARK VINA RESULT:      -5.8     10.815     12.134
REMARK  Name = NuBBE_1783
REMARK  3 active torsions:
REMARK  status: ('A' for Active; 'I' for Inactive)
REMARK    1  A    between atoms: O_1  and  C_2
REMARK    2  A    between atoms: O_1  and  C_3
REMARK    3  A    between atoms: C_5  and  C_10
REMARK                            x       y       z     vdW  Elec       q    Type
REMARK                         _______ _______ _______ _____ _____    ______ ____
ROOT
ATOM      1  C   LIG A   1      -6.579  -2.358 123.294  0.00  0.00    +0.130 A 
ATOM      2  C   LIG A   1      -6.653  -2.625 124.705  0.00  0.00    +0.092 A 
ATOM      3  C   LIG A   1      -7.782  -2.375 125.380  0.00  0.00    +0.144 A 
ATOM      4  O   LIG A   1      -8.926  -1.861 124.720  0.00  0.00    -0.422 OA
ATOM      5  C   LIG A   1      -8.898  -1.592 123.382  0.00  0.00    +0.341 A 
ATOM      6  O   LIG A   1      -9.869  -1.140 122.782  0.00  0.00    -0.245 OA
ATOM      7  C   LIG A   1      -7.648  -1.866 122.654  0.00  0.00    +0.137 A 
ENDROOT
BRANCH   3   8
ATOM      8  C   LIG A   1      -7.955  -2.622 126.823  0.00  0.00    +0.036 A 
ATOM      9  C   LIG A   1      -8.780  -3.652 127.289  0.00  0.00    +0.014 A 
ATOM     10  C   LIG A   1      -8.934  -3.863 128.660  0.00  0.00    +0.020 A 
ATOM     11  C   LIG A   1      -8.260  -3.029 129.534  0.00  0.00    +0.111 A 
ATOM     12  N   LIG A   1      -7.462  -2.018 129.134  0.00  0.00    -0.263 NA
ATOM     13  C   LIG A   1      -7.335  -1.839 127.797  0.00  0.00    +0.122 A 
ENDBRANCH   3   8
BRANCH   1  14
ATOM     14  O   LIG A   1      -5.352  -2.661 122.763  0.00  0.00    -0.495 OA
ATOM     15  C   LIG A   1      -4.547  -3.614 123.449  0.00  0.00    +0.277 C 
ENDBRANCH   1  14
TORSDOF 2
ENDMDL
MODEL 7
REMARK VINA RESULT:      -5.6      9.293     10.932
REMARK  Name = NuBBE_1783
REMARK  3 active torsions:
REMARK  status: ('A' for Active; 'I' for Inactive)
REMARK    1  A    between atoms: O_1  and  C_2
REMARK    2  A    between atoms: O_1  and  C_3
REMARK    3  A    between atoms: C_5  and  C_10
REMARK                            x       y       z     vdW  Elec       q    Type
REMARK                         _______ _______ _______ _____ _____    ______ ____
ROOT
ATOM      1  C   LIG A   1      -7.889  -1.387 123.278  0.00  0.00    +0.130 A 
ATOM      2  C   LIG A   1      -7.043  -0.244 123.489  0.00  0.00    +0.092 A 
ATOM      3  C   LIG A   1      -7.536   0.994 123.350  0.00  0.00    +0.144 A 
ATOM      4  O   LIG A   1      -8.895   1.202 123.009  0.00  0.00    -0.422 OA
ATOM      5  C   LIG A   1      -9.733   0.144 122.798  0.00  0.00    +0.341 A 
ATOM      6  O   LIG A   1     -10.913   0.290 122.494  0.00  0.00    -0.245 OA
ATOM      7  C   LIG A   1      -9.176  -1.210 122.949  0.00  0.00    +0.137 A 
ENDROOT
BRANCH   3   8
ATOM      8  C   LIG A   1      -6.750   2.224 123.552  0.00  0.00    +0.036 A 
ATOM      9  C   LIG A   1      -6.187   2.530 124.796  0.00  0.00    +0.014 A 
ATOM     10  C   LIG A   1      -5.452   3.704 124.966  0.00  0.00    +0.020 A 
ATOM     11  C   LIG A   1      -5.305   4.551 123.882  0.00  0.00    +0.111 A 
ATOM     12  N   LIG A   1      -5.836   4.306 122.667  0.00  0.00    -0.263 NA
ATOM     13  C   LIG A   1      -6.545   3.158 122.535  0.00  0.00    +0.122 A 
ENDBRANCH   3   8
BRANCH   1  14
ATOM     14  O   LIG A   1      -7.225  -2.574 123.452  0.00  0.00    -0.495 OA
ATOM     15  C   LIG A   1      -5.872  -2.521 123.889  0.00  0.00    +0.277 C 
ENDBRANCH   1  14
TORSDOF 2
ENDMDL
MODEL 8
REMARK VINA RESULT:      -5.5      8.993     10.415
REMARK  Name = NuBBE_1783
REMARK  3 active torsions:
REMARK  status: ('A' for Active; 'I' for Inactive)
REMARK    1  A    between atoms: O_1  and  C_2
REMARK    2  A    between atoms: O_1  and  C_3
REMARK    3  A    between atoms: C_5  and  C_10
REMARK                            x       y       z     vdW  Elec       q    Type
REMARK                         _______ _______ _______ _____ _____    ______ ____
ROOT
ATOM      1  C   LIG A   1      -6.890   2.557 122.804  0.00  0.00    +0.130 A 
ATOM      2  C   LIG A   1      -7.248   1.172 122.951  0.00  0.00    +0.092 A 
ATOM      3  C   LIG A   1      -8.129   0.800 123.888  0.00  0.00    +0.144 A 
ATOM      4  O   LIG A   1      -8.736   1.757 124.738  0.00  0.00    -0.422 OA
ATOM      5  C   LIG A   1      -8.423   3.082 124.633  0.00  0.00    +0.341 A 
ATOM      6  O   LIG A   1      -8.925   3.935 125.359  0.00  0.00    -0.245 OA
ATOM      7  C   LIG A   1      -7.449   3.476 123.603  0.00  0.00    +0.137 A 
ENDROOT
BRANCH   3   8
ATOM      8  C   LIG A   1      -8.563  -0.592 124.109  0.00  0.00    +0.036 A 
ATOM      9  C   LIG A   1      -8.519  -1.538 123.078  0.00  0.00    +0.014 A 
ATOM     10  C   LIG A   1      -8.941  -2.848 123.309  0.00  0.00    +0.020 A 
ATOM     11  C   LIG A   1      -9.405  -3.178 124.570  0.00  0.00    +0.111 A 
ATOM     12  N   LIG A   1      -9.475  -2.301 125.592  0.00  0.00    -0.263 NA
ATOM     13  C   LIG A   1      -9.059  -1.036 125.335  0.00  0.00    +0.122 A 
ENDBRANCH   3   8
BRANCH   1  14
ATOM     14  O   LIG A   1      -5.970   2.761 121.808  0.00  0.00    -0.495 OA
ATOM     15  C   LIG A   1      -5.511   4.091 121.589  0.00  0.00    +0.277 C 
ENDBRANCH   1  14
TORSDOF 2
ENDMDL
MODEL 9
REMARK VINA RESULT:      -5.5     10.044     11.709
REMARK  Name = NuBBE_1783
REMARK  3 active torsions:
REMARK  status: ('A' for Active; 'I' for Inactive)
REMARK    1  A    between atoms: O_1  and  C_2
REMARK    2  A    between atoms: O_1  and  C_3
REMARK    3  A    between atoms: C_5  and  C_10
REMARK                            x       y       z     vdW  Elec       q    Type
REMARK                         _______ _______ _______ _____ _____    ______ ____
ROOT
ATOM      1  C   LIG A   1      -6.577  -2.773 124.416  0.00  0.00    +0.130 A 
ATOM      2  C   LIG A   1      -6.610  -1.338 124.508  0.00  0.00    +0.092 A 
ATOM      3  C   LIG A   1      -7.740  -0.672 124.236  0.00  0.00    +0.144 A 
ATOM      4  O   LIG A   1      -8.922  -1.362 123.869  0.00  0.00    -0.422 OA
ATOM      5  C   LIG A   1      -8.933  -2.724 123.768  0.00  0.00    +0.341 A 
ATOM      6  O   LIG A   1      -9.937  -3.351 123.445  0.00  0.00    -0.245 OA
ATOM      7  C   LIG A   1      -7.683  -3.443 124.065  0.00  0.00    +0.137 A 
ENDROOT
BRANCH   3   8
ATOM      8  C   LIG A   1      -7.873   0.794 124.310  0.00  0.00    +0.036 A 
ATOM      9  C   LIG A   1      -6.979   1.639 123.643  0.00  0.00    +0.014 A 
ATOM     10  C   LIG A   1      -7.121   3.024 123.733  0.00  0.00    +0.020 A 
ATOM     11  C   LIG A   1      -8.156   3.532 124.498  0.00  0.00    +0.111 A 
ATOM     12  N   LIG A   1      -9.037   2.760 125.166  0.00  0.00    -0.263 NA
ATOM     13  C   LIG A   1      -8.871   1.419 125.059  0.00  0.00    +0.122 A 
ENDBRANCH   3   8
BRANCH   1  14
ATOM     14  O   LIG A   1      -5.344  -3.292 124.718  0.00  0.00    -0.495 OA
ATOM     15  C   LIG A   1      -4.682  -4.057 123.717  0.00  0.00    +0.277 C 
ENDBRANCH   1  14
TORSDOF 2
ENDMDL
