MODEL 1
REMARK VINA RESULT:      -7.7      0.000      0.000
REMARK  Name = NuBBE_1662
REMARK  4 active torsions:
REMARK  status: ('A' for Active; 'I' for Inactive)
REMARK    1  A    between atoms: C_7  and  C_8
REMARK    2  A    between atoms: C_18  and  O_23
REMARK    3  A    between atoms: C_19  and  O_21
REMARK    4  A    between atoms: O_21  and  C_22
REMARK                            x       y       z     vdW  Elec       q    Type
REMARK                         _______ _______ _______ _____ _____    ______ ____
ROOT
ATOM      1  O   LIG A   1      -6.270   7.473 130.320  0.00  0.00    -0.286 OA
ATOM      2  C   LIG A   1      -6.750   6.829 131.248  0.00  0.00    +0.200 A 
ATOM      3  C   LIG A   1      -8.214   6.686 131.364  0.00  0.00    +0.068 A 
ATOM      4  C   LIG A   1      -8.739   5.994 132.449  0.00  0.00    +0.142 A 
ATOM      5  O   LIG A   1      -7.954   5.443 133.425  0.00  0.00    -0.462 OA
ATOM      6  C   LIG A   1      -6.593   5.530 133.272  0.00  0.00    +0.208 A 
ATOM      7  C   LIG A   1      -5.916   6.158 132.295  0.00  0.00    +0.064 A 
ATOM      8  C   LIG A   1     -10.118   5.836 132.580  0.00  0.00    +0.096 A 
ATOM      9  C   LIG A   1     -10.975   6.364 131.611  0.00  0.00    +0.162 A 
ATOM     10  C   LIG A   1     -10.458   7.055 130.507  0.00  0.00    +0.162 A 
ATOM     11  C   LIG A   1      -9.072   7.227 130.401  0.00  0.00    +0.064 A 
ENDROOT
BRANCH   7  12
ATOM     12  C   LIG A   1      -4.429   6.138 132.268  0.00  0.00    -0.008 A 
ATOM     13  C   LIG A   1      -3.681   7.229 132.754  0.00  0.00    +0.058 A 
ATOM     14  C   LIG A   1      -2.303   7.157 132.730  0.00  0.00    +0.167 A 
ATOM     15  C   LIG A   1      -1.641   6.064 132.231  0.00  0.00    +0.166 A 
ATOM     16  C   LIG A   1      -2.323   4.979 131.733  0.00  0.00    +0.050 A 
ATOM     17  C   LIG A   1      -3.724   5.020 131.758  0.00  0.00    +0.012 A 
ATOM     18  O   LIG A   1      -0.290   6.198 132.297  0.00  0.00    -0.453 OA
ATOM     19  C   LIG A   1      -0.176   7.508 132.892  0.00  0.00    +0.466 C 
ATOM     20  O   LIG A   1      -1.452   8.119 133.178  0.00  0.00    -0.453 OA
ENDBRANCH   7  12
BRANCH  10  21
ATOM     21  O   LIG A   1     -11.167   7.654 129.500  0.00  0.00    -0.491 OA
ATOM     22  C   LIG A   1     -10.411   8.256 128.457  0.00  0.00    +0.277 C 
ENDBRANCH  10  21
BRANCH   9  23
ATOM     23  O   LIG A   1     -12.323   6.206 131.779  0.00  0.00    -0.503 OA
ATOM     24  H   LIG A   1     -12.797   6.701 131.092  0.00  0.00    +0.292 HD
ENDBRANCH   9  23
TORSDOF 3
ENDMDL
MODEL 2
REMARK VINA RESULT:      -7.4      7.576      8.316
REMARK  Name = NuBBE_1662
REMARK  4 active torsions:
REMARK  status: ('A' for Active; 'I' for Inactive)
REMARK    1  A    between atoms: C_7  and  C_8
REMARK    2  A    between atoms: C_18  and  O_23
REMARK    3  A    between atoms: C_19  and  O_21
REMARK    4  A    between atoms: O_21  and  C_22
REMARK                            x       y       z     vdW  Elec       q    Type
REMARK                         _______ _______ _______ _____ _____    ______ ____
ROOT
ATOM      1  O   LIG A   1      -5.783   1.054 126.370  0.00  0.00    -0.286 OA
ATOM      2  C   LIG A   1      -6.290   1.797 125.537  0.00  0.00    +0.200 A 
ATOM      3  C   LIG A   1      -7.404   1.314 124.699  0.00  0.00    +0.068 A 
ATOM      4  C   LIG A   1      -7.931   2.155 123.727  0.00  0.00    +0.142 A 
ATOM      5  O   LIG A   1      -7.455   3.418 123.506  0.00  0.00    -0.462 OA
ATOM      6  C   LIG A   1      -6.461   3.879 124.333  0.00  0.00    +0.208 A 
ATOM      7  C   LIG A   1      -5.836   3.207 125.315  0.00  0.00    +0.064 A 
ATOM      8  C   LIG A   1      -8.989   1.728 122.927  0.00  0.00    +0.096 A 
ATOM      9  C   LIG A   1      -9.531   0.453 123.110  0.00  0.00    +0.162 A 
ATOM     10  C   LIG A   1      -9.015  -0.403 124.093  0.00  0.00    +0.162 A 
ATOM     11  C   LIG A   1      -7.936   0.031 124.873  0.00  0.00    +0.064 A 
ENDROOT
BRANCH   7  12
ATOM     12  C   LIG A   1      -4.786   3.867 126.136  0.00  0.00    -0.008 A 
ATOM     13  C   LIG A   1      -5.050   5.071 126.819  0.00  0.00    +0.058 A 
ATOM     14  C   LIG A   1      -4.051   5.636 127.587  0.00  0.00    +0.167 A 
ATOM     15  C   LIG A   1      -2.806   5.069 127.691  0.00  0.00    +0.166 A 
ATOM     16  C   LIG A   1      -2.493   3.903 127.034  0.00  0.00    +0.050 A 
ATOM     17  C   LIG A   1      -3.493   3.301 126.258  0.00  0.00    +0.012 A 
ATOM     18  O   LIG A   1      -1.972   5.786 128.491  0.00  0.00    -0.453 OA
ATOM     19  C   LIG A   1      -2.837   6.874 128.877  0.00  0.00    +0.466 C 
ATOM     20  O   LIG A   1      -4.162   6.781 128.313  0.00  0.00    -0.453 OA
ENDBRANCH   7  12
BRANCH  10  21
ATOM     21  O   LIG A   1      -9.415  -1.683 124.368  0.00  0.00    -0.491 OA
ATOM     22  C   LIG A   1      -8.830  -2.718 123.586  0.00  0.00    +0.277 C 
ENDBRANCH  10  21
BRANCH   9  23
ATOM     23  O   LIG A   1     -10.557   0.059 122.297  0.00  0.00    -0.503 OA
ATOM     24  H   LIG A   1     -10.285   0.136 121.368  0.00  0.00    +0.292 HD
ENDBRANCH   9  23
TORSDOF 3
ENDMDL
MODEL 3
REMARK VINA RESULT:      -7.3     10.113     10.993
REMARK  Name = NuBBE_1662
REMARK  4 active torsions:
REMARK  status: ('A' for Active; 'I' for Inactive)
REMARK    1  A    between atoms: C_7  and  C_8
REMARK    2  A    between atoms: C_18  and  O_23
REMARK    3  A    between atoms: C_19  and  O_21
REMARK    4  A    between atoms: O_21  and  C_22
REMARK                            x       y       z     vdW  Elec       q    Type
REMARK                         _______ _______ _______ _____ _____    ______ ____
ROOT
ATOM      1  O   LIG A   1      -5.700  -2.015 128.121  0.00  0.00    -0.286 OA
ATOM      2  C   LIG A   1      -6.789  -2.565 127.997  0.00  0.00    +0.200 A 
ATOM      3  C   LIG A   1      -7.523  -2.469 126.720  0.00  0.00    +0.068 A 
ATOM      4  C   LIG A   1      -8.776  -3.058 126.617  0.00  0.00    +0.142 A 
ATOM      5  O   LIG A   1      -9.369  -3.723 127.656  0.00  0.00    -0.462 OA
ATOM      6  C   LIG A   1      -8.650  -3.859 128.818  0.00  0.00    +0.208 A 
ATOM      7  C   LIG A   1      -7.435  -3.356 129.093  0.00  0.00    +0.064 A 
ATOM      8  C   LIG A   1      -9.489  -2.990 125.421  0.00  0.00    +0.096 A 
ATOM      9  C   LIG A   1      -8.935  -2.337 124.316  0.00  0.00    +0.162 A 
ATOM     10  C   LIG A   1      -7.667  -1.746 124.404  0.00  0.00    +0.162 A 
ATOM     11  C   LIG A   1      -6.973  -1.802 125.620  0.00  0.00    +0.064 A 
ENDROOT
BRANCH   7  12
ATOM     12  C   LIG A   1      -6.785  -3.617 130.405  0.00  0.00    -0.008 A 
ATOM     13  C   LIG A   1      -7.133  -2.869 131.548  0.00  0.00    +0.058 A 
ATOM     14  C   LIG A   1      -6.520  -3.161 132.749  0.00  0.00    +0.167 A 
ATOM     15  C   LIG A   1      -5.570  -4.145 132.860  0.00  0.00    +0.166 A 
ATOM     16  C   LIG A   1      -5.185  -4.894 131.774  0.00  0.00    +0.050 A 
ATOM     17  C   LIG A   1      -5.802  -4.628 130.544  0.00  0.00    +0.012 A 
ATOM     18  O   LIG A   1      -5.091  -4.267 134.127  0.00  0.00    -0.453 OA
ATOM     19  C   LIG A   1      -5.848  -3.240 134.802  0.00  0.00    +0.466 C 
ATOM     20  O   LIG A   1      -6.764  -2.539 133.934  0.00  0.00    -0.453 OA
ENDBRANCH   7  12
BRANCH  10  21
ATOM     21  O   LIG A   1      -7.010  -1.048 123.426  0.00  0.00    -0.491 OA
ATOM     22  C   LIG A   1      -6.244  -1.810 122.502  0.00  0.00    +0.277 C 
ENDBRANCH  10  21
BRANCH   9  23
ATOM     23  O   LIG A   1      -9.667  -2.273 123.164  0.00  0.00    -0.503 OA
ATOM     24  H   LIG A   1      -9.460  -1.451 122.691  0.00  0.00    +0.292 HD
ENDBRANCH   9  23
TORSDOF 3
ENDMDL
MODEL 4
REMARK VINA RESULT:      -7.3      9.826     11.001
REMARK  Name = NuBBE_1662
REMARK  4 active torsions:
REMARK  status: ('A' for Active; 'I' for Inactive)
REMARK    1  A    between atoms: C_7  and  C_8
REMARK    2  A    between atoms: C_18  and  O_23
REMARK    3  A    between atoms: C_19  and  O_21
REMARK    4  A    between atoms: O_21  and  C_22
REMARK                            x       y       z     vdW  Elec       q    Type
REMARK                         _______ _______ _______ _____ _____    ______ ____
ROOT
ATOM      1  O   LIG A   1      -8.735  -3.534 128.871  0.00  0.00    -0.286 OA
ATOM      2  C   LIG A   1      -7.671  -3.022 128.538  0.00  0.00    +0.200 A 
ATOM      3  C   LIG A   1      -7.499  -2.504 127.168  0.00  0.00    +0.068 A 
ATOM      4  C   LIG A   1      -6.270  -1.973 126.797  0.00  0.00    +0.142 A 
ATOM      5  O   LIG A   1      -5.202  -1.916 127.649  0.00  0.00    -0.462 OA
ATOM      6  C   LIG A   1      -5.392  -2.344 128.940  0.00  0.00    +0.208 A 
ATOM      7  C   LIG A   1      -6.504  -2.884 129.467  0.00  0.00    +0.064 A 
ATOM      8  C   LIG A   1      -6.082  -1.469 125.511  0.00  0.00    +0.096 A 
ATOM      9  C   LIG A   1      -7.137  -1.486 124.594  0.00  0.00    +0.162 A 
ATOM     10  C   LIG A   1      -8.385  -2.010 124.959  0.00  0.00    +0.162 A 
ATOM     11  C   LIG A   1      -8.552  -2.535 126.247  0.00  0.00    +0.064 A 
ENDROOT
BRANCH   7  12
ATOM     12  C   LIG A   1      -6.549  -3.278 130.901  0.00  0.00    -0.008 A 
ATOM     13  C   LIG A   1      -7.390  -2.607 131.811  0.00  0.00    +0.058 A 
ATOM     14  C   LIG A   1      -7.415  -3.022 133.128  0.00  0.00    +0.167 A 
ATOM     15  C   LIG A   1      -6.633  -4.055 133.579  0.00  0.00    +0.166 A 
ATOM     16  C   LIG A   1      -5.786  -4.734 132.735  0.00  0.00    +0.050 A 
ATOM     17  C   LIG A   1      -5.751  -4.342 131.390  0.00  0.00    +0.012 A 
ATOM     18  O   LIG A   1      -6.807  -4.299 134.905  0.00  0.00    -0.453 OA
ATOM     19  C   LIG A   1      -7.788  -3.294 135.239  0.00  0.00    +0.466 C 
ATOM     20  O   LIG A   1      -8.185  -2.485 134.112  0.00  0.00    -0.453 OA
ENDBRANCH   7  12
BRANCH  10  21
ATOM     21  O   LIG A   1      -9.497  -2.124 124.168  0.00  0.00    -0.491 OA
ATOM     22  C   LIG A   1      -9.612  -3.314 123.396  0.00  0.00    +0.277 C 
ENDBRANCH  10  21
BRANCH   9  23
ATOM     23  O   LIG A   1      -6.914  -0.999 123.336  0.00  0.00    -0.503 OA
ATOM     24  H   LIG A   1      -6.864  -0.030 123.366  0.00  0.00    +0.292 HD
ENDBRANCH   9  23
TORSDOF 3
ENDMDL
MODEL 5
REMARK VINA RESULT:      -7.2      2.446      3.497
REMARK  Name = NuBBE_1662
REMARK  4 active torsions:
REMARK  status: ('A' for Active; 'I' for Inactive)
REMARK    1  A    between atoms: C_7  and  C_8
REMARK    2  A    between atoms: C_18  and  O_23
REMARK    3  A    between atoms: C_19  and  O_21
REMARK    4  A    between atoms: O_21  and  C_22
REMARK                            x       y       z     vdW  Elec       q    Type
REMARK                         _______ _______ _______ _____ _____    ______ ____
ROOT
ATOM      1  O   LIG A   1      -7.568   7.146 130.591  0.00  0.00    -0.286 OA
ATOM      2  C   LIG A   1      -8.626   6.789 131.100  0.00  0.00    +0.200 A 
ATOM      3  C   LIG A   1      -9.904   7.077 130.421  0.00  0.00    +0.068 A 
ATOM      4  C   LIG A   1     -11.093   6.707 131.037  0.00  0.00    +0.142 A 
ATOM      5  O   LIG A   1     -11.132   6.090 132.258  0.00  0.00    -0.462 OA
ATOM      6  C   LIG A   1      -9.935   5.772 132.850  0.00  0.00    +0.208 A 
ATOM      7  C   LIG A   1      -8.700   6.053 132.402  0.00  0.00    +0.064 A 
ATOM      8  C   LIG A   1     -12.314   6.959 130.415  0.00  0.00    +0.096 A 
ATOM      9  C   LIG A   1     -12.344   7.575 129.161  0.00  0.00    +0.162 A 
ATOM     10  C   LIG A   1     -11.152   7.945 128.524  0.00  0.00    +0.162 A 
ATOM     11  C   LIG A   1      -9.933   7.707 129.172  0.00  0.00    +0.064 A 
ENDROOT
BRANCH   7  12
ATOM     12  C   LIG A   1      -7.499   5.615 133.163  0.00  0.00    -0.008 A 
ATOM     13  C   LIG A   1      -6.357   5.126 132.497  0.00  0.00    +0.058 A 
ATOM     14  C   LIG A   1      -5.258   4.752 133.243  0.00  0.00    +0.167 A 
ATOM     15  C   LIG A   1      -5.250   4.825 134.613  0.00  0.00    +0.166 A 
ATOM     16  C   LIG A   1      -6.343   5.281 135.312  0.00  0.00    +0.050 A 
ATOM     17  C   LIG A   1      -7.468   5.681 134.578  0.00  0.00    +0.012 A 
ATOM     18  O   LIG A   1      -4.074   4.405 135.150  0.00  0.00    -0.453 OA
ATOM     19  C   LIG A   1      -3.341   4.054 133.958  0.00  0.00    +0.466 C 
ATOM     20  O   LIG A   1      -4.084   4.280 132.742  0.00  0.00    -0.453 OA
ENDBRANCH   7  12
BRANCH  10  21
ATOM     21  O   LIG A   1     -11.021   8.581 127.319  0.00  0.00    -0.491 OA
ATOM     22  C   LIG A   1     -10.959   7.754 126.163  0.00  0.00    +0.277 C 
ENDBRANCH  10  21
BRANCH   9  23
ATOM     23  O   LIG A   1     -13.560   7.823 128.587  0.00  0.00    -0.503 OA
ATOM     24  H   LIG A   1     -14.268   7.555 129.194  0.00  0.00    +0.292 HD
ENDBRANCH   9  23
TORSDOF 3
ENDMDL
MODEL 6
REMARK VINA RESULT:      -7.1      8.556     10.732
REMARK  Name = NuBBE_1662
REMARK  4 active torsions:
REMARK  status: ('A' for Active; 'I' for Inactive)
REMARK    1  A    between atoms: C_7  and  C_8
REMARK    2  A    between atoms: C_18  and  O_23
REMARK    3  A    between atoms: C_19  and  O_21
REMARK    4  A    between atoms: O_21  and  C_22
REMARK                            x       y       z     vdW  Elec       q    Type
REMARK                         _______ _______ _______ _____ _____    ______ ____
ROOT
ATOM      1  O   LIG A   1      -7.152   0.174 123.955  0.00  0.00    -0.286 OA
ATOM      2  C   LIG A   1      -7.469   1.038 124.766  0.00  0.00    +0.200 A 
ATOM      3  C   LIG A   1      -7.611   0.692 126.194  0.00  0.00    +0.068 A 
ATOM      4  C   LIG A   1      -8.018   1.674 127.088  0.00  0.00    +0.142 A 
ATOM      5  O   LIG A   1      -8.303   2.955 126.700  0.00  0.00    -0.462 OA
ATOM      6  C   LIG A   1      -8.107   3.280 125.381  0.00  0.00    +0.208 A 
ATOM      7  C   LIG A   1      -7.723   2.464 124.384  0.00  0.00    +0.064 A 
ATOM      8  C   LIG A   1      -8.153   1.379 128.443  0.00  0.00    +0.096 A 
ATOM      9  C   LIG A   1      -7.865   0.092 128.907  0.00  0.00    +0.162 A 
ATOM     10  C   LIG A   1      -7.445  -0.906 128.018  0.00  0.00    +0.162 A 
ATOM     11  C   LIG A   1      -7.337  -0.600 126.655  0.00  0.00    +0.064 A 
ENDROOT
BRANCH   7  12
ATOM     12  C   LIG A   1      -7.537   2.986 123.004  0.00  0.00    -0.008 A 
ATOM     13  C   LIG A   1      -8.634   3.125 122.129  0.00  0.00    +0.058 A 
ATOM     14  C   LIG A   1      -8.418   3.636 120.864  0.00  0.00    +0.167 A 
ATOM     15  C   LIG A   1      -7.167   3.994 120.429  0.00  0.00    +0.166 A 
ATOM     16  C   LIG A   1      -6.063   3.865 121.238  0.00  0.00    +0.050 A 
ATOM     17  C   LIG A   1      -6.256   3.363 122.532  0.00  0.00    +0.012 A 
ATOM     18  O   LIG A   1      -7.175   4.468 119.155  0.00  0.00    -0.453 OA
ATOM     19  C   LIG A   1      -8.578   4.362 118.835  0.00  0.00    +0.466 C 
ATOM     20  O   LIG A   1      -9.375   3.842 119.920  0.00  0.00    -0.453 OA
ENDBRANCH   7  12
BRANCH  10  21
ATOM     21  O   LIG A   1      -7.160  -2.212 128.314  0.00  0.00    -0.491 OA
ATOM     22  C   LIG A   1      -8.240  -3.134 128.240  0.00  0.00    +0.277 C 
ENDBRANCH  10  21
BRANCH   9  23
ATOM     23  O   LIG A   1      -8.024  -0.169 130.240  0.00  0.00    -0.503 OA
ATOM     24  H   LIG A   1      -7.262   0.176 130.733  0.00  0.00    +0.292 HD
ENDBRANCH   9  23
TORSDOF 3
ENDMDL
MODEL 7
REMARK VINA RESULT:      -7.1      1.657      7.790
REMARK  Name = NuBBE_1662
REMARK  4 active torsions:
REMARK  status: ('A' for Active; 'I' for Inactive)
REMARK    1  A    between atoms: C_7  and  C_8
REMARK    2  A    between atoms: C_18  and  O_23
REMARK    3  A    between atoms: C_19  and  O_21
REMARK    4  A    between atoms: O_21  and  C_22
REMARK                            x       y       z     vdW  Elec       q    Type
REMARK                         _______ _______ _______ _____ _____    ______ ____
ROOT
ATOM      1  O   LIG A   1      -7.265   7.375 130.727  0.00  0.00    -0.286 OA
ATOM      2  C   LIG A   1      -7.383   6.471 131.547  0.00  0.00    +0.200 A 
ATOM      3  C   LIG A   1      -6.211   6.020 132.322  0.00  0.00    +0.068 A 
ATOM      4  C   LIG A   1      -6.356   4.963 133.210  0.00  0.00    +0.142 A 
ATOM      5  O   LIG A   1      -7.545   4.311 133.396  0.00  0.00    -0.462 OA
ATOM      6  C   LIG A   1      -8.642   4.779 132.717  0.00  0.00    +0.208 A 
ATOM      7  C   LIG A   1      -8.684   5.782 131.822  0.00  0.00    +0.064 A 
ATOM      8  C   LIG A   1      -5.268   4.521 133.961  0.00  0.00    +0.096 A 
ATOM      9  C   LIG A   1      -4.028   5.152 133.828  0.00  0.00    +0.162 A 
ATOM     10  C   LIG A   1      -3.870   6.226 132.942  0.00  0.00    +0.162 A 
ATOM     11  C   LIG A   1      -4.967   6.643 132.177  0.00  0.00    +0.064 A 
ENDROOT
BRANCH   7  12
ATOM     12  C   LIG A   1      -9.970   6.178 131.188  0.00  0.00    -0.008 A 
ATOM     13  C   LIG A   1     -10.109   6.203 129.786  0.00  0.00    +0.058 A 
ATOM     14  C   LIG A   1     -11.328   6.556 129.242  0.00  0.00    +0.167 A 
ATOM     15  C   LIG A   1     -12.401   6.900 130.025  0.00  0.00    +0.166 A 
ATOM     16  C   LIG A   1     -12.314   6.906 131.397  0.00  0.00    +0.050 A 
ATOM     17  C   LIG A   1     -11.091   6.538 131.976  0.00  0.00    +0.012 A 
ATOM     18  O   LIG A   1     -13.501   7.217 129.291  0.00  0.00    -0.453 OA
ATOM     19  C   LIG A   1     -12.994   7.036 127.952  0.00  0.00    +0.466 C 
ATOM     20  O   LIG A   1     -11.617   6.608 127.914  0.00  0.00    -0.453 OA
ENDBRANCH   7  12
BRANCH  10  21
ATOM     21  O   LIG A   1      -2.718   6.919 132.680  0.00  0.00    -0.491 OA
ATOM     22  C   LIG A   1      -2.859   8.156 131.992  0.00  0.00    +0.277 C 
ENDBRANCH  10  21
BRANCH   9  23
ATOM     23  O   LIG A   1      -2.977   4.683 134.566  0.00  0.00    -0.503 OA
ATOM     24  H   LIG A   1      -3.024   3.715 134.622  0.00  0.00    +0.292 HD
ENDBRANCH   9  23
TORSDOF 3
ENDMDL
MODEL 8
REMARK VINA RESULT:      -6.9      7.608      8.332
REMARK  Name = NuBBE_1662
REMARK  4 active torsions:
REMARK  status: ('A' for Active; 'I' for Inactive)
REMARK    1  A    between atoms: C_7  and  C_8
REMARK    2  A    between atoms: C_18  and  O_23
REMARK    3  A    between atoms: C_19  and  O_21
REMARK    4  A    between atoms: O_21  and  C_22
REMARK                            x       y       z     vdW  Elec       q    Type
REMARK                         _______ _______ _______ _____ _____    ______ ____
ROOT
ATOM      1  O   LIG A   1      -5.220   0.269 127.998  0.00  0.00    -0.286 OA
ATOM      2  C   LIG A   1      -5.919   0.601 127.046  0.00  0.00    +0.200 A 
ATOM      3  C   LIG A   1      -6.987  -0.297 126.567  0.00  0.00    +0.068 A 
ATOM      4  C   LIG A   1      -7.734   0.076 125.458  0.00  0.00    +0.142 A 
ATOM      5  O   LIG A   1      -7.518   1.244 124.780  0.00  0.00    -0.462 OA
ATOM      6  C   LIG A   1      -6.565   2.100 125.272  0.00  0.00    +0.208 A 
ATOM      7  C   LIG A   1      -5.752   1.903 126.324  0.00  0.00    +0.064 A 
ATOM      8  C   LIG A   1      -8.755  -0.749 124.988  0.00  0.00    +0.096 A 
ATOM      9  C   LIG A   1      -9.036  -1.952 125.643  0.00  0.00    +0.162 A 
ATOM     10  C   LIG A   1      -8.295  -2.336 126.769  0.00  0.00    +0.162 A 
ATOM     11  C   LIG A   1      -7.257  -1.507 127.215  0.00  0.00    +0.064 A 
ENDROOT
BRANCH   7  12
ATOM     12  C   LIG A   1      -4.780   2.949 126.739  0.00  0.00    -0.008 A 
ATOM     13  C   LIG A   1      -5.222   4.201 127.215  0.00  0.00    +0.058 A 
ATOM     14  C   LIG A   1      -4.285   5.134 127.610  0.00  0.00    +0.167 A 
ATOM     15  C   LIG A   1      -2.937   4.886 127.536  0.00  0.00    +0.166 A 
ATOM     16  C   LIG A   1      -2.454   3.688 127.067  0.00  0.00    +0.050 A 
ATOM     17  C   LIG A   1      -3.385   2.717 126.672  0.00  0.00    +0.012 A 
ATOM     18  O   LIG A   1      -2.190   5.936 127.970  0.00  0.00    -0.453 OA
ATOM     19  C   LIG A   1      -3.226   6.878 128.322  0.00  0.00    +0.466 C 
ATOM     20  O   LIG A   1      -4.559   6.371 128.103  0.00  0.00    -0.453 OA
ENDBRANCH   7  12
BRANCH  10  21
ATOM     21  O   LIG A   1      -8.430  -3.491 127.493  0.00  0.00    -0.491 OA
ATOM     22  C   LIG A   1      -8.434  -3.361 128.909  0.00  0.00    +0.277 C 
ENDBRANCH  10  21
BRANCH   9  23
ATOM     23  O   LIG A   1     -10.032  -2.746 125.146  0.00  0.00    -0.503 OA
ATOM     24  H   LIG A   1      -9.810  -3.020 124.242  0.00  0.00    +0.292 HD
ENDBRANCH   9  23
TORSDOF 3
ENDMDL
MODEL 9
REMARK VINA RESULT:      -6.9      9.580     11.999
REMARK  Name = NuBBE_1662
REMARK  4 active torsions:
REMARK  status: ('A' for Active; 'I' for Inactive)
REMARK    1  A    between atoms: C_7  and  C_8
REMARK    2  A    between atoms: C_18  and  O_23
REMARK    3  A    between atoms: C_19  and  O_21
REMARK    4  A    between atoms: O_21  and  C_22
REMARK                            x       y       z     vdW  Elec       q    Type
REMARK                         _______ _______ _______ _____ _____    ______ ____
ROOT
ATOM      1  O   LIG A   1      -5.517  -1.524 126.906  0.00  0.00    -0.286 OA
ATOM      2  C   LIG A   1      -6.279  -2.209 127.581  0.00  0.00    +0.200 A 
ATOM      3  C   LIG A   1      -5.854  -2.691 128.909  0.00  0.00    +0.068 A 
ATOM      4  C   LIG A   1      -6.713  -3.505 129.637  0.00  0.00    +0.142 A 
ATOM      5  O   LIG A   1      -7.941  -3.889 129.170  0.00  0.00    -0.462 OA
ATOM      6  C   LIG A   1      -8.350  -3.383 127.961  0.00  0.00    +0.208 A 
ATOM      7  C   LIG A   1      -7.654  -2.590 127.128  0.00  0.00    +0.064 A 
ATOM      8  C   LIG A   1      -6.342  -3.969 130.897  0.00  0.00    +0.096 A 
ATOM      9  C   LIG A   1      -5.106  -3.604 131.438  0.00  0.00    +0.162 A 
ATOM     10  C   LIG A   1      -4.234  -2.775 130.719  0.00  0.00    +0.162 A 
ATOM     11  C   LIG A   1      -4.611  -2.337 129.443  0.00  0.00    +0.064 A 
ENDROOT
BRANCH   7  12
ATOM     12  C   LIG A   1      -8.258  -2.112 125.855  0.00  0.00    -0.008 A 
ATOM     13  C   LIG A   1      -8.616  -0.759 125.687  0.00  0.00    +0.058 A 
ATOM     14  C   LIG A   1      -9.153  -0.356 124.480  0.00  0.00    +0.167 A 
ATOM     15  C   LIG A   1      -9.365  -1.236 123.449  0.00  0.00    +0.166 A 
ATOM     16  C   LIG A   1      -9.046  -2.568 123.567  0.00  0.00    +0.050 A 
ATOM     17  C   LIG A   1      -8.486  -3.001 124.776  0.00  0.00    +0.012 A 
ATOM     18  O   LIG A   1      -9.904  -0.635 122.355  0.00  0.00    -0.453 OA
ATOM     19  C   LIG A   1     -10.013   0.727 122.819  0.00  0.00    +0.466 C 
ATOM     20  O   LIG A   1      -9.529   0.913 124.166  0.00  0.00    -0.453 OA
ENDBRANCH   7  12
BRANCH  10  21
ATOM     21  O   LIG A   1      -2.985  -2.361 131.099  0.00  0.00    -0.491 OA
ATOM     22  C   LIG A   1      -2.923  -1.364 132.111  0.00  0.00    +0.277 C 
ENDBRANCH  10  21
BRANCH   9  23
ATOM     23  O   LIG A   1      -4.766  -4.090 132.670  0.00  0.00    -0.503 OA
ATOM     24  H   LIG A   1      -3.800  -4.085 132.767  0.00  0.00    +0.292 HD
ENDBRANCH   9  23
TORSDOF 3
ENDMDL
