MODEL 1
REMARK VINA RESULT:      -6.9      0.000      0.000
REMARK  Name = NuBBE_157
REMARK  6 active torsions:
REMARK  status: ('A' for Active; 'I' for Inactive)
REMARK    1  A    between atoms: C_2  and  O_3
REMARK    2  A    between atoms: C_2  and  C_5
REMARK    3  A    between atoms: O_3  and  C_4
REMARK    4  A    between atoms: C_7  and  O_8
REMARK    5  A    between atoms: C_11  and  C_12
REMARK    6  A    between atoms: C_11  and  C_13
REMARK                            x       y       z     vdW  Elec       q    Type
REMARK                         _______ _______ _______ _____ _____    ______ ____
ROOT
ATOM      1  C   LIG A   1     -12.245   8.647 129.150  0.00  0.00    +0.063 A 
ATOM      2  C   LIG A   1     -11.592   8.302 127.962  0.00  0.00    +0.064 A 
ATOM      3  C   LIG A   1     -10.700   7.231 127.961  0.00  0.00    +0.160 A 
ATOM      4  C   LIG A   1     -10.435   6.513 129.136  0.00  0.00    +0.166 A 
ATOM      5  O   LIG A   1      -9.536   5.482 129.049  0.00  0.00    -0.482 OA
ATOM      6  C   LIG A   1      -9.020   4.960 130.284  0.00  0.00    +0.106 C 
ATOM      7  C   LIG A   1      -7.876   5.861 130.773  0.00  0.00    +0.055 C 
ATOM      8  C   LIG A   1      -8.442   3.579 129.947  0.00  0.00    +0.055 C 
ATOM      9  C   LIG A   1     -10.135   4.789 131.324  0.00  0.00    +0.052 C 
ATOM     10  C   LIG A   1     -10.833   6.110 131.601  0.00  0.00    +0.043 C 
ATOM     11  C   LIG A   1     -11.092   6.851 130.323  0.00  0.00    -0.001 A 
ATOM     12  C   LIG A   1     -11.985   7.930 130.326  0.00  0.00    +0.022 A 
ENDROOT
BRANCH   1  14
ATOM     13  O   LIG A   1     -13.883  10.093 128.184  0.00  0.00    -0.245 OA
ATOM     14  C   LIG A   1     -13.199   9.784 129.141  0.00  0.00    +0.339 C 
BRANCH  14  15
ATOM     15  O   LIG A   1     -13.195  10.375 130.363  0.00  0.00    -0.464 OA
ATOM     16  C   LIG A   1     -13.584  11.748 130.376  0.00  0.00    +0.280 C 
ENDBRANCH  14  15
ENDBRANCH   1  14
BRANCH   3  17
ATOM     17  O   LIG A   1     -10.062   6.871 126.804  0.00  0.00    -0.503 OA
ATOM     18  H   LIG A   1     -10.671   6.969 126.055  0.00  0.00    +0.292 HD
ENDBRANCH   3  17
TORSDOF 3
ENDMDL
MODEL 2
REMARK VINA RESULT:      -6.8      8.871     10.125
REMARK  Name = NuBBE_157
REMARK  6 active torsions:
REMARK  status: ('A' for Active; 'I' for Inactive)
REMARK    1  A    between atoms: C_2  and  O_3
REMARK    2  A    between atoms: C_2  and  C_5
REMARK    3  A    between atoms: O_3  and  C_4
REMARK    4  A    between atoms: C_7  and  O_8
REMARK    5  A    between atoms: C_11  and  C_12
REMARK    6  A    between atoms: C_11  and  C_13
REMARK                            x       y       z     vdW  Elec       q    Type
REMARK                         _______ _______ _______ _____ _____    ______ ____
ROOT
ATOM      1  C   LIG A   1      -7.649   2.283 122.772  0.00  0.00    +0.063 A 
ATOM      2  C   LIG A   1      -9.006   2.353 123.101  0.00  0.00    +0.064 A 
ATOM      3  C   LIG A   1      -9.603   1.283 123.764  0.00  0.00    +0.160 A 
ATOM      4  C   LIG A   1      -8.867   0.132 124.084  0.00  0.00    +0.166 A 
ATOM      5  O   LIG A   1      -9.533  -0.878 124.727  0.00  0.00    -0.482 OA
ATOM      6  C   LIG A   1      -8.889  -2.162 124.766  0.00  0.00    +0.106 C 
ATOM      7  C   LIG A   1      -9.143  -2.894 123.439  0.00  0.00    +0.055 C 
ATOM      8  C   LIG A   1      -9.580  -2.943 125.892  0.00  0.00    +0.055 C 
ATOM      9  C   LIG A   1      -7.399  -2.027 125.101  0.00  0.00    +0.052 C 
ATOM     10  C   LIG A   1      -6.687  -1.150 124.085  0.00  0.00    +0.043 C 
ATOM     11  C   LIG A   1      -7.507   0.063 123.763  0.00  0.00    -0.001 A 
ATOM     12  C   LIG A   1      -6.908   1.137 123.092  0.00  0.00    +0.022 A 
ENDROOT
BRANCH   1  14
ATOM     13  O   LIG A   1      -5.984   3.962 122.427  0.00  0.00    -0.245 OA
ATOM     14  C   LIG A   1      -7.019   3.431 122.072  0.00  0.00    +0.339 C 
BRANCH  14  15
ATOM     15  O   LIG A   1      -7.765   3.749 120.984  0.00  0.00    -0.464 OA
ATOM     16  C   LIG A   1      -7.022   4.138 119.830  0.00  0.00    +0.280 C 
ENDBRANCH  14  15
ENDBRANCH   1  14
BRANCH   3  17
ATOM     17  O   LIG A   1     -10.928   1.340 124.107  0.00  0.00    -0.503 OA
ATOM     18  H   LIG A   1     -11.469   1.063 123.351  0.00  0.00    +0.292 HD
ENDBRANCH   3  17
TORSDOF 3
ENDMDL
MODEL 3
REMARK VINA RESULT:      -6.7      2.092      3.525
REMARK  Name = NuBBE_157
REMARK  6 active torsions:
REMARK  status: ('A' for Active; 'I' for Inactive)
REMARK    1  A    between atoms: C_2  and  O_3
REMARK    2  A    between atoms: C_2  and  C_5
REMARK    3  A    between atoms: O_3  and  C_4
REMARK    4  A    between atoms: C_7  and  O_8
REMARK    5  A    between atoms: C_11  and  C_12
REMARK    6  A    between atoms: C_11  and  C_13
REMARK                            x       y       z     vdW  Elec       q    Type
REMARK                         _______ _______ _______ _____ _____    ______ ____
ROOT
ATOM      1  C   LIG A   1     -11.041   7.838 129.446  0.00  0.00    +0.063 A 
ATOM      2  C   LIG A   1     -11.924   7.300 130.387  0.00  0.00    +0.064 A 
ATOM      3  C   LIG A   1     -11.413   6.601 131.479  0.00  0.00    +0.160 A 
ATOM      4  C   LIG A   1     -10.031   6.415 131.633  0.00  0.00    +0.166 A 
ATOM      5  O   LIG A   1      -9.613   5.707 132.729  0.00  0.00    -0.482 OA
ATOM      6  C   LIG A   1      -8.255   5.239 132.725  0.00  0.00    +0.106 C 
ATOM      7  C   LIG A   1      -8.171   3.941 131.906  0.00  0.00    +0.055 C 
ATOM      8  C   LIG A   1      -7.918   4.915 134.187  0.00  0.00    +0.055 C 
ATOM      9  C   LIG A   1      -7.294   6.326 132.226  0.00  0.00    +0.052 C 
ATOM     10  C   LIG A   1      -7.663   6.780 130.824  0.00  0.00    +0.043 C 
ATOM     11  C   LIG A   1      -9.146   6.960 130.697  0.00  0.00    -0.001 A 
ATOM     12  C   LIG A   1      -9.660   7.658 129.596  0.00  0.00    +0.022 A 
ENDROOT
BRANCH   1  14
ATOM     13  O   LIG A   1     -12.647   9.196 128.311  0.00  0.00    -0.245 OA
ATOM     14  C   LIG A   1     -11.594   8.588 128.289  0.00  0.00    +0.339 C 
BRANCH  14  15
ATOM     15  O   LIG A   1     -10.726   8.502 127.250  0.00  0.00    -0.464 OA
ATOM     16  C   LIG A   1     -11.030   7.496 126.285  0.00  0.00    +0.280 C 
ENDBRANCH  14  15
ENDBRANCH   1  14
BRANCH   3  17
ATOM     17  O   LIG A   1     -12.261   6.078 132.418  0.00  0.00    -0.503 OA
ATOM     18  H   LIG A   1     -11.875   6.188 133.300  0.00  0.00    +0.292 HD
ENDBRANCH   3  17
TORSDOF 3
ENDMDL
MODEL 4
REMARK VINA RESULT:      -6.1      6.695      9.045
REMARK  Name = NuBBE_157
REMARK  6 active torsions:
REMARK  status: ('A' for Active; 'I' for Inactive)
REMARK    1  A    between atoms: C_2  and  O_3
REMARK    2  A    between atoms: C_2  and  C_5
REMARK    3  A    between atoms: O_3  and  C_4
REMARK    4  A    between atoms: C_7  and  O_8
REMARK    5  A    between atoms: C_11  and  C_12
REMARK    6  A    between atoms: C_11  and  C_13
REMARK                            x       y       z     vdW  Elec       q    Type
REMARK                         _______ _______ _______ _____ _____    ______ ____
ROOT
ATOM      1  C   LIG A   1      -8.447   2.589 124.985  0.00  0.00    +0.063 A 
ATOM      2  C   LIG A   1      -9.168   2.449 123.795  0.00  0.00    +0.064 A 
ATOM      3  C   LIG A   1      -9.493   1.173 123.340  0.00  0.00    +0.160 A 
ATOM      4  C   LIG A   1      -9.090   0.031 124.049  0.00  0.00    +0.166 A 
ATOM      5  O   LIG A   1      -9.443  -1.186 123.527  0.00  0.00    -0.482 OA
ATOM      6  C   LIG A   1      -8.770  -2.341 124.054  0.00  0.00    +0.106 C 
ATOM      7  C   LIG A   1      -7.404  -2.488 123.366  0.00  0.00    +0.055 C 
ATOM      8  C   LIG A   1      -9.642  -3.545 123.669  0.00  0.00    +0.055 C 
ATOM      9  C   LIG A   1      -8.667  -2.275 125.584  0.00  0.00    +0.052 C 
ATOM     10  C   LIG A   1      -7.923  -1.027 126.028  0.00  0.00    +0.043 C 
ATOM     11  C   LIG A   1      -8.375   0.169 125.244  0.00  0.00    -0.001 A 
ATOM     12  C   LIG A   1      -8.044   1.451 125.698  0.00  0.00    +0.022 A 
ENDROOT
BRANCH   1  14
ATOM     13  O   LIG A   1      -8.923   4.847 125.602  0.00  0.00    -0.245 OA
ATOM     14  C   LIG A   1      -8.111   3.953 125.465  0.00  0.00    +0.339 C 
BRANCH  14  15
ATOM     15  O   LIG A   1      -6.784   4.009 125.746  0.00  0.00    -0.464 OA
ATOM     16  C   LIG A   1      -6.069   5.058 125.096  0.00  0.00    +0.280 C 
ENDBRANCH  14  15
ENDBRANCH   1  14
BRANCH   3  17
ATOM     17  O   LIG A   1     -10.210   1.018 122.184  0.00  0.00    -0.503 OA
ATOM     18  H   LIG A   1     -10.587   0.125 122.155  0.00  0.00    +0.292 HD
ENDBRANCH   3  17
TORSDOF 3
ENDMDL
MODEL 5
REMARK VINA RESULT:      -5.9      2.106      5.760
REMARK  Name = NuBBE_157
REMARK  6 active torsions:
REMARK  status: ('A' for Active; 'I' for Inactive)
REMARK    1  A    between atoms: C_2  and  O_3
REMARK    2  A    between atoms: C_2  and  C_5
REMARK    3  A    between atoms: O_3  and  C_4
REMARK    4  A    between atoms: C_7  and  O_8
REMARK    5  A    between atoms: C_11  and  C_12
REMARK    6  A    between atoms: C_11  and  C_13
REMARK                            x       y       z     vdW  Elec       q    Type
REMARK                         _______ _______ _______ _____ _____    ______ ____
ROOT
ATOM      1  C   LIG A   1      -9.350   4.914 131.481  0.00  0.00    +0.063 A 
ATOM      2  C   LIG A   1      -8.921   5.024 130.155  0.00  0.00    +0.064 A 
ATOM      3  C   LIG A   1      -9.617   5.855 129.279  0.00  0.00    +0.160 A 
ATOM      4  C   LIG A   1     -10.751   6.563 129.706  0.00  0.00    +0.166 A 
ATOM      5  O   LIG A   1     -11.383   7.349 128.778  0.00  0.00    -0.482 OA
ATOM      6  C   LIG A   1     -12.704   7.810 129.106  0.00  0.00    +0.106 C 
ATOM      7  C   LIG A   1     -13.718   6.699 128.794  0.00  0.00    +0.055 C 
ATOM      8  C   LIG A   1     -12.978   8.996 128.169  0.00  0.00    +0.055 C 
ATOM      9  C   LIG A   1     -12.777   8.301 130.557  0.00  0.00    +0.052 C 
ATOM     10  C   LIG A   1     -12.386   7.198 131.527  0.00  0.00    +0.043 C 
ATOM     11  C   LIG A   1     -11.177   6.460 131.034  0.00  0.00    -0.001 A 
ATOM     12  C   LIG A   1     -10.480   5.622 131.913  0.00  0.00    +0.022 A 
ENDROOT
BRANCH   1  14
ATOM     13  O   LIG A   1      -7.401   4.117 132.610  0.00  0.00    -0.245 OA
ATOM     14  C   LIG A   1      -8.598   4.033 132.409  0.00  0.00    +0.339 C 
BRANCH  14  15
ATOM     15  O   LIG A   1      -9.462   3.168 132.996  0.00  0.00    -0.464 OA
ATOM     16  C   LIG A   1      -9.713   1.968 132.266  0.00  0.00    +0.280 C 
ENDBRANCH  14  15
ENDBRANCH   1  14
BRANCH   3  17
ATOM     17  O   LIG A   1      -9.203   5.985 127.981  0.00  0.00    -0.503 OA
ATOM     18  H   LIG A   1      -8.479   5.363 127.808  0.00  0.00    +0.292 HD
ENDBRANCH   3  17
TORSDOF 3
ENDMDL
MODEL 6
REMARK VINA RESULT:      -5.9      2.413      4.104
REMARK  Name = NuBBE_157
REMARK  6 active torsions:
REMARK  status: ('A' for Active; 'I' for Inactive)
REMARK    1  A    between atoms: C_2  and  O_3
REMARK    2  A    between atoms: C_2  and  C_5
REMARK    3  A    between atoms: O_3  and  C_4
REMARK    4  A    between atoms: C_7  and  O_8
REMARK    5  A    between atoms: C_11  and  C_12
REMARK    6  A    between atoms: C_11  and  C_13
REMARK                            x       y       z     vdW  Elec       q    Type
REMARK                         _______ _______ _______ _____ _____    ______ ____
ROOT
ATOM      1  C   LIG A   1     -10.043   6.566 129.484  0.00  0.00    +0.063 A 
ATOM      2  C   LIG A   1     -10.343   6.918 130.804  0.00  0.00    +0.064 A 
ATOM      3  C   LIG A   1      -9.882   6.115 131.845  0.00  0.00    +0.160 A 
ATOM      4  C   LIG A   1      -9.143   4.952 131.585  0.00  0.00    +0.166 A 
ATOM      5  O   LIG A   1      -8.737   4.214 132.667  0.00  0.00    -0.482 OA
ATOM      6  C   LIG A   1      -8.273   2.879 132.408  0.00  0.00    +0.106 C 
ATOM      7  C   LIG A   1      -9.483   1.941 132.273  0.00  0.00    +0.055 C 
ATOM      8  C   LIG A   1      -7.473   2.465 133.651  0.00  0.00    +0.055 C 
ATOM      9  C   LIG A   1      -7.345   2.840 131.187  0.00  0.00    +0.052 C 
ATOM     10  C   LIG A   1      -8.050   3.364 129.948  0.00  0.00    +0.043 C 
ATOM     11  C   LIG A   1      -8.835   4.602 130.266  0.00  0.00    -0.001 A 
ATOM     12  C   LIG A   1      -9.302   5.406 129.219  0.00  0.00    +0.022 A 
ENDROOT
BRANCH   1  14
ATOM     13  O   LIG A   1     -10.150   8.569 128.186  0.00  0.00    -0.245 OA
ATOM     14  C   LIG A   1     -10.532   7.431 128.381  0.00  0.00    +0.339 C 
BRANCH  14  15
ATOM     15  O   LIG A   1     -11.425   6.734 127.634  0.00  0.00    -0.464 OA
ATOM     16  C   LIG A   1     -12.797   6.981 127.940  0.00  0.00    +0.280 C 
ENDBRANCH  14  15
ENDBRANCH   1  14
BRANCH   3  17
ATOM     17  O   LIG A   1     -10.155   6.452 133.144  0.00  0.00    -0.503 OA
ATOM     18  H   LIG A   1     -10.964   6.001 133.432  0.00  0.00    +0.292 HD
ENDBRANCH   3  17
TORSDOF 3
ENDMDL
MODEL 7
REMARK VINA RESULT:      -5.8      1.914      2.772
REMARK  Name = NuBBE_157
REMARK  6 active torsions:
REMARK  status: ('A' for Active; 'I' for Inactive)
REMARK    1  A    between atoms: C_2  and  O_3
REMARK    2  A    between atoms: C_2  and  C_5
REMARK    3  A    between atoms: O_3  and  C_4
REMARK    4  A    between atoms: C_7  and  O_8
REMARK    5  A    between atoms: C_11  and  C_12
REMARK    6  A    between atoms: C_11  and  C_13
REMARK                            x       y       z     vdW  Elec       q    Type
REMARK                         _______ _______ _______ _____ _____    ______ ____
ROOT
ATOM      1  C   LIG A   1     -11.340   6.788 129.714  0.00  0.00    +0.063 A 
ATOM      2  C   LIG A   1     -10.109   7.407 129.952  0.00  0.00    +0.064 A 
ATOM      3  C   LIG A   1      -9.052   6.651 130.455  0.00  0.00    +0.160 A 
ATOM      4  C   LIG A   1      -9.213   5.288 130.741  0.00  0.00    +0.166 A 
ATOM      5  O   LIG A   1      -8.125   4.621 131.242  0.00  0.00    -0.482 OA
ATOM      6  C   LIG A   1      -8.366   3.334 131.835  0.00  0.00    +0.106 C 
ATOM      7  C   LIG A   1      -8.860   3.527 133.277  0.00  0.00    +0.055 C 
ATOM      8  C   LIG A   1      -7.001   2.632 131.877  0.00  0.00    +0.055 C 
ATOM      9  C   LIG A   1      -9.325   2.498 130.978  0.00  0.00    +0.052 C 
ATOM     10  C   LIG A   1     -10.654   3.210 130.793  0.00  0.00    +0.043 C 
ATOM     11  C   LIG A   1     -10.441   4.664 130.496  0.00  0.00    -0.001 A 
ATOM     12  C   LIG A   1     -11.505   5.425 129.995  0.00  0.00    +0.022 A 
ENDROOT
BRANCH   1  14
ATOM     13  O   LIG A   1     -13.534   7.140 128.834  0.00  0.00    -0.245 OA
ATOM     14  C   LIG A   1     -12.459   7.599 129.172  0.00  0.00    +0.339 C 
BRANCH  14  15
ATOM     15  O   LIG A   1     -12.091   8.905 129.154  0.00  0.00    -0.464 OA
ATOM     16  C   LIG A   1     -13.167   9.841 129.185  0.00  0.00    +0.280 C 
ENDBRANCH  14  15
ENDBRANCH   1  14
BRANCH   3  17
ATOM     17  O   LIG A   1      -7.836   7.238 130.682  0.00  0.00    -0.503 OA
ATOM     18  H   LIG A   1      -7.371   7.356 129.839  0.00  0.00    +0.292 HD
ENDBRANCH   3  17
TORSDOF 3
ENDMDL
MODEL 8
REMARK VINA RESULT:      -5.7      2.065      3.362
REMARK  Name = NuBBE_157
REMARK  6 active torsions:
REMARK  status: ('A' for Active; 'I' for Inactive)
REMARK    1  A    between atoms: C_2  and  O_3
REMARK    2  A    between atoms: C_2  and  C_5
REMARK    3  A    between atoms: O_3  and  C_4
REMARK    4  A    between atoms: C_7  and  O_8
REMARK    5  A    between atoms: C_11  and  C_12
REMARK    6  A    between atoms: C_11  and  C_13
REMARK                            x       y       z     vdW  Elec       q    Type
REMARK                         _______ _______ _______ _____ _____    ______ ____
ROOT
ATOM      1  C   LIG A   1     -11.139   6.446 130.045  0.00  0.00    +0.063 A 
ATOM      2  C   LIG A   1     -11.321   5.107 130.406  0.00  0.00    +0.064 A 
ATOM      3  C   LIG A   1     -10.258   4.403 130.970  0.00  0.00    +0.160 A 
ATOM      4  C   LIG A   1      -9.009   5.013 131.159  0.00  0.00    +0.166 A 
ATOM      5  O   LIG A   1      -8.016   4.247 131.710  0.00  0.00    -0.482 OA
ATOM      6  C   LIG A   1      -6.673   4.748 131.609  0.00  0.00    +0.106 C 
ATOM      7  C   LIG A   1      -6.110   4.406 130.220  0.00  0.00    +0.055 C 
ATOM      8  C   LIG A   1      -5.861   3.986 132.665  0.00  0.00    +0.055 C 
ATOM      9  C   LIG A   1      -6.614   6.247 131.928  0.00  0.00    +0.052 C 
ATOM     10  C   LIG A   1      -7.508   7.042 130.990  0.00  0.00    +0.043 C 
ATOM     11  C   LIG A   1      -8.828   6.355 130.807  0.00  0.00    -0.001 A 
ATOM     12  C   LIG A   1      -9.895   7.061 130.236  0.00  0.00    +0.022 A 
ENDROOT
BRANCH   1  14
ATOM     13  O   LIG A   1     -13.118   6.690 128.728  0.00  0.00    -0.245 OA
ATOM     14  C   LIG A   1     -12.279   7.191 129.452  0.00  0.00    +0.339 C 
BRANCH  14  15
ATOM     15  O   LIG A   1     -12.235   8.479 129.877  0.00  0.00    -0.464 OA
ATOM     16  C   LIG A   1     -12.931   9.414 129.055  0.00  0.00    +0.280 C 
ENDBRANCH  14  15
ENDBRANCH   1  14
BRANCH   3  17
ATOM     17  O   LIG A   1     -10.422   3.096 131.341  0.00  0.00    -0.503 OA
ATOM     18  H   LIG A   1      -9.643   2.583 131.072  0.00  0.00    +0.292 HD
ENDBRANCH   3  17
TORSDOF 3
ENDMDL
MODEL 9
REMARK VINA RESULT:      -5.7      9.011     11.530
REMARK  Name = NuBBE_157
REMARK  6 active torsions:
REMARK  status: ('A' for Active; 'I' for Inactive)
REMARK    1  A    between atoms: C_2  and  O_3
REMARK    2  A    between atoms: C_2  and  C_5
REMARK    3  A    between atoms: O_3  and  C_4
REMARK    4  A    between atoms: C_7  and  O_8
REMARK    5  A    between atoms: C_11  and  C_12
REMARK    6  A    between atoms: C_11  and  C_13
REMARK                            x       y       z     vdW  Elec       q    Type
REMARK                         _______ _______ _______ _____ _____    ______ ____
ROOT
ATOM      1  C   LIG A   1      -7.787  -2.366 128.457  0.00  0.00    +0.063 A 
ATOM      2  C   LIG A   1      -7.778  -0.985 128.235  0.00  0.00    +0.064 A 
ATOM      3  C   LIG A   1      -8.093  -0.496 126.969  0.00  0.00    +0.160 A 
ATOM      4  C   LIG A   1      -8.398  -1.370 125.914  0.00  0.00    +0.166 A 
ATOM      5  O   LIG A   1      -8.686  -0.806 124.699  0.00  0.00    -0.482 OA
ATOM      6  C   LIG A   1      -8.678  -1.679 123.558  0.00  0.00    +0.106 C 
ATOM      7  C   LIG A   1      -7.230  -1.871 123.079  0.00  0.00    +0.055 C 
ATOM      8  C   LIG A   1      -9.459  -0.942 122.461  0.00  0.00    +0.055 C 
ATOM      9  C   LIG A   1      -9.388  -3.003 123.865  0.00  0.00    +0.052 C 
ATOM     10  C   LIG A   1      -8.732  -3.717 125.034  0.00  0.00    +0.043 C 
ATOM     11  C   LIG A   1      -8.415  -2.751 126.136  0.00  0.00    -0.001 A 
ATOM     12  C   LIG A   1      -8.094  -3.243 127.408  0.00  0.00    +0.022 A 
ENDROOT
BRANCH   1  14
ATOM     13  O   LIG A   1      -7.716  -2.290 130.845  0.00  0.00    -0.245 OA
ATOM     14  C   LIG A   1      -7.457  -2.878 129.811  0.00  0.00    +0.339 C 
BRANCH  14  15
ATOM     15  O   LIG A   1      -6.865  -4.093 129.693  0.00  0.00    -0.464 OA
ATOM     16  C   LIG A   1      -5.710  -4.289 130.507  0.00  0.00    +0.280 C 
ENDBRANCH  14  15
ENDBRANCH   1  14
BRANCH   3  17
ATOM     17  O   LIG A   1      -8.102   0.853 126.737  0.00  0.00    -0.503 OA
ATOM     18  H   LIG A   1      -7.203   1.204 126.835  0.00  0.00    +0.292 HD
ENDBRANCH   3  17
TORSDOF 3
ENDMDL
