MODEL 1
REMARK VINA RESULT:      -8.3      0.000      0.000
REMARK  Name = NuBBE_270
REMARK  13 active torsions:
REMARK  status: ('A' for Active; 'I' for Inactive)
REMARK    1  A    between atoms: O_1  and  C_2
REMARK    2  A    between atoms: C_4  and  O_32
REMARK    3  A    between atoms: C_7  and  C_9
REMARK    4  A    between atoms: C_9  and  O_10
REMARK    5  A    between atoms: O_10  and  C_11
REMARK    6  A    between atoms: C_14  and  C_16
REMARK    7  A    between atoms: C_17  and  O_19
REMARK    8  A    between atoms: C_20  and  O_22
REMARK    9  A    between atoms: C_23  and  O_25
REMARK   10  A    between atoms: C_26  and  O_28
REMARK   11  A    between atoms: C_29  and  O_31
REMARK   12  A    between atoms: O_32  and  C_33
REMARK   13  A    between atoms: C_33  and  C_34
REMARK                            x       y       z     vdW  Elec       q    Type
REMARK                         _______ _______ _______ _____ _____    ______ ____
ROOT
ATOM      1  C   LIG A   1      -6.718   4.833 125.361  0.00  0.00    +0.201 C 
ATOM      2  C   LIG A   1      -5.809   3.940 124.470  0.00  0.00    +0.282 C 
ATOM      3  O   LIG A   1      -5.487   2.698 125.107  0.00  0.00    -0.341 OA
ATOM      4  C   LIG A   1      -6.610   1.920 125.572  0.00  0.00    +0.178 C 
ATOM      5  C   LIG A   1      -7.497   2.729 126.530  0.00  0.00    +0.177 C 
ATOM      6  C   LIG A   1      -7.933   4.069 125.916  0.00  0.00    +0.179 C 
ENDROOT
BRANCH   1   7
ATOM      7  O   LIG A   1      -5.952   5.315 126.488  0.00  0.00    -0.384 OA
ATOM      8  H   LIG A   1      -6.542   5.891 127.009  0.00  0.00    +0.210 HD
ENDBRANCH   1   7
BRANCH   5   9
ATOM      9  O   LIG A   1      -6.768   2.975 127.747  0.00  0.00    -0.387 OA
ATOM     10  H   LIG A   1      -7.295   3.615 128.270  0.00  0.00    +0.210 HD
ENDBRANCH   5   9
BRANCH   6  11
ATOM     11  O   LIG A   1      -8.925   3.908 124.904  0.00  0.00    -0.386 OA
ATOM     12  H   LIG A   1      -8.608   3.232 124.278  0.00  0.00    +0.210 HD
ENDBRANCH   6  11
BRANCH   4  13
ATOM     13  C   LIG A   1      -7.380   1.254 124.418  0.00  0.00    +0.197 C 
BRANCH  13  14
ATOM     14  O   LIG A   1      -8.710   0.884 124.794  0.00  0.00    -0.346 OA
BRANCH  14  15
ATOM     15  C   LIG A   1      -8.872  -0.548 124.758  0.00  0.00    +0.282 C 
ATOM     16  O   LIG A   1      -7.791  -1.141 125.479  0.00  0.00    -0.343 OA
ATOM     17  C   LIG A   1      -7.811  -2.569 125.536  0.00  0.00    +0.149 C 
ATOM     18  C   LIG A   1      -8.975  -3.109 126.363  0.00  0.00    +0.040 C 
ATOM     19  C   LIG A   1      -7.713  -3.133 124.111  0.00  0.00    +0.174 C 
ATOM     20  C   LIG A   1      -8.775  -2.549 123.172  0.00  0.00    +0.179 C 
ATOM     21  C   LIG A   1      -8.870  -1.017 123.285  0.00  0.00    +0.201 C 
BRANCH  19  22
ATOM     22  O   LIG A   1      -6.419  -2.813 123.576  0.00  0.00    -0.387 OA
ATOM     23  H   LIG A   1      -6.532  -2.048 122.978  0.00  0.00    +0.210 HD
ENDBRANCH  19  22
BRANCH  20  24
ATOM     24  O   LIG A   1     -10.070  -3.116 123.435  0.00  0.00    -0.386 OA
ATOM     25  H   LIG A   1     -10.728  -2.432 123.206  0.00  0.00    +0.210 HD
ENDBRANCH  20  24
BRANCH  21  26
ATOM     26  O   LIG A   1     -10.051  -0.581 122.587  0.00  0.00    -0.384 OA
ATOM     27  H   LIG A   1     -10.699  -0.362 123.285  0.00  0.00    +0.210 HD
ENDBRANCH  21  26
ENDBRANCH  14  15
ENDBRANCH  13  14
ENDBRANCH   4  13
BRANCH   2  28
ATOM     28  O   LIG A   1      -6.336   3.772 123.159  0.00  0.00    -0.344 OA
BRANCH  28  29
ATOM     29  C   LIG A   1      -5.351   3.950 122.135  0.00  0.00    +0.198 C 
BRANCH  29  30
ATOM     30  C   LIG A   1      -5.986   4.334 120.814  0.00  0.00    -0.022 A 
ATOM     31  C   LIG A   1      -7.248   3.857 120.438  0.00  0.00    +0.006 A 
ATOM     32  C   LIG A   1      -7.817   4.208 119.214  0.00  0.00    +0.000 A 
ATOM     33  C   LIG A   1      -7.121   5.043 118.339  0.00  0.00    +0.000 A 
ATOM     34  C   LIG A   1      -5.865   5.528 118.697  0.00  0.00    +0.000 A 
ATOM     35  C   LIG A   1      -5.299   5.180 119.924  0.00  0.00    +0.006 A 
ENDBRANCH  29  30
ENDBRANCH  28  29
ENDBRANCH   2  28
TORSDOF 12
ENDMDL
MODEL 2
REMARK VINA RESULT:      -7.8      1.389      2.432
REMARK  Name = NuBBE_270
REMARK  13 active torsions:
REMARK  status: ('A' for Active; 'I' for Inactive)
REMARK    1  A    between atoms: O_1  and  C_2
REMARK    2  A    between atoms: C_4  and  O_32
REMARK    3  A    between atoms: C_7  and  C_9
REMARK    4  A    between atoms: C_9  and  O_10
REMARK    5  A    between atoms: O_10  and  C_11
REMARK    6  A    between atoms: C_14  and  C_16
REMARK    7  A    between atoms: C_17  and  O_19
REMARK    8  A    between atoms: C_20  and  O_22
REMARK    9  A    between atoms: C_23  and  O_25
REMARK   10  A    between atoms: C_26  and  O_28
REMARK   11  A    between atoms: C_29  and  O_31
REMARK   12  A    between atoms: O_32  and  C_33
REMARK   13  A    between atoms: C_33  and  C_34
REMARK                            x       y       z     vdW  Elec       q    Type
REMARK                         _______ _______ _______ _____ _____    ______ ____
ROOT
ATOM      1  C   LIG A   1      -8.477   3.441 124.688  0.00  0.00    +0.201 C 
ATOM      2  C   LIG A   1      -6.934   3.547 124.528  0.00  0.00    +0.282 C 
ATOM      3  O   LIG A   1      -6.249   3.325 125.766  0.00  0.00    -0.341 OA
ATOM      4  C   LIG A   1      -6.574   2.098 126.452  0.00  0.00    +0.178 C 
ATOM      5  C   LIG A   1      -8.082   1.983 126.718  0.00  0.00    +0.177 C 
ATOM      6  C   LIG A   1      -8.906   2.165 125.432  0.00  0.00    +0.179 C 
ENDROOT
BRANCH   1   7
ATOM      7  O   LIG A   1      -8.954   4.574 125.450  0.00  0.00    -0.384 OA
ATOM      8  H   LIG A   1      -9.316   5.216 124.812  0.00  0.00    +0.210 HD
ENDBRANCH   1   7
BRANCH   5   9
ATOM      9  O   LIG A   1      -8.466   2.985 127.678  0.00  0.00    -0.387 OA
ATOM     10  H   LIG A   1      -8.277   2.615 128.566  0.00  0.00    +0.210 HD
ENDBRANCH   5   9
BRANCH   6  11
ATOM     11  O   LIG A   1      -8.826   1.034 124.568  0.00  0.00    -0.386 OA
ATOM     12  H   LIG A   1      -8.991   0.236 125.101  0.00  0.00    +0.210 HD
ENDBRANCH   6  11
BRANCH   4  13
ATOM     13  C   LIG A   1      -5.962   0.863 125.768  0.00  0.00    +0.197 C 
BRANCH  13  14
ATOM     14  O   LIG A   1      -6.408  -0.361 126.357  0.00  0.00    -0.346 OA
BRANCH  14  15
ATOM     15  C   LIG A   1      -6.660  -1.355 125.344  0.00  0.00    +0.282 C 
ATOM     16  O   LIG A   1      -6.760  -0.694 124.081  0.00  0.00    -0.343 OA
ATOM     17  C   LIG A   1      -7.009  -1.552 122.965  0.00  0.00    +0.149 C 
ATOM     18  C   LIG A   1      -5.834  -2.476 122.659  0.00  0.00    +0.040 C 
ATOM     19  C   LIG A   1      -8.356  -2.262 123.165  0.00  0.00    +0.174 C 
ATOM     20  C   LIG A   1      -8.447  -2.982 124.516  0.00  0.00    +0.179 C 
ATOM     21  C   LIG A   1      -7.976  -2.095 125.681  0.00  0.00    +0.201 C 
BRANCH  19  22
ATOM     22  O   LIG A   1      -9.407  -1.284 123.109  0.00  0.00    -0.387 OA
ATOM     23  H   LIG A   1      -9.153  -0.549 123.700  0.00  0.00    +0.210 HD
ENDBRANCH  19  22
BRANCH  20  24
ATOM     24  O   LIG A   1      -7.673  -4.195 124.512  0.00  0.00    -0.386 OA
ATOM     25  H   LIG A   1      -7.979  -4.719 123.747  0.00  0.00    +0.210 HD
ENDBRANCH  20  24
BRANCH  21  26
ATOM     26  O   LIG A   1      -7.838  -2.916 126.854  0.00  0.00    -0.384 OA
ATOM     27  H   LIG A   1      -8.640  -2.744 127.387  0.00  0.00    +0.210 HD
ENDBRANCH  21  26
ENDBRANCH  14  15
ENDBRANCH  13  14
ENDBRANCH   4  13
BRANCH   2  28
ATOM     28  O   LIG A   1      -6.445   2.732 123.468  0.00  0.00    -0.344 OA
BRANCH  28  29
ATOM     29  C   LIG A   1      -7.265   2.793 122.295  0.00  0.00    +0.198 C 
BRANCH  29  30
ATOM     30  C   LIG A   1      -6.669   3.712 121.247  0.00  0.00    -0.022 A 
ATOM     31  C   LIG A   1      -7.354   4.021 120.065  0.00  0.00    +0.006 A 
ATOM     32  C   LIG A   1      -6.791   4.857 119.102  0.00  0.00    +0.000 A 
ATOM     33  C   LIG A   1      -5.520   5.396 119.309  0.00  0.00    +0.000 A 
ATOM     34  C   LIG A   1      -4.825   5.101 120.479  0.00  0.00    +0.000 A 
ATOM     35  C   LIG A   1      -5.392   4.267 121.444  0.00  0.00    +0.006 A 
ENDBRANCH  29  30
ENDBRANCH  28  29
ENDBRANCH   2  28
TORSDOF 12
ENDMDL
MODEL 3
REMARK VINA RESULT:      -7.8      7.978     10.254
REMARK  Name = NuBBE_270
REMARK  13 active torsions:
REMARK  status: ('A' for Active; 'I' for Inactive)
REMARK    1  A    between atoms: O_1  and  C_2
REMARK    2  A    between atoms: C_4  and  O_32
REMARK    3  A    between atoms: C_7  and  C_9
REMARK    4  A    between atoms: C_9  and  O_10
REMARK    5  A    between atoms: O_10  and  C_11
REMARK    6  A    between atoms: C_14  and  C_16
REMARK    7  A    between atoms: C_17  and  O_19
REMARK    8  A    between atoms: C_20  and  O_22
REMARK    9  A    between atoms: C_23  and  O_25
REMARK   10  A    between atoms: C_26  and  O_28
REMARK   11  A    between atoms: C_29  and  O_31
REMARK   12  A    between atoms: O_32  and  C_33
REMARK   13  A    between atoms: C_33  and  C_34
REMARK                            x       y       z     vdW  Elec       q    Type
REMARK                         _______ _______ _______ _____ _____    ______ ____
ROOT
ATOM      1  C   LIG A   1      -7.944   2.909 133.215  0.00  0.00    +0.201 C 
ATOM      2  C   LIG A   1      -7.379   3.417 131.858  0.00  0.00    +0.282 C 
ATOM      3  O   LIG A   1      -7.967   2.737 130.743  0.00  0.00    -0.341 OA
ATOM      4  C   LIG A   1      -9.409   2.744 130.692  0.00  0.00    +0.178 C 
ATOM      5  C   LIG A   1     -10.022   2.167 131.977  0.00  0.00    +0.177 C 
ATOM      6  C   LIG A   1      -9.482   2.867 133.235  0.00  0.00    +0.179 C 
ENDROOT
BRANCH   1   7
ATOM      7  O   LIG A   1      -7.466   1.566 133.455  0.00  0.00    -0.384 OA
ATOM      8  H   LIG A   1      -6.761   1.629 134.125  0.00  0.00    +0.210 HD
ENDBRANCH   1   7
BRANCH   5   9
ATOM      9  O   LIG A   1      -9.723   0.760 132.046  0.00  0.00    -0.387 OA
ATOM     10  H   LIG A   1      -9.777   0.412 131.131  0.00  0.00    +0.210 HD
ENDBRANCH   5   9
BRANCH   6  11
ATOM     11  O   LIG A   1     -10.013   4.180 133.399  0.00  0.00    -0.386 OA
ATOM     12  H   LIG A   1      -9.314   4.741 133.780  0.00  0.00    +0.210 HD
ENDBRANCH   6  11
BRANCH   4  13
ATOM     13  C   LIG A   1      -9.975   4.118 130.291  0.00  0.00    +0.197 C 
BRANCH  13  14
ATOM     14  O   LIG A   1     -11.393   4.088 130.105  0.00  0.00    -0.346 OA
BRANCH  14  15
ATOM     15  C   LIG A   1     -11.905   5.414 129.866  0.00  0.00    +0.282 C 
ATOM     16  O   LIG A   1     -11.480   5.833 128.568  0.00  0.00    -0.343 OA
ATOM     17  C   LIG A   1     -11.913   7.139 128.180  0.00  0.00    +0.149 C 
ATOM     18  C   LIG A   1     -13.424   7.223 127.976  0.00  0.00    +0.040 C 
ATOM     19  C   LIG A   1     -11.334   8.174 129.156  0.00  0.00    +0.174 C 
ATOM     20  C   LIG A   1     -11.647   7.842 130.620  0.00  0.00    +0.179 C 
ATOM     21  C   LIG A   1     -11.361   6.368 130.955  0.00  0.00    +0.201 C 
BRANCH  19  22
ATOM     22  O   LIG A   1      -9.907   8.208 129.001  0.00  0.00    -0.387 OA
ATOM     23  H   LIG A   1      -9.705   7.893 128.098  0.00  0.00    +0.210 HD
ENDBRANCH  19  22
BRANCH  20  24
ATOM     24  O   LIG A   1     -13.019   8.133 130.938  0.00  0.00    -0.386 OA
ATOM     25  H   LIG A   1     -13.469   7.274 131.054  0.00  0.00    +0.210 HD
ENDBRANCH  20  24
BRANCH  21  26
ATOM     26  O   LIG A   1     -11.923   6.075 132.246  0.00  0.00    -0.384 OA
ATOM     27  H   LIG A   1     -12.432   6.873 132.495  0.00  0.00    +0.210 HD
ENDBRANCH  21  26
ENDBRANCH  14  15
ENDBRANCH  13  14
ENDBRANCH   4  13
BRANCH   2  28
ATOM     28  O   LIG A   1      -7.446   4.834 131.743  0.00  0.00    -0.344 OA
BRANCH  28  29
ATOM     29  C   LIG A   1      -6.709   5.512 132.767  0.00  0.00    +0.198 C 
BRANCH  29  30
ATOM     30  C   LIG A   1      -5.553   6.303 132.189  0.00  0.00    -0.022 A 
ATOM     31  C   LIG A   1      -4.338   6.438 132.873  0.00  0.00    +0.006 A 
ATOM     32  C   LIG A   1      -3.286   7.179 132.337  0.00  0.00    +0.000 A 
ATOM     33  C   LIG A   1      -3.440   7.807 131.099  0.00  0.00    +0.000 A 
ATOM     34  C   LIG A   1      -4.640   7.682 130.404  0.00  0.00    +0.000 A 
ATOM     35  C   LIG A   1      -5.691   6.936 130.940  0.00  0.00    +0.006 A 
ENDBRANCH  29  30
ENDBRANCH  28  29
ENDBRANCH   2  28
TORSDOF 12
ENDMDL
MODEL 4
REMARK VINA RESULT:      -7.7      1.640      5.672
REMARK  Name = NuBBE_270
REMARK  13 active torsions:
REMARK  status: ('A' for Active; 'I' for Inactive)
REMARK    1  A    between atoms: O_1  and  C_2
REMARK    2  A    between atoms: C_4  and  O_32
REMARK    3  A    between atoms: C_7  and  C_9
REMARK    4  A    between atoms: C_9  and  O_10
REMARK    5  A    between atoms: O_10  and  C_11
REMARK    6  A    between atoms: C_14  and  C_16
REMARK    7  A    between atoms: C_17  and  O_19
REMARK    8  A    between atoms: C_20  and  O_22
REMARK    9  A    between atoms: C_23  and  O_25
REMARK   10  A    between atoms: C_26  and  O_28
REMARK   11  A    between atoms: C_29  and  O_31
REMARK   12  A    between atoms: O_32  and  C_33
REMARK   13  A    between atoms: C_33  and  C_34
REMARK                            x       y       z     vdW  Elec       q    Type
REMARK                         _______ _______ _______ _____ _____    ______ ____
ROOT
ATOM      1  C   LIG A   1      -8.940  -1.159 123.100  0.00  0.00    +0.201 C 
ATOM      2  C   LIG A   1      -9.430   0.270 123.468  0.00  0.00    +0.282 C 
ATOM      3  O   LIG A   1     -10.066   0.306 124.751  0.00  0.00    -0.341 OA
ATOM      4  C   LIG A   1      -9.300  -0.232 125.848  0.00  0.00    +0.178 C 
ATOM      5  C   LIG A   1      -8.864  -1.680 125.575  0.00  0.00    +0.177 C 
ATOM      6  C   LIG A   1      -8.128  -1.814 124.232  0.00  0.00    +0.179 C 
ENDROOT
BRANCH   1   7
ATOM      7  O   LIG A   1     -10.086  -2.001 122.840  0.00  0.00    -0.384 OA
ATOM      8  H   LIG A   1     -10.851  -1.586 123.279  0.00  0.00    +0.210 HD
ENDBRANCH   1   7
BRANCH   5   9
ATOM      9  O   LIG A   1     -10.030  -2.525 125.569  0.00  0.00    -0.387 OA
ATOM     10  H   LIG A   1      -9.738  -3.414 125.862  0.00  0.00    +0.210 HD
ENDBRANCH   5   9
BRANCH   6  11
ATOM     11  O   LIG A   1      -6.810  -1.273 124.276  0.00  0.00    -0.386 OA
ATOM     12  H   LIG A   1      -6.709  -0.666 123.520  0.00  0.00    +0.210 HD
ENDBRANCH   6  11
BRANCH   4  13
ATOM     13  C   LIG A   1      -8.150   0.698 126.273  0.00  0.00    +0.197 C 
BRANCH  13  14
ATOM     14  O   LIG A   1      -8.612   2.003 126.635  0.00  0.00    -0.346 OA
BRANCH  14  15
ATOM     15  C   LIG A   1      -7.516   2.938 126.686  0.00  0.00    +0.282 C 
ATOM     16  O   LIG A   1      -6.621   2.640 125.612  0.00  0.00    -0.343 OA
ATOM     17  C   LIG A   1      -5.474   3.488 125.526  0.00  0.00    +0.149 C 
ATOM     18  C   LIG A   1      -5.830   4.924 125.149  0.00  0.00    +0.040 C 
ATOM     19  C   LIG A   1      -4.640   3.343 126.808  0.00  0.00    +0.174 C 
ATOM     20  C   LIG A   1      -5.469   3.572 128.077  0.00  0.00    +0.179 C 
ATOM     21  C   LIG A   1      -6.800   2.800 128.049  0.00  0.00    +0.201 C 
BRANCH  19  22
ATOM     22  O   LIG A   1      -4.101   2.013 126.859  0.00  0.00    -0.387 OA
ATOM     23  H   LIG A   1      -3.128   2.091 126.797  0.00  0.00    +0.210 HD
ENDBRANCH  19  22
BRANCH  20  24
ATOM     24  O   LIG A   1      -5.745   4.969 128.274  0.00  0.00    -0.386 OA
ATOM     25  H   LIG A   1      -6.347   5.031 129.041  0.00  0.00    +0.210 HD
ENDBRANCH  20  24
BRANCH  21  26
ATOM     26  O   LIG A   1      -7.623   3.270 129.131  0.00  0.00    -0.384 OA
ATOM     27  H   LIG A   1      -8.287   2.567 129.277  0.00  0.00    +0.210 HD
ENDBRANCH  21  26
ENDBRANCH  14  15
ENDBRANCH  13  14
ENDBRANCH   4  13
BRANCH   2  28
ATOM     28  O   LIG A   1      -8.401   1.244 123.331  0.00  0.00    -0.344 OA
BRANCH  28  29
ATOM     29  C   LIG A   1      -8.904   2.544 123.002  0.00  0.00    +0.198 C 
BRANCH  29  30
ATOM     30  C   LIG A   1      -8.118   3.174 121.870  0.00  0.00    -0.022 A 
ATOM     31  C   LIG A   1      -8.749   3.665 120.720  0.00  0.00    +0.006 A 
ATOM     32  C   LIG A   1      -8.015   4.233 119.679  0.00  0.00    +0.000 A 
ATOM     33  C   LIG A   1      -6.624   4.312 119.775  0.00  0.00    +0.000 A 
ATOM     34  C   LIG A   1      -5.980   3.831 120.912  0.00  0.00    +0.000 A 
ATOM     35  C   LIG A   1      -6.718   3.267 121.954  0.00  0.00    +0.006 A 
ENDBRANCH  29  30
ENDBRANCH  28  29
ENDBRANCH   2  28
TORSDOF 12
ENDMDL
MODEL 5
REMARK VINA RESULT:      -7.6      5.160      8.165
REMARK  Name = NuBBE_270
REMARK  13 active torsions:
REMARK  status: ('A' for Active; 'I' for Inactive)
REMARK    1  A    between atoms: O_1  and  C_2
REMARK    2  A    between atoms: C_4  and  O_32
REMARK    3  A    between atoms: C_7  and  C_9
REMARK    4  A    between atoms: C_9  and  O_10
REMARK    5  A    between atoms: O_10  and  C_11
REMARK    6  A    between atoms: C_14  and  C_16
REMARK    7  A    between atoms: C_17  and  O_19
REMARK    8  A    between atoms: C_20  and  O_22
REMARK    9  A    between atoms: C_23  and  O_25
REMARK   10  A    between atoms: C_26  and  O_28
REMARK   11  A    between atoms: C_29  and  O_31
REMARK   12  A    between atoms: O_32  and  C_33
REMARK   13  A    between atoms: C_33  and  C_34
REMARK                            x       y       z     vdW  Elec       q    Type
REMARK                         _______ _______ _______ _____ _____    ______ ____
ROOT
ATOM      1  C   LIG A   1      -9.736   5.557 132.942  0.00  0.00    +0.201 C 
ATOM      2  C   LIG A   1      -9.602   6.339 131.604  0.00  0.00    +0.282 C 
ATOM      3  O   LIG A   1      -8.253   6.356 131.125  0.00  0.00    -0.341 OA
ATOM      4  C   LIG A   1      -7.618   5.068 130.989  0.00  0.00    +0.178 C 
ATOM      5  C   LIG A   1      -7.641   4.286 132.310  0.00  0.00    +0.177 C 
ATOM      6  C   LIG A   1      -9.063   4.174 132.886  0.00  0.00    +0.179 C 
ENDROOT
BRANCH   1   7
ATOM      7  O   LIG A   1      -9.099   6.311 133.998  0.00  0.00    -0.384 OA
ATOM      8  H   LIG A   1      -9.161   7.253 133.753  0.00  0.00    +0.210 HD
ENDBRANCH   1   7
BRANCH   5   9
ATOM      9  O   LIG A   1      -6.790   4.950 133.263  0.00  0.00    -0.387 OA
ATOM     10  H   LIG A   1      -6.513   5.797 132.854  0.00  0.00    +0.210 HD
ENDBRANCH   5   9
BRANCH   6  11
ATOM     11  O   LIG A   1      -9.875   3.255 132.160  0.00  0.00    -0.386 OA
ATOM     12  H   LIG A   1     -10.050   2.489 132.736  0.00  0.00    +0.210 HD
ENDBRANCH   6  11
BRANCH   4  13
ATOM     13  C   LIG A   1      -8.151   4.276 129.782  0.00  0.00    +0.197 C 
BRANCH  13  14
ATOM     14  O   LIG A   1      -7.629   4.759 128.541  0.00  0.00    -0.346 OA
BRANCH  14  15
ATOM     15  C   LIG A   1      -7.935   3.847 127.467  0.00  0.00    +0.282 C 
ATOM     16  O   LIG A   1      -6.988   2.778 127.503  0.00  0.00    -0.343 OA
ATOM     17  C   LIG A   1      -7.161   1.781 126.493  0.00  0.00    +0.149 C 
ATOM     18  C   LIG A   1      -8.442   0.972 126.676  0.00  0.00    +0.040 C 
ATOM     19  C   LIG A   1      -6.997   2.430 125.110  0.00  0.00    +0.174 C 
ATOM     20  C   LIG A   1      -7.908   3.649 124.921  0.00  0.00    +0.179 C 
ATOM     21  C   LIG A   1      -7.853   4.607 126.123  0.00  0.00    +0.201 C 
BRANCH  19  22
ATOM     22  O   LIG A   1      -5.635   2.860 124.961  0.00  0.00    -0.387 OA
ATOM     23  H   LIG A   1      -5.076   2.059 124.950  0.00  0.00    +0.210 HD
ENDBRANCH  19  22
BRANCH  20  24
ATOM     24  O   LIG A   1      -9.272   3.250 124.704  0.00  0.00    -0.386 OA
ATOM     25  H   LIG A   1      -9.250   2.518 124.058  0.00  0.00    +0.210 HD
ENDBRANCH  20  24
BRANCH  21  26
ATOM     26  O   LIG A   1      -8.916   5.567 125.990  0.00  0.00    -0.384 OA
ATOM     27  H   LIG A   1      -8.476   6.439 125.960  0.00  0.00    +0.210 HD
ENDBRANCH  21  26
ENDBRANCH  14  15
ENDBRANCH  13  14
ENDBRANCH   4  13
BRANCH   2  28
ATOM     28  O   LIG A   1     -10.535   5.895 130.625  0.00  0.00    -0.344 OA
BRANCH  28  29
ATOM     29  C   LIG A   1     -11.889   6.220 130.958  0.00  0.00    +0.198 C 
BRANCH  29  30
ATOM     30  C   LIG A   1     -12.513   7.131 129.921  0.00  0.00    -0.022 A 
ATOM     31  C   LIG A   1     -13.121   6.623 128.765  0.00  0.00    +0.006 A 
ATOM     32  C   LIG A   1     -13.681   7.471 127.811  0.00  0.00    +0.000 A 
ATOM     33  C   LIG A   1     -13.635   8.854 128.000  0.00  0.00    +0.000 A 
ATOM     34  C   LIG A   1     -13.037   9.377 129.143  0.00  0.00    +0.000 A 
ATOM     35  C   LIG A   1     -12.480   8.525 130.100  0.00  0.00    +0.006 A 
ENDBRANCH  29  30
ENDBRANCH  28  29
ENDBRANCH   2  28
TORSDOF 12
ENDMDL
MODEL 6
REMARK VINA RESULT:      -7.6      1.884      5.497
REMARK  Name = NuBBE_270
REMARK  13 active torsions:
REMARK  status: ('A' for Active; 'I' for Inactive)
REMARK    1  A    between atoms: O_1  and  C_2
REMARK    2  A    between atoms: C_4  and  O_32
REMARK    3  A    between atoms: C_7  and  C_9
REMARK    4  A    between atoms: C_9  and  O_10
REMARK    5  A    between atoms: O_10  and  C_11
REMARK    6  A    between atoms: C_14  and  C_16
REMARK    7  A    between atoms: C_17  and  O_19
REMARK    8  A    between atoms: C_20  and  O_22
REMARK    9  A    between atoms: C_23  and  O_25
REMARK   10  A    between atoms: C_26  and  O_28
REMARK   11  A    between atoms: C_29  and  O_31
REMARK   12  A    between atoms: O_32  and  C_33
REMARK   13  A    between atoms: C_33  and  C_34
REMARK                            x       y       z     vdW  Elec       q    Type
REMARK                         _______ _______ _______ _____ _____    ______ ____
ROOT
ATOM      1  C   LIG A   1      -8.785  -1.007 123.190  0.00  0.00    +0.201 C 
ATOM      2  C   LIG A   1      -9.353   0.424 123.406  0.00  0.00    +0.282 C 
ATOM      3  O   LIG A   1     -10.064   0.539 124.645  0.00  0.00    -0.341 OA
ATOM      4  C   LIG A   1      -9.342   0.129 125.824  0.00  0.00    +0.178 C 
ATOM      5  C   LIG A   1      -8.833  -1.316 125.701  0.00  0.00    +0.177 C 
ATOM      6  C   LIG A   1      -8.016  -1.528 124.416  0.00  0.00    +0.179 C 
ENDROOT
BRANCH   1   7
ATOM      7  O   LIG A   1      -9.880  -1.919 122.941  0.00  0.00    -0.384 OA
ATOM      8  H   LIG A   1     -10.037  -2.409 123.768  0.00  0.00    +0.210 HD
ENDBRANCH   1   7
BRANCH   5   9
ATOM      9  O   LIG A   1      -9.961  -2.210 125.704  0.00  0.00    -0.387 OA
ATOM     10  H   LIG A   1      -9.618  -3.100 125.931  0.00  0.00    +0.210 HD
ENDBRANCH   5   9
BRANCH   6  11
ATOM     11  O   LIG A   1      -6.725  -0.927 124.485  0.00  0.00    -0.386 OA
ATOM     12  H   LIG A   1      -6.605  -0.574 125.386  0.00  0.00    +0.210 HD
ENDBRANCH   6  11
BRANCH   4  13
ATOM     13  C   LIG A   1      -8.257   1.142 126.229  0.00  0.00    +0.197 C 
BRANCH  13  14
ATOM     14  O   LIG A   1      -7.336   0.601 127.181  0.00  0.00    -0.346 OA
BRANCH  14  15
ATOM     15  C   LIG A   1      -6.278   1.539 127.459  0.00  0.00    +0.282 C 
ATOM     16  O   LIG A   1      -6.864   2.820 127.696  0.00  0.00    -0.343 OA
ATOM     17  C   LIG A   1      -5.936   3.867 127.991  0.00  0.00    +0.149 C 
ATOM     18  C   LIG A   1      -5.236   3.673 129.333  0.00  0.00    +0.040 C 
ATOM     19  C   LIG A   1      -4.996   4.061 126.792  0.00  0.00    +0.174 C 
ATOM     20  C   LIG A   1      -4.319   2.755 126.358  0.00  0.00    +0.179 C 
ATOM     21  C   LIG A   1      -5.319   1.591 126.247  0.00  0.00    +0.201 C 
BRANCH  19  22
ATOM     22  O   LIG A   1      -5.759   4.559 125.682  0.00  0.00    -0.387 OA
ATOM     23  H   LIG A   1      -5.601   5.522 125.630  0.00  0.00    +0.210 HD
ENDBRANCH  19  22
BRANCH  20  24
ATOM     24  O   LIG A   1      -3.272   2.383 127.272  0.00  0.00    -0.386 OA
ATOM     25  H   LIG A   1      -3.210   3.100 127.932  0.00  0.00    +0.210 HD
ENDBRANCH  20  24
BRANCH  21  26
ATOM     26  O   LIG A   1      -4.579   0.366 126.102  0.00  0.00    -0.384 OA
ATOM     27  H   LIG A   1      -4.930  -0.232 126.792  0.00  0.00    +0.210 HD
ENDBRANCH  21  26
ENDBRANCH  14  15
ENDBRANCH  13  14
ENDBRANCH   4  13
BRANCH   2  28
ATOM     28  O   LIG A   1      -8.358   1.429 123.242  0.00  0.00    -0.344 OA
BRANCH  28  29
ATOM     29  C   LIG A   1      -8.900   2.688 122.831  0.00  0.00    +0.198 C 
BRANCH  29  30
ATOM     30  C   LIG A   1      -8.086   3.306 121.712  0.00  0.00    -0.022 A 
ATOM     31  C   LIG A   1      -8.687   3.768 120.533  0.00  0.00    +0.006 A 
ATOM     32  C   LIG A   1      -7.927   4.323 119.505  0.00  0.00    +0.000 A 
ATOM     33  C   LIG A   1      -6.540   4.418 119.641  0.00  0.00    +0.000 A 
ATOM     34  C   LIG A   1      -5.926   3.965 120.805  0.00  0.00    +0.000 A 
ATOM     35  C   LIG A   1      -6.690   3.414 121.836  0.00  0.00    +0.006 A 
ENDBRANCH  29  30
ENDBRANCH  28  29
ENDBRANCH   2  28
TORSDOF 12
ENDMDL
MODEL 7
REMARK VINA RESULT:      -7.6      2.444      4.685
REMARK  Name = NuBBE_270
REMARK  13 active torsions:
REMARK  status: ('A' for Active; 'I' for Inactive)
REMARK    1  A    between atoms: O_1  and  C_2
REMARK    2  A    between atoms: C_4  and  O_32
REMARK    3  A    between atoms: C_7  and  C_9
REMARK    4  A    between atoms: C_9  and  O_10
REMARK    5  A    between atoms: O_10  and  C_11
REMARK    6  A    between atoms: C_14  and  C_16
REMARK    7  A    between atoms: C_17  and  O_19
REMARK    8  A    between atoms: C_20  and  O_22
REMARK    9  A    between atoms: C_23  and  O_25
REMARK   10  A    between atoms: C_26  and  O_28
REMARK   11  A    between atoms: C_29  and  O_31
REMARK   12  A    between atoms: O_32  and  C_33
REMARK   13  A    between atoms: C_33  and  C_34
REMARK                            x       y       z     vdW  Elec       q    Type
REMARK                         _______ _______ _______ _____ _____    ______ ____
ROOT
ATOM      1  C   LIG A   1      -6.463   3.329 124.006  0.00  0.00    +0.201 C 
ATOM      2  C   LIG A   1      -7.286   3.576 125.303  0.00  0.00    +0.282 C 
ATOM      3  O   LIG A   1      -8.692   3.647 125.041  0.00  0.00    -0.341 OA
ATOM      4  C   LIG A   1      -9.256   2.530 124.324  0.00  0.00    +0.178 C 
ATOM      5  C   LIG A   1      -8.536   2.296 122.987  0.00  0.00    +0.177 C 
ATOM      6  C   LIG A   1      -7.015   2.161 123.171  0.00  0.00    +0.179 C 
ENDROOT
BRANCH   1   7
ATOM      7  O   LIG A   1      -6.509   4.517 123.183  0.00  0.00    -0.384 OA
ATOM      8  H   LIG A   1      -5.779   5.094 123.474  0.00  0.00    +0.210 HD
ENDBRANCH   1   7
BRANCH   5   9
ATOM      9  O   LIG A   1      -8.815   3.401 122.107  0.00  0.00    -0.387 OA
ATOM     10  H   LIG A   1      -9.791   3.482 122.053  0.00  0.00    +0.210 HD
ENDBRANCH   5   9
BRANCH   6  11
ATOM     11  O   LIG A   1      -6.644   0.914 123.753  0.00  0.00    -0.386 OA
ATOM     12  H   LIG A   1      -5.835   1.056 124.277  0.00  0.00    +0.210 HD
ENDBRANCH   6  11
BRANCH   4  13
ATOM     13  C   LIG A   1      -9.374   1.270 125.200  0.00  0.00    +0.197 C 
BRANCH  13  14
ATOM     14  O   LIG A   1      -9.665   0.100 124.432  0.00  0.00    -0.346 OA
BRANCH  14  15
ATOM     15  C   LIG A   1      -8.988  -1.051 124.975  0.00  0.00    +0.282 C 
ATOM     16  O   LIG A   1      -7.822  -0.600 125.668  0.00  0.00    -0.343 OA
ATOM     17  C   LIG A   1      -7.037  -1.633 126.270  0.00  0.00    +0.149 C 
ATOM     18  C   LIG A   1      -7.755  -2.318 127.430  0.00  0.00    +0.040 C 
ATOM     19  C   LIG A   1      -6.525  -2.581 125.175  0.00  0.00    +0.174 C 
ATOM     20  C   LIG A   1      -7.653  -3.117 124.286  0.00  0.00    +0.179 C 
ATOM     21  C   LIG A   1      -8.604  -2.003 123.818  0.00  0.00    +0.201 C 
BRANCH  19  22
ATOM     22  O   LIG A   1      -5.600  -1.866 124.341  0.00  0.00    -0.387 OA
ATOM     23  H   LIG A   1      -4.845  -1.603 124.903  0.00  0.00    +0.210 HD
ENDBRANCH  19  22
BRANCH  20  24
ATOM     24  O   LIG A   1      -8.418  -4.126 124.968  0.00  0.00    -0.386 OA
ATOM     25  H   LIG A   1      -8.730  -3.725 125.802  0.00  0.00    +0.210 HD
ENDBRANCH  20  24
BRANCH  21  26
ATOM     26  O   LIG A   1      -9.764  -2.612 123.225  0.00  0.00    -0.384 OA
ATOM     27  H   LIG A   1     -10.531  -2.151 123.621  0.00  0.00    +0.210 HD
ENDBRANCH  21  26
ENDBRANCH  14  15
ENDBRANCH  13  14
ENDBRANCH   4  13
BRANCH   2  28
ATOM     28  O   LIG A   1      -6.959   2.649 126.332  0.00  0.00    -0.344 OA
BRANCH  28  29
ATOM     29  C   LIG A   1      -6.442   3.282 127.509  0.00  0.00    +0.198 C 
BRANCH  29  30
ATOM     30  C   LIG A   1      -4.951   3.529 127.397  0.00  0.00    -0.022 A 
ATOM     31  C   LIG A   1      -4.369   4.724 127.840  0.00  0.00    +0.006 A 
ATOM     32  C   LIG A   1      -2.998   4.947 127.722  0.00  0.00    +0.000 A 
ATOM     33  C   LIG A   1      -2.183   3.969 127.148  0.00  0.00    +0.000 A 
ATOM     34  C   LIG A   1      -2.745   2.774 126.704  0.00  0.00    +0.000 A 
ATOM     35  C   LIG A   1      -4.117   2.551 126.827  0.00  0.00    +0.006 A 
ENDBRANCH  29  30
ENDBRANCH  28  29
ENDBRANCH   2  28
TORSDOF 12
ENDMDL
MODEL 8
REMARK VINA RESULT:      -7.5      4.288      7.510
REMARK  Name = NuBBE_270
REMARK  13 active torsions:
REMARK  status: ('A' for Active; 'I' for Inactive)
REMARK    1  A    between atoms: O_1  and  C_2
REMARK    2  A    between atoms: C_4  and  O_32
REMARK    3  A    between atoms: C_7  and  C_9
REMARK    4  A    between atoms: C_9  and  O_10
REMARK    5  A    between atoms: O_10  and  C_11
REMARK    6  A    between atoms: C_14  and  C_16
REMARK    7  A    between atoms: C_17  and  O_19
REMARK    8  A    between atoms: C_20  and  O_22
REMARK    9  A    between atoms: C_23  and  O_25
REMARK   10  A    between atoms: C_26  and  O_28
REMARK   11  A    between atoms: C_29  and  O_31
REMARK   12  A    between atoms: O_32  and  C_33
REMARK   13  A    between atoms: C_33  and  C_34
REMARK                            x       y       z     vdW  Elec       q    Type
REMARK                         _______ _______ _______ _____ _____    ______ ____
ROOT
ATOM      1  C   LIG A   1      -9.436   6.745 130.808  0.00  0.00    +0.201 C 
ATOM      2  C   LIG A   1      -8.019   6.279 131.250  0.00  0.00    +0.282 C 
ATOM      3  O   LIG A   1      -7.990   4.886 131.580  0.00  0.00    -0.341 OA
ATOM      4  C   LIG A   1      -8.492   3.990 130.567  0.00  0.00    +0.178 C 
ATOM      5  C   LIG A   1      -9.928   4.350 130.156  0.00  0.00    +0.177 C 
ATOM      6  C   LIG A   1     -10.052   5.825 129.740  0.00  0.00    +0.179 C 
ENDROOT
BRANCH   1   7
ATOM      7  O   LIG A   1     -10.317   6.736 131.955  0.00  0.00    -0.384 OA
ATOM      8  H   LIG A   1     -10.461   7.665 132.211  0.00  0.00    +0.210 HD
ENDBRANCH   1   7
BRANCH   5   9
ATOM      9  O   LIG A   1     -10.810   4.089 131.263  0.00  0.00    -0.387 OA
ATOM     10  H   LIG A   1     -11.124   4.960 131.588  0.00  0.00    +0.210 HD
ENDBRANCH   5   9
BRANCH   6  11
ATOM     11  O   LIG A   1      -9.469   6.083 128.465  0.00  0.00    -0.386 OA
ATOM     12  H   LIG A   1      -8.572   5.701 128.462  0.00  0.00    +0.210 HD
ENDBRANCH   6  11
BRANCH   4  13
ATOM     13  C   LIG A   1      -7.521   3.840 129.383  0.00  0.00    +0.197 C 
BRANCH  13  14
ATOM     14  O   LIG A   1      -8.202   3.604 128.148  0.00  0.00    -0.346 OA
BRANCH  14  15
ATOM     15  C   LIG A   1      -7.264   3.485 127.060  0.00  0.00    +0.282 C 
ATOM     16  O   LIG A   1      -6.249   4.476 127.233  0.00  0.00    -0.343 OA
ATOM     17  C   LIG A   1      -5.234   4.486 126.226  0.00  0.00    +0.149 C 
ATOM     18  C   LIG A   1      -4.357   3.237 126.261  0.00  0.00    +0.040 C 
ATOM     19  C   LIG A   1      -5.876   4.788 124.864  0.00  0.00    +0.174 C 
ATOM     20  C   LIG A   1      -7.041   3.845 124.541  0.00  0.00    +0.179 C 
ATOM     21  C   LIG A   1      -8.013   3.695 125.724  0.00  0.00    +0.201 C 
BRANCH  19  22
ATOM     22  O   LIG A   1      -6.380   6.133 124.879  0.00  0.00    -0.387 OA
ATOM     23  H   LIG A   1      -7.133   6.168 124.257  0.00  0.00    +0.210 HD
ENDBRANCH  19  22
BRANCH  20  24
ATOM     24  O   LIG A   1      -6.566   2.542 124.161  0.00  0.00    -0.386 OA
ATOM     25  H   LIG A   1      -7.299   2.103 123.688  0.00  0.00    +0.210 HD
ENDBRANCH  20  24
BRANCH  21  26
ATOM     26  O   LIG A   1      -8.911   2.608 125.442  0.00  0.00    -0.384 OA
ATOM     27  H   LIG A   1      -9.179   2.727 124.509  0.00  0.00    +0.210 HD
ENDBRANCH  21  26
ENDBRANCH  14  15
ENDBRANCH  13  14
ENDBRANCH   4  13
BRANCH   2  28
ATOM     28  O   LIG A   1      -7.014   6.650 130.313  0.00  0.00    -0.344 OA
BRANCH  28  29
ATOM     29  C   LIG A   1      -5.753   6.932 130.930  0.00  0.00    +0.198 C 
BRANCH  29  30
ATOM     30  C   LIG A   1      -4.596   6.460 130.073  0.00  0.00    -0.022 A 
ATOM     31  C   LIG A   1      -4.108   5.149 130.153  0.00  0.00    +0.006 A 
ATOM     32  C   LIG A   1      -3.035   4.729 129.368  0.00  0.00    +0.000 A 
ATOM     33  C   LIG A   1      -2.426   5.626 128.488  0.00  0.00    +0.000 A 
ATOM     34  C   LIG A   1      -2.900   6.932 128.394  0.00  0.00    +0.000 A 
ATOM     35  C   LIG A   1      -3.977   7.350 129.177  0.00  0.00    +0.006 A 
ENDBRANCH  29  30
ENDBRANCH  28  29
ENDBRANCH   2  28
TORSDOF 12
ENDMDL
MODEL 9
REMARK VINA RESULT:      -7.5      2.417      5.967
REMARK  Name = NuBBE_270
REMARK  13 active torsions:
REMARK  status: ('A' for Active; 'I' for Inactive)
REMARK    1  A    between atoms: O_1  and  C_2
REMARK    2  A    between atoms: C_4  and  O_32
REMARK    3  A    between atoms: C_7  and  C_9
REMARK    4  A    between atoms: C_9  and  O_10
REMARK    5  A    between atoms: O_10  and  C_11
REMARK    6  A    between atoms: C_14  and  C_16
REMARK    7  A    between atoms: C_17  and  O_19
REMARK    8  A    between atoms: C_20  and  O_22
REMARK    9  A    between atoms: C_23  and  O_25
REMARK   10  A    between atoms: C_26  and  O_28
REMARK   11  A    between atoms: C_29  and  O_31
REMARK   12  A    between atoms: O_32  and  C_33
REMARK   13  A    between atoms: C_33  and  C_34
REMARK                            x       y       z     vdW  Elec       q    Type
REMARK                         _______ _______ _______ _____ _____    ______ ____
ROOT
ATOM      1  C   LIG A   1      -6.315   3.997 126.374  0.00  0.00    +0.201 C 
ATOM      2  C   LIG A   1      -7.853   4.021 126.602  0.00  0.00    +0.282 C 
ATOM      3  O   LIG A   1      -8.574   4.219 125.381  0.00  0.00    -0.341 OA
ATOM      4  C   LIG A   1      -8.265   3.301 124.312  0.00  0.00    +0.178 C 
ATOM      5  C   LIG A   1      -6.764   3.304 123.983  0.00  0.00    +0.177 C 
ATOM      6  C   LIG A   1      -5.902   3.053 125.231  0.00  0.00    +0.179 C 
ENDROOT
BRANCH   1   7
ATOM      7  O   LIG A   1      -5.867   5.327 126.027  0.00  0.00    -0.384 OA
ATOM      8  H   LIG A   1      -5.062   5.503 126.549  0.00  0.00    +0.210 HD
ENDBRANCH   1   7
BRANCH   5   9
ATOM      9  O   LIG A   1      -6.415   4.577 123.408  0.00  0.00    -0.387 OA
ATOM     10  H   LIG A   1      -7.256   5.030 123.187  0.00  0.00    +0.210 HD
ENDBRANCH   5   9
BRANCH   6  11
ATOM     11  O   LIG A   1      -5.952   1.696 125.665  0.00  0.00    -0.386 OA
ATOM     12  H   LIG A   1      -5.167   1.529 126.218  0.00  0.00    +0.210 HD
ENDBRANCH   6  11
BRANCH   4  13
ATOM     13  C   LIG A   1      -8.850   1.899 124.555  0.00  0.00    +0.197 C 
BRANCH  13  14
ATOM     14  O   LIG A   1      -8.178   0.891 123.794  0.00  0.00    -0.346 OA
BRANCH  14  15
ATOM     15  C   LIG A   1      -8.402  -0.415 124.363  0.00  0.00    +0.282 C 
ATOM     16  O   LIG A   1      -7.218  -0.811 125.058  0.00  0.00    -0.343 OA
ATOM     17  C   LIG A   1      -7.283  -2.094 125.685  0.00  0.00    +0.149 C 
ATOM     18  C   LIG A   1      -8.268  -2.132 126.850  0.00  0.00    +0.040 C 
ATOM     19  C   LIG A   1      -7.509  -3.169 124.611  0.00  0.00    +0.174 C 
ATOM     20  C   LIG A   1      -8.721  -2.866 123.721  0.00  0.00    +0.179 C 
ATOM     21  C   LIG A   1      -8.729  -1.410 123.226  0.00  0.00    +0.201 C 
BRANCH  19  22
ATOM     22  O   LIG A   1      -6.345  -3.237 123.773  0.00  0.00    -0.387 OA
ATOM     23  H   LIG A   1      -6.615  -2.959 122.876  0.00  0.00    +0.210 HD
ENDBRANCH  19  22
BRANCH  20  24
ATOM     24  O   LIG A   1      -9.954  -3.130 124.414  0.00  0.00    -0.386 OA
ATOM     25  H   LIG A   1     -10.535  -2.362 124.253  0.00  0.00    +0.210 HD
ENDBRANCH  20  24
BRANCH  21  26
ATOM     26  O   LIG A   1     -10.011  -1.137 122.634  0.00  0.00    -0.384 OA
ATOM     27  H   LIG A   1     -10.231  -1.934 122.111  0.00  0.00    +0.210 HD
ENDBRANCH  21  26
ENDBRANCH  14  15
ENDBRANCH  13  14
ENDBRANCH   4  13
BRANCH   2  28
ATOM     28  O   LIG A   1      -8.305   2.888 127.337  0.00  0.00    -0.344 OA
BRANCH  28  29
ATOM     29  C   LIG A   1      -7.505   2.619 128.494  0.00  0.00    +0.198 C 
BRANCH  29  30
ATOM     30  C   LIG A   1      -8.360   2.238 129.686  0.00  0.00    -0.022 A 
ATOM     31  C   LIG A   1      -9.330   3.106 130.202  0.00  0.00    +0.006 A 
ATOM     32  C   LIG A   1     -10.103   2.750 131.306  0.00  0.00    +0.000 A 
ATOM     33  C   LIG A   1      -9.908   1.511 131.919  0.00  0.00    +0.000 A 
ATOM     34  C   LIG A   1      -8.949   0.635 131.419  0.00  0.00    +0.000 A 
ATOM     35  C   LIG A   1      -8.179   0.991 130.310  0.00  0.00    +0.006 A 
ENDBRANCH  29  30
ENDBRANCH  28  29
ENDBRANCH   2  28
TORSDOF 12
ENDMDL
