MODEL 1
REMARK VINA RESULT:      -8.0      0.000      0.000
REMARK  Name = NuBBE_1291
REMARK  13 active torsions:
REMARK  status: ('A' for Active; 'I' for Inactive)
REMARK    1  A    between atoms: C_1  and  C_2
REMARK    2  A    between atoms: C_2  and  O_36
REMARK    3  A    between atoms: C_4  and  C_5
REMARK    4  A    between atoms: C_6  and  C_8
REMARK    5  A    between atoms: C_8  and  C_9
REMARK    6  A    between atoms: C_9  and  O_10
REMARK    7  A    between atoms: O_10  and  C_11
REMARK    8  A    between atoms: C_13  and  C_27
REMARK    9  A    between atoms: C_15  and  C_16
REMARK   10  A    between atoms: C_17  and  C_19
REMARK   11  A    between atoms: C_30  and  O_32
REMARK   12  A    between atoms: O_32  and  C_33
REMARK   13  A    between atoms: C_33  and  C_34
REMARK                            x       y       z     vdW  Elec       q    Type
REMARK                         _______ _______ _______ _____ _____    ______ ____
ROOT
ATOM      1  C   LIG A   1      -7.756   4.361 125.704  0.00  0.00    +0.046 C 
ATOM      2  C   LIG A   1      -6.994   3.027 125.762  0.00  0.00    +0.089 C 
ATOM      3  C   LIG A   1      -7.866   1.938 126.503  0.00  0.00    +0.081 C 
ATOM      4  C   LIG A   1      -8.397   0.709 125.626  0.00  0.00    +0.043 C 
ATOM      5  C   LIG A   1      -9.965   0.735 125.733  0.00  0.00    +0.020 C 
ATOM      6  C   LIG A   1      -7.925  -0.755 126.125  0.00  0.00    +0.026 C 
ATOM      7  C   LIG A   1      -6.598  -0.848 126.959  0.00  0.00    +0.025 C 
ATOM      8  C   LIG A   1      -6.583  -1.638 128.254  0.00  0.00    -0.033 C 
ATOM      9  C   LIG A   1      -7.031  -2.763 128.837  0.00  0.00    -0.063 C 
ATOM     10  C   LIG A   1      -8.221  -3.602 128.562  0.00  0.00    +0.040 C 
ATOM     11  C   LIG A   1      -5.940  -3.236 129.820  0.00  0.00    +0.051 C 
ATOM     12  C   LIG A   1      -4.865  -2.121 129.690  0.00  0.00    +0.048 C 
ATOM     13  C   LIG A   1      -5.712  -0.943 129.251  0.00  0.00    +0.146 C 
ATOM     14  O   LIG A   1      -5.155   0.159 128.574  0.00  0.00    -0.364 OA
ATOM     15  C   LIG A   1      -5.399  -1.415 126.142  0.00  0.00    +0.019 C 
ATOM     16  C   LIG A   1      -6.086   0.490 127.502  0.00  0.00    +0.170 C 
ATOM     17  C   LIG A   1      -7.202   1.494 127.842  0.00  0.00    +0.213 C 
ATOM     18  C   LIG A   1      -6.539   2.681 124.387  0.00  0.00    +0.011 C 
ATOM     19  C   LIG A   1      -7.071   1.731 123.623  0.00  0.00    +0.045 C 
ATOM     20  C   LIG A   1      -8.190   0.918 124.116  0.00  0.00    +0.163 C 
ATOM     21  O   LIG A   1      -8.931   0.407 123.273  0.00  0.00    -0.292 OA
ENDROOT
BRANCH  11  22
ATOM     22  C   LIG A   1      -6.335  -3.489 131.235  0.00  0.00    -0.003 A 
ATOM     23  C   LIG A   1      -5.767  -4.444 132.062  0.00  0.00    +0.199 A 
ATOM     24  O   LIG A   1      -6.305  -4.398 133.304  0.00  0.00    -0.471 OA
ATOM     25  C   LIG A   1      -7.228  -3.405 133.291  0.00  0.00    +0.195 A 
ATOM     26  C   LIG A   1      -7.287  -2.818 132.049  0.00  0.00    +0.045 A 
ENDBRANCH  11  22
BRANCH   2  27
ATOM     27  O   LIG A   1      -5.802   3.291 126.501  0.00  0.00    -0.384 OA
ATOM     28  H   LIG A   1      -5.895   4.127 126.988  0.00  0.00    +0.211 HD
ENDBRANCH   2  27
BRANCH   6  29
ATOM     29  C   LIG A   1      -8.081  -1.930 125.071  0.00  0.00    +0.126 C 
BRANCH  29  30
ATOM     30  C   LIG A   1      -9.409  -2.711 125.039  0.00  0.00    +0.307 C 
ATOM     31  O   LIG A   1     -10.150  -2.942 125.964  0.00  0.00    -0.251 OA
BRANCH  30  32
ATOM     32  O   LIG A   1      -9.657  -3.080 123.730  0.00  0.00    -0.468 OA
ATOM     33  C   LIG A   1      -8.559  -2.858 122.828  0.00  0.00    +0.280 C 
ENDBRANCH  30  32
ENDBRANCH  29  30
ENDBRANCH   6  29
BRANCH  17  34
ATOM     34  O   LIG A   1      -8.276   1.009 128.693  0.00  0.00    -0.459 OA
BRANCH  34  35
ATOM     35  C   LIG A   1      -8.333   1.601 129.923  0.00  0.00    +0.304 C 
ATOM     36  C   LIG A   1      -8.586   0.569 131.015  0.00  0.00    +0.136 C 
ATOM     37  O   LIG A   1      -8.257   2.776 130.159  0.00  0.00    -0.251 OA
ENDBRANCH  34  35
ENDBRANCH  17  34
TORSDOF 7
ENDMDL
MODEL 2
REMARK VINA RESULT:      -7.9      2.205      6.964
REMARK  Name = NuBBE_1291
REMARK  13 active torsions:
REMARK  status: ('A' for Active; 'I' for Inactive)
REMARK    1  A    between atoms: C_1  and  C_2
REMARK    2  A    between atoms: C_2  and  O_36
REMARK    3  A    between atoms: C_4  and  C_5
REMARK    4  A    between atoms: C_6  and  C_8
REMARK    5  A    between atoms: C_8  and  C_9
REMARK    6  A    between atoms: C_9  and  O_10
REMARK    7  A    between atoms: O_10  and  C_11
REMARK    8  A    between atoms: C_13  and  C_27
REMARK    9  A    between atoms: C_15  and  C_16
REMARK   10  A    between atoms: C_17  and  C_19
REMARK   11  A    between atoms: C_30  and  O_32
REMARK   12  A    between atoms: O_32  and  C_33
REMARK   13  A    between atoms: C_33  and  C_34
REMARK                            x       y       z     vdW  Elec       q    Type
REMARK                         _______ _______ _______ _____ _____    ______ ____
ROOT
ATOM      1  C   LIG A   1      -5.957   0.616 131.353  0.00  0.00    +0.046 C 
ATOM      2  C   LIG A   1      -6.983   0.628 130.208  0.00  0.00    +0.089 C 
ATOM      3  C   LIG A   1      -6.255   0.394 128.826  0.00  0.00    +0.081 C 
ATOM      4  C   LIG A   1      -6.569  -0.975 128.059  0.00  0.00    +0.043 C 
ATOM      5  C   LIG A   1      -5.190  -1.710 127.884  0.00  0.00    +0.020 C 
ATOM      6  C   LIG A   1      -7.196  -0.813 126.577  0.00  0.00    +0.026 C 
ATOM      7  C   LIG A   1      -7.977   0.511 126.257  0.00  0.00    +0.025 C 
ATOM      8  C   LIG A   1      -7.661   1.277 124.986  0.00  0.00    -0.033 C 
ATOM      9  C   LIG A   1      -7.371   1.131 123.682  0.00  0.00    -0.063 C 
ATOM     10  C   LIG A   1      -6.745   0.014 122.937  0.00  0.00    +0.040 C 
ATOM     11  C   LIG A   1      -8.004   2.323 122.936  0.00  0.00    +0.051 C 
ATOM     12  C   LIG A   1      -8.627   3.153 124.093  0.00  0.00    +0.048 C 
ATOM     13  C   LIG A   1      -7.744   2.746 125.256  0.00  0.00    +0.146 C 
ATOM     14  O   LIG A   1      -8.175   2.868 126.591  0.00  0.00    -0.364 OA
ATOM     15  C   LIG A   1      -9.522   0.318 126.223  0.00  0.00    +0.019 C 
ATOM     16  C   LIG A   1      -7.761   1.644 127.266  0.00  0.00    +0.170 C 
ATOM     17  C   LIG A   1      -6.361   1.650 127.908  0.00  0.00    +0.213 C 
ATOM     18  C   LIG A   1      -8.079  -0.323 130.543  0.00  0.00    +0.011 C 
ATOM     19  C   LIG A   1      -8.257  -1.513 129.976  0.00  0.00    +0.045 C 
ATOM     20  C   LIG A   1      -7.345  -1.983 128.925  0.00  0.00    +0.163 C 
ATOM     21  O   LIG A   1      -7.246  -3.201 128.765  0.00  0.00    -0.292 OA
ENDROOT
BRANCH  11  22
ATOM     22  C   LIG A   1      -7.125   3.142 122.052  0.00  0.00    -0.003 A 
ATOM     23  C   LIG A   1      -7.494   3.663 120.822  0.00  0.00    +0.199 A 
ATOM     24  O   LIG A   1      -6.494   4.402 120.285  0.00  0.00    -0.471 OA
ATOM     25  C   LIG A   1      -5.467   4.368 121.169  0.00  0.00    +0.195 A 
ATOM     26  C   LIG A   1      -5.801   3.610 122.267  0.00  0.00    +0.045 A 
ENDBRANCH  11  22
BRANCH   2  27
ATOM     27  O   LIG A   1      -7.583   1.923 130.236  0.00  0.00    -0.384 OA
ATOM     28  H   LIG A   1      -7.680   2.221 131.156  0.00  0.00    +0.211 HD
ENDBRANCH   2  27
BRANCH   6  29
ATOM     29  C   LIG A   1      -7.888  -2.105 125.972  0.00  0.00    +0.126 C 
BRANCH  29  30
ATOM     30  C   LIG A   1      -7.101  -2.943 124.946  0.00  0.00    +0.307 C 
ATOM     31  O   LIG A   1      -5.908  -2.947 124.758  0.00  0.00    -0.251 OA
BRANCH  30  32
ATOM     32  O   LIG A   1      -7.998  -3.758 124.281  0.00  0.00    -0.468 OA
ATOM     33  C   LIG A   1      -9.204  -3.098 123.856  0.00  0.00    +0.280 C 
ENDBRANCH  30  32
ENDBRANCH  29  30
ENDBRANCH   6  29
BRANCH  17  34
ATOM     34  O   LIG A   1      -5.229   1.592 126.998  0.00  0.00    -0.459 OA
BRANCH  34  35
ATOM     35  C   LIG A   1      -4.340   2.621 127.136  0.00  0.00    +0.304 C 
ATOM     36  C   LIG A   1      -4.342   3.514 125.903  0.00  0.00    +0.136 C 
ATOM     37  O   LIG A   1      -3.596   2.808 128.060  0.00  0.00    -0.251 OA
ENDBRANCH  34  35
ENDBRANCH  17  34
TORSDOF 7
ENDMDL
MODEL 3
REMARK VINA RESULT:      -7.4      5.384      8.256
REMARK  Name = NuBBE_1291
REMARK  13 active torsions:
REMARK  status: ('A' for Active; 'I' for Inactive)
REMARK    1  A    between atoms: C_1  and  C_2
REMARK    2  A    between atoms: C_2  and  O_36
REMARK    3  A    between atoms: C_4  and  C_5
REMARK    4  A    between atoms: C_6  and  C_8
REMARK    5  A    between atoms: C_8  and  C_9
REMARK    6  A    between atoms: C_9  and  O_10
REMARK    7  A    between atoms: O_10  and  C_11
REMARK    8  A    between atoms: C_13  and  C_27
REMARK    9  A    between atoms: C_15  and  C_16
REMARK   10  A    between atoms: C_17  and  C_19
REMARK   11  A    between atoms: C_30  and  O_32
REMARK   12  A    between atoms: O_32  and  C_33
REMARK   13  A    between atoms: C_33  and  C_34
REMARK                            x       y       z     vdW  Elec       q    Type
REMARK                         _______ _______ _______ _____ _____    ______ ____
ROOT
ATOM      1  C   LIG A   1     -10.372   3.269 130.380  0.00  0.00    +0.046 C 
ATOM      2  C   LIG A   1      -8.921   3.271 129.873  0.00  0.00    +0.089 C 
ATOM      3  C   LIG A   1      -7.923   3.431 131.087  0.00  0.00    +0.081 C 
ATOM      4  C   LIG A   1      -6.985   2.180 131.430  0.00  0.00    +0.043 C 
ATOM      5  C   LIG A   1      -7.308   1.781 132.916  0.00  0.00    +0.020 C 
ATOM      6  C   LIG A   1      -5.394   2.465 131.363  0.00  0.00    +0.026 C 
ATOM      7  C   LIG A   1      -4.903   3.639 130.444  0.00  0.00    +0.025 C 
ATOM      8  C   LIG A   1      -3.924   4.660 130.994  0.00  0.00    -0.033 C 
ATOM      9  C   LIG A   1      -2.833   4.803 131.764  0.00  0.00    -0.063 C 
ATOM     10  C   LIG A   1      -2.306   3.982 132.879  0.00  0.00    +0.040 C 
ATOM     11  C   LIG A   1      -1.997   5.953 131.166  0.00  0.00    +0.051 C 
ATOM     12  C   LIG A   1      -2.879   6.427 129.977  0.00  0.00    +0.048 C 
ATOM     13  C   LIG A   1      -4.259   6.012 130.450  0.00  0.00    +0.146 C 
ATOM     14  O   LIG A   1      -5.322   5.813 129.548  0.00  0.00    -0.364 OA
ATOM     15  C   LIG A   1      -4.247   3.145 129.119  0.00  0.00    +0.019 C 
ATOM     16  C   LIG A   1      -6.004   4.601 129.985  0.00  0.00    +0.170 C 
ATOM     17  C   LIG A   1      -7.142   4.778 131.006  0.00  0.00    +0.213 C 
ATOM     18  C   LIG A   1      -8.720   2.074 129.009  0.00  0.00    +0.011 C 
ATOM     19  C   LIG A   1      -8.033   0.989 129.357  0.00  0.00    +0.045 C 
ATOM     20  C   LIG A   1      -7.392   0.902 130.675  0.00  0.00    +0.163 C 
ATOM     21  O   LIG A   1      -7.184  -0.225 131.130  0.00  0.00    -0.292 OA
ENDROOT
BRANCH  11  22
ATOM     22  C   LIG A   1      -1.601   7.073 132.067  0.00  0.00    -0.003 A 
ATOM     23  C   LIG A   1      -0.357   7.215 132.662  0.00  0.00    +0.199 A 
ATOM     24  O   LIG A   1      -0.289   8.359 133.384  0.00  0.00    -0.471 OA
ATOM     25  C   LIG A   1      -1.492   8.971 133.258  0.00  0.00    +0.195 A 
ATOM     26  C   LIG A   1      -2.331   8.225 132.463  0.00  0.00    +0.045 A 
ENDBRANCH  11  22
BRANCH   2  27
ATOM     27  O   LIG A   1      -8.816   4.393 128.997  0.00  0.00    -0.384 OA
ATOM     28  H   LIG A   1      -9.310   5.145 129.364  0.00  0.00    +0.211 HD
ENDBRANCH   2  27
BRANCH   6  29
ATOM     29  C   LIG A   1      -4.463   1.184 131.290  0.00  0.00    +0.126 C 
BRANCH  29  30
ATOM     30  C   LIG A   1      -3.942   0.583 132.610  0.00  0.00    +0.307 C 
ATOM     31  O   LIG A   1      -4.000   1.068 133.714  0.00  0.00    -0.251 OA
BRANCH  30  32
ATOM     32  O   LIG A   1      -3.420  -0.667 132.333  0.00  0.00    -0.468 OA
ATOM     33  C   LIG A   1      -3.784  -1.196 131.045  0.00  0.00    +0.280 C 
ENDBRANCH  30  32
ENDBRANCH  29  30
ENDBRANCH   6  29
BRANCH  17  34
ATOM     34  O   LIG A   1      -6.750   5.109 132.366  0.00  0.00    -0.459 OA
BRANCH  34  35
ATOM     35  C   LIG A   1      -7.765   5.586 133.146  0.00  0.00    +0.304 C 
ATOM     36  C   LIG A   1      -7.649   5.064 134.573  0.00  0.00    +0.136 C 
ATOM     37  O   LIG A   1      -8.680   6.278 132.791  0.00  0.00    -0.251 OA
ENDBRANCH  34  35
ENDBRANCH  17  34
TORSDOF 7
ENDMDL
MODEL 4
REMARK VINA RESULT:      -7.3      3.932      8.243
REMARK  Name = NuBBE_1291
REMARK  13 active torsions:
REMARK  status: ('A' for Active; 'I' for Inactive)
REMARK    1  A    between atoms: C_1  and  C_2
REMARK    2  A    between atoms: C_2  and  O_36
REMARK    3  A    between atoms: C_4  and  C_5
REMARK    4  A    between atoms: C_6  and  C_8
REMARK    5  A    between atoms: C_8  and  C_9
REMARK    6  A    between atoms: C_9  and  O_10
REMARK    7  A    between atoms: O_10  and  C_11
REMARK    8  A    between atoms: C_13  and  C_27
REMARK    9  A    between atoms: C_15  and  C_16
REMARK   10  A    between atoms: C_17  and  C_19
REMARK   11  A    between atoms: C_30  and  O_32
REMARK   12  A    between atoms: O_32  and  C_33
REMARK   13  A    between atoms: C_33  and  C_34
REMARK                            x       y       z     vdW  Elec       q    Type
REMARK                         _______ _______ _______ _____ _____    ______ ____
ROOT
ATOM      1  C   LIG A   1      -9.275   4.172 133.751  0.00  0.00    +0.046 C 
ATOM      2  C   LIG A   1      -8.273   3.472 132.818  0.00  0.00    +0.089 C 
ATOM      3  C   LIG A   1      -8.078   4.319 131.499  0.00  0.00    +0.081 C 
ATOM      4  C   LIG A   1      -6.644   4.990 131.268  0.00  0.00    +0.043 C 
ATOM      5  C   LIG A   1      -6.894   6.538 131.149  0.00  0.00    +0.020 C 
ATOM      6  C   LIG A   1      -5.877   4.542 129.916  0.00  0.00    +0.026 C 
ATOM      7  C   LIG A   1      -6.247   3.147 129.298  0.00  0.00    +0.025 C 
ATOM      8  C   LIG A   1      -6.558   3.045 127.816  0.00  0.00    -0.033 C 
ATOM      9  C   LIG A   1      -6.187   3.487 126.603  0.00  0.00    -0.063 C 
ATOM     10  C   LIG A   1      -5.512   4.737 126.179  0.00  0.00    +0.040 C 
ATOM     11  C   LIG A   1      -6.407   2.330 125.606  0.00  0.00    +0.051 C 
ATOM     12  C   LIG A   1      -7.016   1.220 126.508  0.00  0.00    +0.048 C 
ATOM     13  C   LIG A   1      -7.654   2.050 127.605  0.00  0.00    +0.146 C 
ATOM     14  O   LIG A   1      -7.932   1.509 128.875  0.00  0.00    -0.364 OA
ATOM     15  C   LIG A   1      -5.157   2.061 129.544  0.00  0.00    +0.019 C 
ATOM     16  C   LIG A   1      -7.534   2.521 129.845  0.00  0.00    +0.170 C 
ATOM     17  C   LIG A   1      -8.605   3.551 130.249  0.00  0.00    +0.213 C 
ATOM     18  C   LIG A   1      -7.037   3.169 133.593  0.00  0.00    +0.011 C 
ATOM     19  C   LIG A   1      -5.882   3.817 133.471  0.00  0.00    +0.045 C 
ATOM     20  C   LIG A   1      -5.743   4.920 132.513  0.00  0.00    +0.163 C 
ATOM     21  O   LIG A   1      -4.872   5.763 132.743  0.00  0.00    -0.292 OA
ENDROOT
BRANCH  11  22
ATOM     22  C   LIG A   1      -7.230   2.598 124.392  0.00  0.00    -0.003 A 
ATOM     23  C   LIG A   1      -8.596   2.826 124.391  0.00  0.00    +0.199 A 
ATOM     24  O   LIG A   1      -9.047   3.087 123.140  0.00  0.00    -0.471 OA
ATOM     25  C   LIG A   1      -7.969   3.032 122.320  0.00  0.00    +0.195 A 
ATOM     26  C   LIG A   1      -6.833   2.735 123.035  0.00  0.00    +0.045 A 
ENDBRANCH  11  22
BRANCH   2  27
ATOM     27  O   LIG A   1      -8.848   2.203 132.510  0.00  0.00    -0.384 OA
ATOM     28  H   LIG A   1      -9.754   2.324 132.176  0.00  0.00    +0.211 HD
ENDBRANCH   2  27
BRANCH   6  29
ATOM     29  C   LIG A   1      -4.324   4.855 129.864  0.00  0.00    +0.126 C 
BRANCH  29  30
ATOM     30  C   LIG A   1      -3.847   6.051 129.018  0.00  0.00    +0.307 C 
ATOM     31  O   LIG A   1      -4.383   7.125 128.892  0.00  0.00    -0.251 OA
BRANCH  30  32
ATOM     32  O   LIG A   1      -2.638   5.710 128.439  0.00  0.00    -0.468 OA
ATOM     33  C   LIG A   1      -2.525   4.326 128.063  0.00  0.00    +0.280 C 
ENDBRANCH  30  32
ENDBRANCH  29  30
ENDBRANCH   6  29
BRANCH  17  34
ATOM     34  O   LIG A   1      -8.943   4.560 129.258  0.00  0.00    -0.459 OA
BRANCH  34  35
ATOM     35  C   LIG A   1     -10.132   5.195 129.482  0.00  0.00    +0.304 C 
ATOM     36  C   LIG A   1     -10.002   6.695 129.257  0.00  0.00    +0.136 C 
ATOM     37  O   LIG A   1     -11.155   4.692 129.860  0.00  0.00    -0.251 OA
ENDBRANCH  34  35
ENDBRANCH  17  34
TORSDOF 7
ENDMDL
MODEL 5
REMARK VINA RESULT:      -7.2      2.375      6.018
REMARK  Name = NuBBE_1291
REMARK  13 active torsions:
REMARK  status: ('A' for Active; 'I' for Inactive)
REMARK    1  A    between atoms: C_1  and  C_2
REMARK    2  A    between atoms: C_2  and  O_36
REMARK    3  A    between atoms: C_4  and  C_5
REMARK    4  A    between atoms: C_6  and  C_8
REMARK    5  A    between atoms: C_8  and  C_9
REMARK    6  A    between atoms: C_9  and  O_10
REMARK    7  A    between atoms: O_10  and  C_11
REMARK    8  A    between atoms: C_13  and  C_27
REMARK    9  A    between atoms: C_15  and  C_16
REMARK   10  A    between atoms: C_17  and  C_19
REMARK   11  A    between atoms: C_30  and  O_32
REMARK   12  A    between atoms: O_32  and  C_33
REMARK   13  A    between atoms: C_33  and  C_34
REMARK                            x       y       z     vdW  Elec       q    Type
REMARK                         _______ _______ _______ _____ _____    ______ ____
ROOT
ATOM      1  C   LIG A   1      -5.119   2.304 132.828  0.00  0.00    +0.046 C 
ATOM      2  C   LIG A   1      -4.750   2.150 131.343  0.00  0.00    +0.089 C 
ATOM      3  C   LIG A   1      -6.061   2.080 130.465  0.00  0.00    +0.081 C 
ATOM      4  C   LIG A   1      -6.340   3.302 129.471  0.00  0.00    +0.043 C 
ATOM      5  C   LIG A   1      -7.733   3.901 129.887  0.00  0.00    +0.020 C 
ATOM      6  C   LIG A   1      -6.454   2.913 127.905  0.00  0.00    +0.026 C 
ATOM      7  C   LIG A   1      -5.727   1.607 127.424  0.00  0.00    +0.025 C 
ATOM      8  C   LIG A   1      -6.481   0.603 126.573  0.00  0.00    -0.033 C 
ATOM      9  C   LIG A   1      -7.359   0.489 125.562  0.00  0.00    -0.063 C 
ATOM     10  C   LIG A   1      -8.414   1.407 125.073  0.00  0.00    +0.040 C 
ATOM     11  C   LIG A   1      -6.979  -0.776 124.765  0.00  0.00    +0.051 C 
ATOM     12  C   LIG A   1      -5.777  -1.337 125.577  0.00  0.00    +0.048 C 
ATOM     13  C   LIG A   1      -6.070  -0.783 126.957  0.00  0.00    +0.146 C 
ATOM     14  O   LIG A   1      -5.057  -0.630 127.924  0.00  0.00    -0.364 OA
ATOM     15  C   LIG A   1      -4.420   1.893 126.626  0.00  0.00    +0.019 C 
ATOM     16  C   LIG A   1      -5.285   0.666 128.550  0.00  0.00    +0.170 C 
ATOM     17  C   LIG A   1      -6.211   0.687 129.780  0.00  0.00    +0.213 C 
ATOM     18  C   LIG A   1      -3.775   3.217 130.984  0.00  0.00    +0.011 C 
ATOM     19  C   LIG A   1      -4.054   4.292 130.252  0.00  0.00    +0.045 C 
ATOM     20  C   LIG A   1      -5.407   4.500 129.719  0.00  0.00    +0.163 C 
ATOM     21  O   LIG A   1      -5.743   5.660 129.469  0.00  0.00    -0.292 OA
ENDROOT
BRANCH  11  22
ATOM     22  C   LIG A   1      -8.037  -1.799 124.528  0.00  0.00    -0.003 A 
ATOM     23  C   LIG A   1      -8.974  -2.208 125.463  0.00  0.00    +0.199 A 
ATOM     24  O   LIG A   1      -9.831  -3.113 124.933  0.00  0.00    -0.471 OA
ATOM     25  C   LIG A   1      -9.455  -3.295 123.644  0.00  0.00    +0.195 A 
ATOM     26  C   LIG A   1      -8.362  -2.515 123.345  0.00  0.00    +0.045 A 
ENDBRANCH  11  22
BRANCH   2  27
ATOM     27  O   LIG A   1      -4.025   0.925 131.247  0.00  0.00    -0.384 OA
ATOM     28  H   LIG A   1      -3.143   1.092 130.876  0.00  0.00    +0.211 HD
ENDBRANCH   2  27
BRANCH   6  29
ATOM     29  C   LIG A   1      -6.316   4.116 126.881  0.00  0.00    +0.126 C 
BRANCH  29  30
ATOM     30  C   LIG A   1      -7.594   4.647 126.202  0.00  0.00    +0.307 C 
ATOM     31  O   LIG A   1      -8.595   5.059 126.736  0.00  0.00    -0.251 OA
BRANCH  30  32
ATOM     32  O   LIG A   1      -7.392   4.625 124.834  0.00  0.00    -0.468 OA
ATOM     33  C   LIG A   1      -6.021   4.446 124.435  0.00  0.00    +0.280 C 
ENDBRANCH  30  32
ENDBRANCH  29  30
ENDBRANCH   6  29
BRANCH  17  34
ATOM     34  O   LIG A   1      -7.630   0.502 129.527  0.00  0.00    -0.459 OA
BRANCH  34  35
ATOM     35  C   LIG A   1      -8.249  -0.360 130.388  0.00  0.00    +0.304 C 
ATOM     36  C   LIG A   1      -7.936  -1.807 130.031  0.00  0.00    +0.136 C 
ATOM     37  O   LIG A   1      -8.994  -0.070 131.284  0.00  0.00    -0.251 OA
ENDBRANCH  34  35
ENDBRANCH  17  34
TORSDOF 7
ENDMDL
MODEL 6
REMARK VINA RESULT:      -7.2      2.085      6.596
REMARK  Name = NuBBE_1291
REMARK  13 active torsions:
REMARK  status: ('A' for Active; 'I' for Inactive)
REMARK    1  A    between atoms: C_1  and  C_2
REMARK    2  A    between atoms: C_2  and  O_36
REMARK    3  A    between atoms: C_4  and  C_5
REMARK    4  A    between atoms: C_6  and  C_8
REMARK    5  A    between atoms: C_8  and  C_9
REMARK    6  A    between atoms: C_9  and  O_10
REMARK    7  A    between atoms: O_10  and  C_11
REMARK    8  A    between atoms: C_13  and  C_27
REMARK    9  A    between atoms: C_15  and  C_16
REMARK   10  A    between atoms: C_17  and  C_19
REMARK   11  A    between atoms: C_30  and  O_32
REMARK   12  A    between atoms: O_32  and  C_33
REMARK   13  A    between atoms: C_33  and  C_34
REMARK                            x       y       z     vdW  Elec       q    Type
REMARK                         _______ _______ _______ _____ _____    ______ ____
ROOT
ATOM      1  C   LIG A   1      -4.565  -1.068 133.536  0.00  0.00    +0.046 C 
ATOM      2  C   LIG A   1      -4.456  -0.447 132.135  0.00  0.00    +0.089 C 
ATOM      3  C   LIG A   1      -5.871  -0.444 131.432  0.00  0.00    +0.081 C 
ATOM      4  C   LIG A   1      -6.551   0.980 131.166  0.00  0.00    +0.043 C 
ATOM      5  C   LIG A   1      -7.929   0.960 131.923  0.00  0.00    +0.020 C 
ATOM      6  C   LIG A   1      -6.879   1.316 129.618  0.00  0.00    +0.026 C 
ATOM      7  C   LIG A   1      -6.026   0.589 128.519  0.00  0.00    +0.025 C 
ATOM      8  C   LIG A   1      -6.725  -0.083 127.352  0.00  0.00    -0.033 C 
ATOM      9  C   LIG A   1      -7.739   0.050 126.481  0.00  0.00    -0.063 C 
ATOM     10  C   LIG A   1      -9.018   0.793 126.571  0.00  0.00    +0.040 C 
ATOM     11  C   LIG A   1      -7.286  -0.587 125.151  0.00  0.00    +0.051 C 
ATOM     12  C   LIG A   1      -5.873  -1.130 125.502  0.00  0.00    +0.048 C 
ATOM     13  C   LIG A   1      -6.001  -1.343 126.997  0.00  0.00    +0.146 C 
ATOM     14  O   LIG A   1      -4.873  -1.389 127.838  0.00  0.00    -0.364 OA
ATOM     15  C   LIG A   1      -4.965   1.517 127.856  0.00  0.00    +0.019 C 
ATOM     16  C   LIG A   1      -5.216  -0.611 129.022  0.00  0.00    +0.170 C 
ATOM     17  C   LIG A   1      -5.885  -1.373 130.180  0.00  0.00    +0.213 C 
ATOM     18  C   LIG A   1      -3.778   0.874 132.253  0.00  0.00    +0.011 C 
ATOM     19  C   LIG A   1      -4.383   2.055 132.146  0.00  0.00    +0.045 C 
ATOM     20  C   LIG A   1      -5.825   2.133 131.883  0.00  0.00    +0.163 C 
ATOM     21  O   LIG A   1      -6.411   3.156 132.243  0.00  0.00    -0.292 OA
ENDROOT
BRANCH  11  22
ATOM     22  C   LIG A   1      -8.163  -1.626 124.537  0.00  0.00    -0.003 A 
ATOM     23  C   LIG A   1      -9.037  -2.444 125.234  0.00  0.00    +0.199 A 
ATOM     24  O   LIG A   1      -9.728  -3.249 124.392  0.00  0.00    -0.471 OA
ATOM     25  C   LIG A   1      -9.308  -2.954 123.138  0.00  0.00    +0.195 A 
ATOM     26  C   LIG A   1      -8.350  -1.967 123.171  0.00  0.00    +0.045 A 
ENDBRANCH  11  22
BRANCH   2  27
ATOM     27  O   LIG A   1      -3.548  -1.276 131.410  0.00  0.00    -0.384 OA
ATOM     28  H   LIG A   1      -2.929  -0.723 130.904  0.00  0.00    +0.211 HD
ENDBRANCH   2  27
BRANCH   6  29
ATOM     29  C   LIG A   1      -7.159   2.840 129.284  0.00  0.00    +0.126 C 
BRANCH  29  30
ATOM     30  C   LIG A   1      -8.612   3.273 129.008  0.00  0.00    +0.307 C 
ATOM     31  O   LIG A   1      -9.614   2.883 129.558  0.00  0.00    -0.251 OA
BRANCH  30  32
ATOM     32  O   LIG A   1      -8.588   4.251 128.031  0.00  0.00    -0.468 OA
ATOM     33  C   LIG A   1      -7.514   4.123 127.083  0.00  0.00    +0.280 C 
ENDBRANCH  30  32
ENDBRANCH  29  30
ENDBRANCH   6  29
BRANCH  17  34
ATOM     34  O   LIG A   1      -7.268  -1.774 129.981  0.00  0.00    -0.459 OA
BRANCH  34  35
ATOM     35  C   LIG A   1      -7.441  -3.110 129.748  0.00  0.00    +0.304 C 
ATOM     36  C   LIG A   1      -8.619  -3.355 128.815  0.00  0.00    +0.136 C 
ATOM     37  O   LIG A   1      -6.812  -4.011 130.234  0.00  0.00    -0.251 OA
ENDBRANCH  34  35
ENDBRANCH  17  34
TORSDOF 7
ENDMDL
MODEL 7
REMARK VINA RESULT:      -7.0      2.032      7.645
REMARK  Name = NuBBE_1291
REMARK  13 active torsions:
REMARK  status: ('A' for Active; 'I' for Inactive)
REMARK    1  A    between atoms: C_1  and  C_2
REMARK    2  A    between atoms: C_2  and  O_36
REMARK    3  A    between atoms: C_4  and  C_5
REMARK    4  A    between atoms: C_6  and  C_8
REMARK    5  A    between atoms: C_8  and  C_9
REMARK    6  A    between atoms: C_9  and  O_10
REMARK    7  A    between atoms: O_10  and  C_11
REMARK    8  A    between atoms: C_13  and  C_27
REMARK    9  A    between atoms: C_15  and  C_16
REMARK   10  A    between atoms: C_17  and  C_19
REMARK   11  A    between atoms: C_30  and  O_32
REMARK   12  A    between atoms: O_32  and  C_33
REMARK   13  A    between atoms: C_33  and  C_34
REMARK                            x       y       z     vdW  Elec       q    Type
REMARK                         _______ _______ _______ _____ _____    ______ ____
ROOT
ATOM      1  C   LIG A   1      -5.330  -5.224 131.259  0.00  0.00    +0.046 C 
ATOM      2  C   LIG A   1      -4.926  -3.818 130.788  0.00  0.00    +0.089 C 
ATOM      3  C   LIG A   1      -6.215  -2.936 130.550  0.00  0.00    +0.081 C 
ATOM      4  C   LIG A   1      -6.444  -1.697 131.538  0.00  0.00    +0.043 C 
ATOM      5  C   LIG A   1      -7.835  -1.936 132.230  0.00  0.00    +0.020 C 
ATOM      6  C   LIG A   1      -6.525  -0.247 130.826  0.00  0.00    +0.026 C 
ATOM      7  C   LIG A   1      -5.813  -0.076 129.437  0.00  0.00    +0.025 C 
ATOM      8  C   LIG A   1      -6.564   0.565 128.285  0.00  0.00    -0.033 C 
ATOM      9  C   LIG A   1      -7.418   1.553 127.972  0.00  0.00    -0.063 C 
ATOM     10  C   LIG A   1      -8.442   2.257 128.779  0.00  0.00    +0.040 C 
ATOM     11  C   LIG A   1      -7.043   2.052 126.561  0.00  0.00    +0.051 C 
ATOM     12  C   LIG A   1      -5.874   1.105 126.169  0.00  0.00    +0.048 C 
ATOM     13  C   LIG A   1      -6.191  -0.117 127.008  0.00  0.00    +0.146 C 
ATOM     14  O   LIG A   1      -5.201  -1.058 127.348  0.00  0.00    -0.364 OA
ATOM     15  C   LIG A   1      -4.480   0.725 129.528  0.00  0.00    +0.019 C 
ATOM     16  C   LIG A   1      -5.418  -1.389 128.751  0.00  0.00    +0.170 C 
ATOM     17  C   LIG A   1      -6.375  -2.558 129.046  0.00  0.00    +0.213 C 
ATOM     18  C   LIG A   1      -3.921  -3.269 131.740  0.00  0.00    +0.011 C 
ATOM     19  C   LIG A   1      -4.160  -2.318 132.638  0.00  0.00    +0.045 C 
ATOM     20  C   LIG A   1      -5.494  -1.713 132.747  0.00  0.00    +0.163 C 
ATOM     21  O   LIG A   1      -5.800  -1.213 133.832  0.00  0.00    -0.292 OA
ENDROOT
BRANCH  11  22
ATOM     22  C   LIG A   1      -8.116   2.098 125.526  0.00  0.00    -0.003 A 
ATOM     23  C   LIG A   1      -8.179   3.010 124.484  0.00  0.00    +0.199 A 
ATOM     24  O   LIG A   1      -9.244   2.764 123.684  0.00  0.00    -0.471 OA
ATOM     25  C   LIG A   1      -9.879   1.684 124.202  0.00  0.00    +0.195 A 
ATOM     26  C   LIG A   1      -9.229   1.239 125.330  0.00  0.00    +0.045 A 
ENDBRANCH  11  22
BRANCH   2  27
ATOM     27  O   LIG A   1      -4.224  -4.005 129.560  0.00  0.00    -0.384 OA
ATOM     28  H   LIG A   1      -3.289  -3.764 129.674  0.00  0.00    +0.211 HD
ENDBRANCH   2  27
BRANCH   6  29
ATOM     29  C   LIG A   1      -6.337   1.005 131.781  0.00  0.00    +0.126 C 
BRANCH  29  30
ATOM     30  C   LIG A   1      -7.595   1.763 132.247  0.00  0.00    +0.307 C 
ATOM     31  O   LIG A   1      -8.589   1.301 132.753  0.00  0.00    -0.251 OA
BRANCH  30  32
ATOM     32  O   LIG A   1      -7.384   3.113 132.034  0.00  0.00    -0.468 OA
ATOM     33  C   LIG A   1      -6.053   3.449 131.604  0.00  0.00    +0.280 C 
ENDBRANCH  30  32
ENDBRANCH  29  30
ENDBRANCH   6  29
BRANCH  17  34
ATOM     34  O   LIG A   1      -7.791  -2.309 128.832  0.00  0.00    -0.459 OA
BRANCH  34  35
ATOM     35  C   LIG A   1      -8.382  -3.147 127.929  0.00  0.00    +0.304 C 
ATOM     36  C   LIG A   1      -8.608  -2.444 126.597  0.00  0.00    +0.136 C 
ATOM     37  O   LIG A   1      -8.744  -4.275 128.125  0.00  0.00    -0.251 OA
ENDBRANCH  34  35
ENDBRANCH  17  34
TORSDOF 7
ENDMDL
MODEL 8
REMARK VINA RESULT:      -7.0      3.510      7.301
REMARK  Name = NuBBE_1291
REMARK  13 active torsions:
REMARK  status: ('A' for Active; 'I' for Inactive)
REMARK    1  A    between atoms: C_1  and  C_2
REMARK    2  A    between atoms: C_2  and  O_36
REMARK    3  A    between atoms: C_4  and  C_5
REMARK    4  A    between atoms: C_6  and  C_8
REMARK    5  A    between atoms: C_8  and  C_9
REMARK    6  A    between atoms: C_9  and  O_10
REMARK    7  A    between atoms: O_10  and  C_11
REMARK    8  A    between atoms: C_13  and  C_27
REMARK    9  A    between atoms: C_15  and  C_16
REMARK   10  A    between atoms: C_17  and  C_19
REMARK   11  A    between atoms: C_30  and  O_32
REMARK   12  A    between atoms: O_32  and  C_33
REMARK   13  A    between atoms: C_33  and  C_34
REMARK                            x       y       z     vdW  Elec       q    Type
REMARK                         _______ _______ _______ _____ _____    ______ ____
ROOT
ATOM      1  C   LIG A   1      -2.701   6.618 130.664  0.00  0.00    +0.046 C 
ATOM      2  C   LIG A   1      -4.143   6.227 130.304  0.00  0.00    +0.089 C 
ATOM      3  C   LIG A   1      -4.244   4.665 130.094  0.00  0.00    +0.081 C 
ATOM      4  C   LIG A   1      -5.107   3.840 131.159  0.00  0.00    +0.043 C 
ATOM      5  C   LIG A   1      -4.132   2.783 131.795  0.00  0.00    +0.020 C 
ATOM      6  C   LIG A   1      -6.354   3.008 130.549  0.00  0.00    +0.026 C 
ATOM      7  C   LIG A   1      -6.971   3.510 129.196  0.00  0.00    +0.025 C 
ATOM      8  C   LIG A   1      -7.213   2.520 128.072  0.00  0.00    -0.033 C 
ATOM      9  C   LIG A   1      -7.636   1.273 127.805  0.00  0.00    -0.063 C 
ATOM     10  C   LIG A   1      -7.645   0.043 128.632  0.00  0.00    +0.040 C 
ATOM     11  C   LIG A   1      -8.360   1.316 126.444  0.00  0.00    +0.051 C 
ATOM     12  C   LIG A   1      -8.188   2.801 126.018  0.00  0.00    +0.048 C 
ATOM     13  C   LIG A   1      -6.920   3.176 126.760  0.00  0.00    +0.146 C 
ATOM     14  O   LIG A   1      -6.606   4.515 127.060  0.00  0.00    -0.364 OA
ATOM     15  C   LIG A   1      -8.338   4.235 129.379  0.00  0.00    +0.019 C 
ATOM     16  C   LIG A   1      -6.108   4.519 128.430  0.00  0.00    +0.170 C 
ATOM     17  C   LIG A   1      -4.594   4.312 128.616  0.00  0.00    +0.213 C 
ATOM     18  C   LIG A   1      -5.061   6.815 131.319  0.00  0.00    +0.011 C 
ATOM     19  C   LIG A   1      -5.681   6.128 132.275  0.00  0.00    +0.045 C 
ATOM     20  C   LIG A   1      -5.497   4.676 132.390  0.00  0.00    +0.163 C 
ATOM     21  O   LIG A   1      -5.683   4.169 133.498  0.00  0.00    -0.292 OA
ENDROOT
BRANCH  11  22
ATOM     22  C   LIG A   1      -7.920   0.362 125.385  0.00  0.00    -0.003 A 
ATOM     23  C   LIG A   1      -8.765  -0.316 124.522  0.00  0.00    +0.199 A 
ATOM     24  O   LIG A   1      -8.063  -1.071 123.643  0.00  0.00    -0.471 OA
ATOM     25  C   LIG A   1      -6.752  -0.883 123.930  0.00  0.00    +0.195 A 
ATOM     26  C   LIG A   1      -6.609  -0.017 124.989  0.00  0.00    +0.045 A 
ENDBRANCH  11  22
BRANCH   2  27
ATOM     27  O   LIG A   1      -4.439   6.909 129.085  0.00  0.00    -0.384 OA
ATOM     28  H   LIG A   1      -4.314   6.307 128.332  0.00  0.00    +0.211 HD
ENDBRANCH   2  27
BRANCH   6  29
ATOM     29  C   LIG A   1      -7.446   2.532 131.595  0.00  0.00    +0.126 C 
BRANCH  29  30
ATOM     30  C   LIG A   1      -7.468   1.046 132.004  0.00  0.00    +0.307 C 
ATOM     31  O   LIG A   1      -6.521   0.321 132.194  0.00  0.00    -0.251 OA
BRANCH  30  32
ATOM     32  O   LIG A   1      -8.787   0.668 132.173  0.00  0.00    -0.468 OA
ATOM     33  C   LIG A   1      -9.745   1.711 131.919  0.00  0.00    +0.280 C 
ENDBRANCH  30  32
ENDBRANCH  29  30
ENDBRANCH   6  29
BRANCH  17  34
ATOM     34  O   LIG A   1      -4.088   2.970 128.382  0.00  0.00    -0.459 OA
BRANCH  34  35
ATOM     35  C   LIG A   1      -3.417   2.817 127.201  0.00  0.00    +0.304 C 
ATOM     36  C   LIG A   1      -2.207   3.740 127.137  0.00  0.00    +0.136 C 
ATOM     37  O   LIG A   1      -3.728   2.107 126.284  0.00  0.00    -0.251 OA
ENDBRANCH  34  35
ENDBRANCH  17  34
TORSDOF 7
ENDMDL
MODEL 9
REMARK VINA RESULT:      -6.9      3.338      6.687
REMARK  Name = NuBBE_1291
REMARK  13 active torsions:
REMARK  status: ('A' for Active; 'I' for Inactive)
REMARK    1  A    between atoms: C_1  and  C_2
REMARK    2  A    between atoms: C_2  and  O_36
REMARK    3  A    between atoms: C_4  and  C_5
REMARK    4  A    between atoms: C_6  and  C_8
REMARK    5  A    between atoms: C_8  and  C_9
REMARK    6  A    between atoms: C_9  and  O_10
REMARK    7  A    between atoms: O_10  and  C_11
REMARK    8  A    between atoms: C_13  and  C_27
REMARK    9  A    between atoms: C_15  and  C_16
REMARK   10  A    between atoms: C_17  and  C_19
REMARK   11  A    between atoms: C_30  and  O_32
REMARK   12  A    between atoms: O_32  and  C_33
REMARK   13  A    between atoms: C_33  and  C_34
REMARK                            x       y       z     vdW  Elec       q    Type
REMARK                         _______ _______ _______ _____ _____    ______ ____
ROOT
ATOM      1  C   LIG A   1      -9.760   6.147 128.678  0.00  0.00    +0.046 C 
ATOM      2  C   LIG A   1      -9.434   5.299 129.919  0.00  0.00    +0.089 C 
ATOM      3  C   LIG A   1      -8.210   4.346 129.618  0.00  0.00    +0.081 C 
ATOM      4  C   LIG A   1      -6.850   4.633 130.410  0.00  0.00    +0.043 C 
ATOM      5  C   LIG A   1      -5.751   4.901 129.319  0.00  0.00    +0.020 C 
ATOM      6  C   LIG A   1      -6.307   3.412 131.322  0.00  0.00    +0.026 C 
ATOM      7  C   LIG A   1      -7.356   2.362 131.834  0.00  0.00    +0.025 C 
ATOM      8  C   LIG A   1      -7.074   0.881 131.668  0.00  0.00    -0.033 C 
ATOM      9  C   LIG A   1      -6.105  -0.047 131.741  0.00  0.00    -0.063 C 
ATOM     10  C   LIG A   1      -4.636   0.055 131.584  0.00  0.00    +0.040 C 
ATOM     11  C   LIG A   1      -6.758  -1.351 132.246  0.00  0.00    +0.051 C 
ATOM     12  C   LIG A   1      -8.256  -0.953 132.367  0.00  0.00    +0.048 C 
ATOM     13  C   LIG A   1      -8.347   0.165 131.347  0.00  0.00    +0.146 C 
ATOM     14  O   LIG A   1      -9.362   1.139 131.404  0.00  0.00    -0.364 OA
ATOM     15  C   LIG A   1      -7.700   2.527 133.345  0.00  0.00    +0.019 C 
ATOM     16  C   LIG A   1      -8.716   2.417 131.129  0.00  0.00    +0.170 C 
ATOM     17  C   LIG A   1      -8.637   2.847 129.653  0.00  0.00    +0.213 C 
ATOM     18  C   LIG A   1      -9.286   6.209 131.089  0.00  0.00    +0.011 C 
ATOM     19  C   LIG A   1      -8.131   6.531 131.665  0.00  0.00    +0.045 C 
ATOM     20  C   LIG A   1      -6.867   5.975 131.163  0.00  0.00    +0.163 C 
ATOM     21  O   LIG A   1      -5.839   6.617 131.387  0.00  0.00    -0.292 OA
ENDROOT
BRANCH  11  22
ATOM     22  C   LIG A   1      -6.558  -2.591 131.443  0.00  0.00    -0.003 A 
ATOM     23  C   LIG A   1      -7.256  -2.915 130.290  0.00  0.00    +0.199 A 
ATOM     24  O   LIG A   1      -6.813  -4.082 129.763  0.00  0.00    -0.471 OA
ATOM     25  C   LIG A   1      -5.819  -4.522 130.573  0.00  0.00    +0.195 A 
ATOM     26  C   LIG A   1      -5.624  -3.647 131.616  0.00  0.00    +0.045 A 
ENDBRANCH  11  22
BRANCH   2  27
ATOM     27  O   LIG A   1     -10.606   4.529 130.183  0.00  0.00    -0.384 OA
ATOM     28  H   LIG A   1     -11.370   4.926 129.732  0.00  0.00    +0.211 HD
ENDBRANCH   2  27
BRANCH   6  29
ATOM     29  C   LIG A   1      -5.223   3.793 132.415  0.00  0.00    +0.126 C 
BRANCH  29  30
ATOM     30  C   LIG A   1      -3.735   3.592 132.068  0.00  0.00    +0.307 C 
ATOM     31  O   LIG A   1      -3.120   4.080 131.151  0.00  0.00    -0.251 OA
BRANCH  30  32
ATOM     32  O   LIG A   1      -3.178   2.775 133.034  0.00  0.00    -0.468 OA
ATOM     33  C   LIG A   1      -3.903   2.737 134.276  0.00  0.00    +0.280 C 
ENDBRANCH  30  32
ENDBRANCH  29  30
ENDBRANCH   6  29
BRANCH  17  34
ATOM     34  O   LIG A   1      -7.688   2.130 128.817  0.00  0.00    -0.459 OA
BRANCH  34  35
ATOM     35  C   LIG A   1      -8.263   1.355 127.848  0.00  0.00    +0.304 C 
ATOM     36  C   LIG A   1      -7.681  -0.052 127.857  0.00  0.00    +0.136 C 
ATOM     37  O   LIG A   1      -9.078   1.705 127.039  0.00  0.00    -0.251 OA
ENDBRANCH  34  35
ENDBRANCH  17  34
TORSDOF 7
ENDMDL
