MODEL 1
REMARK VINA RESULT:      -9.2      0.000      0.000
REMARK  Name = NuBBE_191
REMARK  10 active torsions:
REMARK  status: ('A' for Active; 'I' for Inactive)
REMARK    1  A    between atoms: C_1  and  C_2
REMARK    2  A    between atoms: C_2  and  C_38
REMARK    3  A    between atoms: C_3  and  O_37
REMARK    4  A    between atoms: C_7  and  C_36
REMARK    5  A    between atoms: C_11  and  C_35
REMARK    6  A    between atoms: C_17  and  C_34
REMARK    7  A    between atoms: C_20  and  C_31
REMARK    8  A    between atoms: C_23  and  C_30
REMARK    9  A    between atoms: C_25  and  C_29
REMARK   10  A    between atoms: C_31  and  O_32
REMARK                            x       y       z     vdW  Elec       q    Type
REMARK                         _______ _______ _______ _____ _____    ______ ____
ROOT
ATOM      1  C   LIG A   1      -9.197  -1.347 122.855  0.00  0.00    +0.014 C 
ATOM      2  C   LIG A   1      -7.843  -1.478 123.581  0.00  0.00    -0.006 C 
ATOM      3  C   LIG A   1      -7.885  -2.681 124.571  0.00  0.00    +0.120 C 
ATOM      4  C   LIG A   1      -8.702  -2.401 125.833  0.00  0.00    +0.032 C 
ATOM      5  C   LIG A   1      -8.262  -1.124 126.558  0.00  0.00    +0.010 C 
ATOM      6  C   LIG A   1      -8.239   0.154 125.663  0.00  0.00    -0.025 C 
ATOM      7  C   LIG A   1      -7.409  -0.187 124.370  0.00  0.00    +0.003 C 
ATOM      8  C   LIG A   1      -7.213   1.069 123.502  0.00  0.00    +0.005 C 
ATOM      9  C   LIG A   1      -6.387   2.109 124.261  0.00  0.00    +0.008 C 
ATOM     10  C   LIG A   1      -6.997   2.565 125.616  0.00  0.00    -0.019 C 
ATOM     11  C   LIG A   1      -7.459   1.308 126.443  0.00  0.00    +0.006 C 
ATOM     12  C   LIG A   1      -8.135   1.767 127.749  0.00  0.00    +0.031 C 
ATOM     13  C   LIG A   1      -7.363   2.826 128.476  0.00  0.00    -0.026 C 
ATOM     14  C   LIG A   1      -6.358   3.567 127.976  0.00  0.00    -0.063 C 
ATOM     15  C   LIG A   1      -5.909   3.410 126.501  0.00  0.00    -0.005 C 
ATOM     16  C   LIG A   1      -4.519   2.697 126.606  0.00  0.00    +0.012 C 
ATOM     17  C   LIG A   1      -3.513   3.352 127.578  0.00  0.00    +0.019 C 
ATOM     18  C   LIG A   1      -4.059   3.640 129.019  0.00  0.00    +0.074 C 
ATOM     19  C   LIG A   1      -5.417   4.413 128.855  0.00  0.00    +0.035 C 
ATOM     20  C   LIG A   1      -5.932   5.245 130.089  0.00  0.00    -0.003 C 
ATOM     21  C   LIG A   1      -4.776   6.081 130.712  0.00  0.00    -0.011 C 
ATOM     22  C   LIG A   1      -3.559   5.198 131.008  0.00  0.00    +0.004 C 
ATOM     23  C   LIG A   1      -3.013   4.510 129.763  0.00  0.00    +0.019 C 
ATOM     24  C   LIG A   1      -4.402   7.297 129.852  0.00  0.00    +0.008 C 
ATOM     25  C   LIG A   1      -6.672   4.533 131.227  0.00  0.00    +0.008 C 
ATOM     26  C   LIG A   1      -5.695   4.798 125.824  0.00  0.00    +0.016 C 
ATOM     27  C   LIG A   1      -8.209   3.489 125.287  0.00  0.00    +0.012 C 
ATOM     28  C   LIG A   1      -9.709   0.539 125.365  0.00  0.00    +0.012 C 
ATOM     29  C   LIG A   1      -6.799  -1.787 122.472  0.00  0.00    +0.014 C 
ENDROOT
BRANCH  18  30
ATOM     30  C   LIG A   1      -4.206   2.307 129.790  0.00  0.00    +0.311 C 
ATOM     31  O   LIG A   1      -4.628   2.182 130.931  0.00  0.00    -0.250 OA
BRANCH  30  32
ATOM     32  O   LIG A   1      -3.763   1.212 129.124  0.00  0.00    -0.480 OA
ATOM     33  H   LIG A   1      -2.942   1.326 128.614  0.00  0.00    +0.295 HD
ENDBRANCH  30  32
ENDBRANCH  18  30
BRANCH   3  34
ATOM     34  O   LIG A   1      -6.565  -3.028 125.006  0.00  0.00    -0.391 OA
ATOM     35  H   LIG A   1      -6.581  -3.100 125.974  0.00  0.00    +0.210 HD
ENDBRANCH   3  34
TORSDOF 3
ENDMDL
MODEL 2
REMARK VINA RESULT:      -9.1      2.368      7.771
REMARK  Name = NuBBE_191
REMARK  10 active torsions:
REMARK  status: ('A' for Active; 'I' for Inactive)
REMARK    1  A    between atoms: C_1  and  C_2
REMARK    2  A    between atoms: C_2  and  C_38
REMARK    3  A    between atoms: C_3  and  O_37
REMARK    4  A    between atoms: C_7  and  C_36
REMARK    5  A    between atoms: C_11  and  C_35
REMARK    6  A    between atoms: C_17  and  C_34
REMARK    7  A    between atoms: C_20  and  C_31
REMARK    8  A    between atoms: C_23  and  C_30
REMARK    9  A    between atoms: C_25  and  C_29
REMARK   10  A    between atoms: C_31  and  O_32
REMARK                            x       y       z     vdW  Elec       q    Type
REMARK                         _______ _______ _______ _____ _____    ______ ____
ROOT
ATOM      1  C   LIG A   1      -6.762   5.737 132.703  0.00  0.00    +0.014 C 
ATOM      2  C   LIG A   1      -7.428   5.935 131.327  0.00  0.00    -0.006 C 
ATOM      3  C   LIG A   1      -8.973   6.039 131.495  0.00  0.00    +0.120 C 
ATOM      4  C   LIG A   1      -9.645   4.698 131.791  0.00  0.00    +0.032 C 
ATOM      5  C   LIG A   1      -9.287   3.612 130.770  0.00  0.00    +0.010 C 
ATOM      6  C   LIG A   1      -7.755   3.391 130.568  0.00  0.00    -0.025 C 
ATOM      7  C   LIG A   1      -7.105   4.797 130.289  0.00  0.00    +0.003 C 
ATOM      8  C   LIG A   1      -5.616   4.647 129.931  0.00  0.00    +0.005 C 
ATOM      9  C   LIG A   1      -5.465   3.856 128.631  0.00  0.00    +0.008 C 
ATOM     10  C   LIG A   1      -6.087   2.432 128.657  0.00  0.00    -0.019 C 
ATOM     11  C   LIG A   1      -7.537   2.495 129.265  0.00  0.00    +0.006 C 
ATOM     12  C   LIG A   1      -8.120   1.072 129.363  0.00  0.00    +0.031 C 
ATOM     13  C   LIG A   1      -7.930   0.266 128.114  0.00  0.00    -0.026 C 
ATOM     14  C   LIG A   1      -7.096   0.552 127.097  0.00  0.00    -0.063 C 
ATOM     15  C   LIG A   1      -6.172   1.796 127.151  0.00  0.00    -0.005 C 
ATOM     16  C   LIG A   1      -6.803   2.776 126.106  0.00  0.00    +0.012 C 
ATOM     17  C   LIG A   1      -7.081   2.169 124.713  0.00  0.00    +0.019 C 
ATOM     18  C   LIG A   1      -7.884   0.823 124.714  0.00  0.00    +0.074 C 
ATOM     19  C   LIG A   1      -7.171  -0.145 125.725  0.00  0.00    +0.035 C 
ATOM     20  C   LIG A   1      -7.448  -1.687 125.574  0.00  0.00    -0.003 C 
ATOM     21  C   LIG A   1      -7.356  -2.119 124.081  0.00  0.00    -0.011 C 
ATOM     22  C   LIG A   1      -8.235  -1.229 123.197  0.00  0.00    +0.004 C 
ATOM     23  C   LIG A   1      -7.851   0.244 123.275  0.00  0.00    +0.019 C 
ATOM     24  C   LIG A   1      -5.907  -2.173 123.574  0.00  0.00    +0.008 C 
ATOM     25  C   LIG A   1      -8.727  -2.289 126.165  0.00  0.00    +0.008 C 
ATOM     26  C   LIG A   1      -4.728   1.446 126.681  0.00  0.00    +0.016 C 
ATOM     27  C   LIG A   1      -5.156   1.538 129.532  0.00  0.00    +0.012 C 
ATOM     28  C   LIG A   1      -7.213   2.708 131.847  0.00  0.00    +0.012 C 
ATOM     29  C   LIG A   1      -6.896   7.294 130.794  0.00  0.00    +0.014 C 
ENDROOT
BRANCH  18  30
ATOM     30  C   LIG A   1      -9.361   1.105 125.079  0.00  0.00    +0.311 C 
ATOM     31  O   LIG A   1     -10.147   0.301 125.559  0.00  0.00    -0.250 OA
BRANCH  30  32
ATOM     32  O   LIG A   1      -9.796   2.352 124.769  0.00  0.00    -0.480 OA
ATOM     33  H   LIG A   1      -9.881   2.971 125.514  0.00  0.00    +0.295 HD
ENDBRANCH  30  32
ENDBRANCH  18  30
BRANCH   3  34
ATOM     34  O   LIG A   1      -9.581   6.546 130.301  0.00  0.00    -0.391 OA
ATOM     35  H   LIG A   1      -9.905   7.442 130.490  0.00  0.00    +0.210 HD
ENDBRANCH   3  34
TORSDOF 3
ENDMDL
MODEL 3
REMARK VINA RESULT:      -9.1      2.440      3.501
REMARK  Name = NuBBE_191
REMARK  10 active torsions:
REMARK  status: ('A' for Active; 'I' for Inactive)
REMARK    1  A    between atoms: C_1  and  C_2
REMARK    2  A    between atoms: C_2  and  C_38
REMARK    3  A    between atoms: C_3  and  O_37
REMARK    4  A    between atoms: C_7  and  C_36
REMARK    5  A    between atoms: C_11  and  C_35
REMARK    6  A    between atoms: C_17  and  C_34
REMARK    7  A    between atoms: C_20  and  C_31
REMARK    8  A    between atoms: C_23  and  C_30
REMARK    9  A    between atoms: C_25  and  C_29
REMARK   10  A    between atoms: C_31  and  O_32
REMARK                            x       y       z     vdW  Elec       q    Type
REMARK                         _______ _______ _______ _____ _____    ______ ____
ROOT
ATOM      1  C   LIG A   1      -6.528  -1.950 122.541  0.00  0.00    +0.014 C 
ATOM      2  C   LIG A   1      -6.628  -2.558 123.954  0.00  0.00    -0.006 C 
ATOM      3  C   LIG A   1      -7.945  -3.379 124.087  0.00  0.00    +0.120 C 
ATOM      4  C   LIG A   1      -9.195  -2.508 124.213  0.00  0.00    +0.032 C 
ATOM      5  C   LIG A   1      -9.091  -1.474 125.340  0.00  0.00    +0.010 C 
ATOM      6  C   LIG A   1      -7.828  -0.561 125.267  0.00  0.00    -0.025 C 
ATOM      7  C   LIG A   1      -6.573  -1.497 125.116  0.00  0.00    +0.003 C 
ATOM      8  C   LIG A   1      -5.271  -0.678 125.186  0.00  0.00    +0.005 C 
ATOM      9  C   LIG A   1      -5.136  -0.024 126.561  0.00  0.00    +0.008 C 
ATOM     10  C   LIG A   1      -6.306   0.920 126.954  0.00  0.00    -0.019 C 
ATOM     11  C   LIG A   1      -7.682   0.217 126.654  0.00  0.00    +0.006 C 
ATOM     12  C   LIG A   1      -8.838   1.185 126.969  0.00  0.00    +0.031 C 
ATOM     13  C   LIG A   1      -8.690   1.875 128.291  0.00  0.00    -0.026 C 
ATOM     14  C   LIG A   1      -7.572   1.942 129.037  0.00  0.00    -0.063 C 
ATOM     15  C   LIG A   1      -6.246   1.307 128.544  0.00  0.00    -0.005 C 
ATOM     16  C   LIG A   1      -6.060   0.061 129.473  0.00  0.00    +0.012 C 
ATOM     17  C   LIG A   1      -6.182   0.340 130.986  0.00  0.00    +0.019 C 
ATOM     18  C   LIG A   1      -7.466   1.126 131.424  0.00  0.00    +0.074 C 
ATOM     19  C   LIG A   1      -7.567   2.399 130.508  0.00  0.00    +0.035 C 
ATOM     20  C   LIG A   1      -8.447   3.598 131.025  0.00  0.00    -0.003 C 
ATOM     21  C   LIG A   1      -8.149   3.895 132.524  0.00  0.00    -0.011 C 
ATOM     22  C   LIG A   1      -8.259   2.620 133.367  0.00  0.00    +0.004 C 
ATOM     23  C   LIG A   1      -7.298   1.527 132.913  0.00  0.00    +0.019 C 
ATOM     24  C   LIG A   1      -6.798   4.597 132.725  0.00  0.00    +0.008 C 
ATOM     25  C   LIG A   1      -9.967   3.556 130.841  0.00  0.00    +0.008 C 
ATOM     26  C   LIG A   1      -5.041   2.269 128.772  0.00  0.00    +0.016 C 
ATOM     27  C   LIG A   1      -6.151   2.221 126.110  0.00  0.00    +0.012 C 
ATOM     28  C   LIG A   1      -8.022   0.404 124.072  0.00  0.00    +0.012 C 
ATOM     29  C   LIG A   1      -5.424  -3.532 124.079  0.00  0.00    +0.014 C 
ENDROOT
BRANCH  18  30
ATOM     30  C   LIG A   1      -8.700   0.199 131.317  0.00  0.00    +0.311 C 
ATOM     31  O   LIG A   1      -9.810   0.429 131.774  0.00  0.00    -0.250 OA
BRANCH  30  32
ATOM     32  O   LIG A   1      -8.468  -0.987 130.703  0.00  0.00    -0.480 OA
ATOM     33  H   LIG A   1      -7.535  -1.213 130.548  0.00  0.00    +0.295 HD
ENDBRANCH  30  32
ENDBRANCH  18  30
BRANCH   3  34
ATOM     34  O   LIG A   1      -7.909  -4.215 125.250  0.00  0.00    -0.391 OA
ATOM     35  H   LIG A   1      -7.611  -5.097 124.973  0.00  0.00    +0.210 HD
ENDBRANCH   3  34
TORSDOF 3
ENDMDL
MODEL 4
REMARK VINA RESULT:      -8.9      2.714      4.540
REMARK  Name = NuBBE_191
REMARK  10 active torsions:
REMARK  status: ('A' for Active; 'I' for Inactive)
REMARK    1  A    between atoms: C_1  and  C_2
REMARK    2  A    between atoms: C_2  and  C_38
REMARK    3  A    between atoms: C_3  and  O_37
REMARK    4  A    between atoms: C_7  and  C_36
REMARK    5  A    between atoms: C_11  and  C_35
REMARK    6  A    between atoms: C_17  and  C_34
REMARK    7  A    between atoms: C_20  and  C_31
REMARK    8  A    between atoms: C_23  and  C_30
REMARK    9  A    between atoms: C_25  and  C_29
REMARK   10  A    between atoms: C_31  and  O_32
REMARK                            x       y       z     vdW  Elec       q    Type
REMARK                         _______ _______ _______ _____ _____    ______ ____
ROOT
ATOM      1  C   LIG A   1      -7.017  -0.064 123.230  0.00  0.00    +0.014 C 
ATOM      2  C   LIG A   1      -8.233   0.025 124.172  0.00  0.00    -0.006 C 
ATOM      3  C   LIG A   1      -9.295   1.000 123.579  0.00  0.00    +0.120 C 
ATOM      4  C   LIG A   1      -8.904   2.472 123.703  0.00  0.00    +0.032 C 
ATOM      5  C   LIG A   1      -8.546   2.877 125.138  0.00  0.00    +0.010 C 
ATOM      6  C   LIG A   1      -7.447   1.992 125.805  0.00  0.00    -0.025 C 
ATOM      7  C   LIG A   1      -7.880   0.489 125.634  0.00  0.00    +0.003 C 
ATOM      8  C   LIG A   1      -6.922  -0.444 126.398  0.00  0.00    +0.005 C 
ATOM      9  C   LIG A   1      -6.997  -0.160 127.898  0.00  0.00    +0.008 C 
ATOM     10  C   LIG A   1      -6.655   1.300 128.305  0.00  0.00    -0.019 C 
ATOM     11  C   LIG A   1      -7.421   2.308 127.370  0.00  0.00    +0.006 C 
ATOM     12  C   LIG A   1      -7.017   3.752 127.724  0.00  0.00    +0.031 C 
ATOM     13  C   LIG A   1      -7.034   4.029 129.197  0.00  0.00    -0.026 C 
ATOM     14  C   LIG A   1      -7.079   3.113 130.182  0.00  0.00    -0.063 C 
ATOM     15  C   LIG A   1      -7.076   1.596 129.860  0.00  0.00    -0.005 C 
ATOM     16  C   LIG A   1      -8.534   1.139 130.197  0.00  0.00    +0.012 C 
ATOM     17  C   LIG A   1      -9.053   1.558 131.590  0.00  0.00    +0.019 C 
ATOM     18  C   LIG A   1      -8.891   3.078 131.939  0.00  0.00    +0.074 C 
ATOM     19  C   LIG A   1      -7.397   3.466 131.647  0.00  0.00    +0.035 C 
ATOM     20  C   LIG A   1      -6.832   4.758 132.348  0.00  0.00    -0.003 C 
ATOM     21  C   LIG A   1      -7.231   4.789 133.852  0.00  0.00    -0.011 C 
ATOM     22  C   LIG A   1      -8.740   4.586 134.022  0.00  0.00    +0.004 C 
ATOM     23  C   LIG A   1      -9.227   3.263 133.442  0.00  0.00    +0.019 C 
ATOM     24  C   LIG A   1      -6.424   3.791 134.694  0.00  0.00    +0.008 C 
ATOM     25  C   LIG A   1      -7.128   6.136 131.748  0.00  0.00    +0.008 C 
ATOM     26  C   LIG A   1      -6.094   0.824 130.792  0.00  0.00    +0.016 C 
ATOM     27  C   LIG A   1      -5.112   1.470 128.158  0.00  0.00    +0.012 C 
ATOM     28  C   LIG A   1      -6.101   2.326 125.117  0.00  0.00    +0.012 C 
ATOM     29  C   LIG A   1      -8.842  -1.404 124.211  0.00  0.00    +0.014 C 
ENDROOT
BRANCH  18  30
ATOM     30  C   LIG A   1      -9.908   3.906 131.118  0.00  0.00    +0.311 C 
ATOM     31  O   LIG A   1      -9.770   5.070 130.772  0.00  0.00    -0.250 OA
BRANCH  30  32
ATOM     32  O   LIG A   1     -11.064   3.260 130.827  0.00  0.00    -0.480 OA
ATOM     33  H   LIG A   1     -11.370   2.615 131.486  0.00  0.00    +0.295 HD
ENDBRANCH  30  32
ENDBRANCH  18  30
BRANCH   3  34
ATOM     34  O   LIG A   1     -10.552   0.851 124.250  0.00  0.00    -0.391 OA
ATOM     35  H   LIG A   1     -10.415   1.063 125.188  0.00  0.00    +0.210 HD
ENDBRANCH   3  34
TORSDOF 3
ENDMDL
MODEL 5
REMARK VINA RESULT:      -8.6      2.673      8.174
REMARK  Name = NuBBE_191
REMARK  10 active torsions:
REMARK  status: ('A' for Active; 'I' for Inactive)
REMARK    1  A    between atoms: C_1  and  C_2
REMARK    2  A    between atoms: C_2  and  C_38
REMARK    3  A    between atoms: C_3  and  O_37
REMARK    4  A    between atoms: C_7  and  C_36
REMARK    5  A    between atoms: C_11  and  C_35
REMARK    6  A    between atoms: C_17  and  C_34
REMARK    7  A    between atoms: C_20  and  C_31
REMARK    8  A    between atoms: C_23  and  C_30
REMARK    9  A    between atoms: C_25  and  C_29
REMARK   10  A    between atoms: C_31  and  O_32
REMARK                            x       y       z     vdW  Elec       q    Type
REMARK                         _______ _______ _______ _____ _____    ______ ____
ROOT
ATOM      1  C   LIG A   1      -7.682   4.847 134.805  0.00  0.00    +0.014 C 
ATOM      2  C   LIG A   1      -6.502   4.496 133.877  0.00  0.00    -0.006 C 
ATOM      3  C   LIG A   1      -6.051   5.763 133.090  0.00  0.00    +0.120 C 
ATOM      4  C   LIG A   1      -7.010   6.156 131.967  0.00  0.00    +0.032 C 
ATOM      5  C   LIG A   1      -7.304   5.001 131.002  0.00  0.00    +0.010 C 
ATOM      6  C   LIG A   1      -7.817   3.697 131.689  0.00  0.00    -0.025 C 
ATOM      7  C   LIG A   1      -6.814   3.346 132.849  0.00  0.00    +0.003 C 
ATOM      8  C   LIG A   1      -7.168   1.988 133.482  0.00  0.00    +0.005 C 
ATOM      9  C   LIG A   1      -7.014   0.871 132.449  0.00  0.00    +0.008 C 
ATOM     10  C   LIG A   1      -7.886   1.035 131.174  0.00  0.00    -0.019 C 
ATOM     11  C   LIG A   1      -7.760   2.506 130.628  0.00  0.00    +0.006 C 
ATOM     12  C   LIG A   1      -8.687   2.688 129.411  0.00  0.00    +0.031 C 
ATOM     13  C   LIG A   1      -8.587   1.572 128.416  0.00  0.00    -0.026 C 
ATOM     14  C   LIG A   1      -8.020   0.368 128.619  0.00  0.00    -0.063 C 
ATOM     15  C   LIG A   1      -7.421  -0.007 130.000  0.00  0.00    -0.005 C 
ATOM     16  C   LIG A   1      -5.875   0.000 129.751  0.00  0.00    +0.012 C 
ATOM     17  C   LIG A   1      -5.398  -0.821 128.533  0.00  0.00    +0.019 C 
ATOM     18  C   LIG A   1      -6.142  -0.522 127.186  0.00  0.00    +0.074 C 
ATOM     19  C   LIG A   1      -7.684  -0.608 127.477  0.00  0.00    +0.035 C 
ATOM     20  C   LIG A   1      -8.643  -0.837 126.250  0.00  0.00    -0.003 C 
ATOM     21  C   LIG A   1      -8.090  -1.957 125.319  0.00  0.00    -0.011 C 
ATOM     22  C   LIG A   1      -6.631  -1.684 124.940  0.00  0.00    +0.004 C 
ATOM     23  C   LIG A   1      -5.712  -1.596 126.153  0.00  0.00    +0.019 C 
ATOM     24  C   LIG A   1      -8.271  -3.359 125.919  0.00  0.00    +0.008 C 
ATOM     25  C   LIG A   1      -9.048   0.353 125.373  0.00  0.00    +0.008 C 
ATOM     26  C   LIG A   1      -7.840  -1.447 130.424  0.00  0.00    +0.016 C 
ATOM     27  C   LIG A   1      -9.358   0.718 131.578  0.00  0.00    +0.012 C 
ATOM     28  C   LIG A   1      -9.258   3.971 132.186  0.00  0.00    +0.012 C 
ATOM     29  C   LIG A   1      -5.343   4.059 134.815  0.00  0.00    +0.014 C 
ENDROOT
BRANCH  18  30
ATOM     30  C   LIG A   1      -5.700   0.859 126.649  0.00  0.00    +0.311 C 
ATOM     31  O   LIG A   1      -6.304   1.537 125.831  0.00  0.00    -0.250 OA
BRANCH  30  32
ATOM     32  O   LIG A   1      -4.501   1.292 127.111  0.00  0.00    -0.480 OA
ATOM     33  H   LIG A   1      -3.976   1.834 126.497  0.00  0.00    +0.295 HD
ENDBRANCH  30  32
ENDBRANCH  18  30
BRANCH   3  34
ATOM     34  O   LIG A   1      -4.771   5.554 132.481  0.00  0.00    -0.391 OA
ATOM     35  H   LIG A   1      -4.803   4.708 132.006  0.00  0.00    +0.210 HD
ENDBRANCH   3  34
TORSDOF 3
ENDMDL
MODEL 6
REMARK VINA RESULT:      -8.5      2.314      4.054
REMARK  Name = NuBBE_191
REMARK  10 active torsions:
REMARK  status: ('A' for Active; 'I' for Inactive)
REMARK    1  A    between atoms: C_1  and  C_2
REMARK    2  A    between atoms: C_2  and  C_38
REMARK    3  A    between atoms: C_3  and  O_37
REMARK    4  A    between atoms: C_7  and  C_36
REMARK    5  A    between atoms: C_11  and  C_35
REMARK    6  A    between atoms: C_17  and  C_34
REMARK    7  A    between atoms: C_20  and  C_31
REMARK    8  A    between atoms: C_23  and  C_30
REMARK    9  A    between atoms: C_25  and  C_29
REMARK   10  A    between atoms: C_31  and  O_32
REMARK                            x       y       z     vdW  Elec       q    Type
REMARK                         _______ _______ _______ _____ _____    ______ ____
ROOT
ATOM      1  C   LIG A   1      -7.296  -3.659 124.341  0.00  0.00    +0.014 C 
ATOM      2  C   LIG A   1      -8.258  -2.527 124.750  0.00  0.00    -0.006 C 
ATOM      3  C   LIG A   1      -8.456  -1.541 123.560  0.00  0.00    +0.120 C 
ATOM      4  C   LIG A   1      -7.253  -0.630 123.318  0.00  0.00    +0.032 C 
ATOM      5  C   LIG A   1      -6.815   0.128 124.576  0.00  0.00    +0.010 C 
ATOM      6  C   LIG A   1      -6.537  -0.779 125.816  0.00  0.00    -0.025 C 
ATOM      7  C   LIG A   1      -7.789  -1.711 126.012  0.00  0.00    +0.003 C 
ATOM      8  C   LIG A   1      -7.657  -2.535 127.306  0.00  0.00    +0.005 C 
ATOM      9  C   LIG A   1      -7.639  -1.606 128.520  0.00  0.00    +0.008 C 
ATOM     10  C   LIG A   1      -6.499  -0.550 128.518  0.00  0.00    -0.019 C 
ATOM     11  C   LIG A   1      -6.422   0.149 127.110  0.00  0.00    +0.006 C 
ATOM     12  C   LIG A   1      -5.241   1.137 127.085  0.00  0.00    +0.031 C 
ATOM     13  C   LIG A   1      -5.178   2.018 128.297  0.00  0.00    -0.026 C 
ATOM     14  C   LIG A   1      -5.839   1.833 129.454  0.00  0.00    -0.063 C 
ATOM     15  C   LIG A   1      -6.748   0.594 129.663  0.00  0.00    -0.005 C 
ATOM     16  C   LIG A   1      -8.198   1.184 129.635  0.00  0.00    +0.012 C 
ATOM     17  C   LIG A   1      -8.438   2.393 130.565  0.00  0.00    +0.019 C 
ATOM     18  C   LIG A   1      -7.399   3.560 130.433  0.00  0.00    +0.074 C 
ATOM     19  C   LIG A   1      -5.967   2.923 130.535  0.00  0.00    +0.035 C 
ATOM     20  C   LIG A   1      -4.774   3.875 130.921  0.00  0.00    -0.003 C 
ATOM     21  C   LIG A   1      -5.166   4.794 132.115  0.00  0.00    -0.011 C 
ATOM     22  C   LIG A   1      -6.488   5.517 131.839  0.00  0.00    +0.004 C 
ATOM     23  C   LIG A   1      -7.646   4.556 131.596  0.00  0.00    +0.019 C 
ATOM     24  C   LIG A   1      -5.198   4.038 133.451  0.00  0.00    +0.008 C 
ATOM     25  C   LIG A   1      -4.121   4.747 129.844  0.00  0.00    +0.008 C 
ATOM     26  C   LIG A   1      -6.511  -0.050 131.063  0.00  0.00    +0.016 C 
ATOM     27  C   LIG A   1      -5.172  -1.304 128.836  0.00  0.00    +0.012 C 
ATOM     28  C   LIG A   1      -5.229  -1.559 125.536  0.00  0.00    +0.012 C 
ATOM     29  C   LIG A   1      -9.617  -3.217 125.051  0.00  0.00    +0.014 C 
ENDROOT
BRANCH  18  30
ATOM     30  C   LIG A   1      -7.637   4.313 129.103  0.00  0.00    +0.311 C 
ATOM     31  O   LIG A   1      -6.797   4.941 128.474  0.00  0.00    -0.250 OA
BRANCH  30  32
ATOM     32  O   LIG A   1      -8.919   4.296 128.661  0.00  0.00    -0.480 OA
ATOM     33  H   LIG A   1      -9.038   4.207 127.699  0.00  0.00    +0.295 HD
ENDBRANCH  30  32
ENDBRANCH  18  30
BRANCH   3  34
ATOM     34  O   LIG A   1      -9.579  -0.682 123.793  0.00  0.00    -0.391 OA
ATOM     35  H   LIG A   1      -9.286   0.040 124.372  0.00  0.00    +0.210 HD
ENDBRANCH   3  34
TORSDOF 3
ENDMDL
MODEL 7
REMARK VINA RESULT:      -8.4      4.981     10.324
REMARK  Name = NuBBE_191
REMARK  10 active torsions:
REMARK  status: ('A' for Active; 'I' for Inactive)
REMARK    1  A    between atoms: C_1  and  C_2
REMARK    2  A    between atoms: C_2  and  C_38
REMARK    3  A    between atoms: C_3  and  O_37
REMARK    4  A    between atoms: C_7  and  C_36
REMARK    5  A    between atoms: C_11  and  C_35
REMARK    6  A    between atoms: C_17  and  C_34
REMARK    7  A    between atoms: C_20  and  C_31
REMARK    8  A    between atoms: C_23  and  C_30
REMARK    9  A    between atoms: C_25  and  C_29
REMARK   10  A    between atoms: C_31  and  O_32
REMARK                            x       y       z     vdW  Elec       q    Type
REMARK                         _______ _______ _______ _____ _____    ______ ____
ROOT
ATOM      1  C   LIG A   1      -0.231   9.490 133.727  0.00  0.00    +0.014 C 
ATOM      2  C   LIG A   1      -1.747   9.722 133.880  0.00  0.00    -0.006 C 
ATOM      3  C   LIG A   1      -2.118   9.832 135.390  0.00  0.00    +0.120 C 
ATOM      4  C   LIG A   1      -2.101   8.489 136.119  0.00  0.00    +0.032 C 
ATOM      5  C   LIG A   1      -2.963   7.424 135.430  0.00  0.00    +0.010 C 
ATOM      6  C   LIG A   1      -2.632   7.199 133.922  0.00  0.00    -0.025 C 
ATOM      7  C   LIG A   1      -2.638   8.607 133.218  0.00  0.00    +0.003 C 
ATOM      8  C   LIG A   1      -2.466   8.456 131.696  0.00  0.00    +0.005 C 
ATOM      9  C   LIG A   1      -3.653   7.693 131.107  0.00  0.00    +0.008 C 
ATOM     10  C   LIG A   1      -3.876   6.273 131.697  0.00  0.00    -0.019 C 
ATOM     11  C   LIG A   1      -3.801   6.331 133.268  0.00  0.00    +0.006 C 
ATOM     12  C   LIG A   1      -3.943   4.910 133.846  0.00  0.00    +0.031 C 
ATOM     13  C   LIG A   1      -5.070   4.131 133.237  0.00  0.00    -0.026 C 
ATOM     14  C   LIG A   1      -5.732   4.435 132.106  0.00  0.00    -0.063 C 
ATOM     15  C   LIG A   1      -5.335   5.672 131.258  0.00  0.00    -0.005 C 
ATOM     16  C   LIG A   1      -6.510   6.679 131.495  0.00  0.00    +0.012 C 
ATOM     17  C   LIG A   1      -7.927   6.106 131.276  0.00  0.00    +0.019 C 
ATOM     18  C   LIG A   1      -8.234   4.766 132.028  0.00  0.00    +0.074 C 
ATOM     19  C   LIG A   1      -7.061   3.771 131.703  0.00  0.00    +0.035 C 
ATOM     20  C   LIG A   1      -7.335   2.234 131.908  0.00  0.00    -0.003 C 
ATOM     21  C   LIG A   1      -8.716   1.835 131.308  0.00  0.00    -0.011 C 
ATOM     22  C   LIG A   1      -9.827   2.751 131.832  0.00  0.00    +0.004 C 
ATOM     23  C   LIG A   1      -9.586   4.219 131.501  0.00  0.00    +0.019 C 
ATOM     24  C   LIG A   1      -8.695   1.784 129.774  0.00  0.00    +0.008 C 
ATOM     25  C   LIG A   1      -7.233   1.627 133.311  0.00  0.00    +0.008 C 
ATOM     26  C   LIG A   1      -5.289   5.324 129.740  0.00  0.00    +0.016 C 
ATOM     27  C   LIG A   1      -2.756   5.354 131.121  0.00  0.00    +0.012 C 
ATOM     28  C   LIG A   1      -1.261   6.483 133.850  0.00  0.00    +0.012 C 
ATOM     29  C   LIG A   1      -2.033  11.090 133.201  0.00  0.00    +0.014 C 
ENDROOT
BRANCH  18  30
ATOM     30  C   LIG A   1      -8.391   5.048 133.541  0.00  0.00    +0.311 C 
ATOM     31  O   LIG A   1      -8.059   4.299 134.448  0.00  0.00    -0.250 OA
BRANCH  30  32
ATOM     32  O   LIG A   1      -9.009   6.218 133.840  0.00  0.00    -0.480 OA
ATOM     33  H   LIG A   1      -9.981   6.205 133.817  0.00  0.00    +0.295 HD
ENDBRANCH  30  32
ENDBRANCH  18  30
BRANCH   3  34
ATOM     34  O   LIG A   1      -3.436  10.370 135.551  0.00  0.00    -0.391 OA
ATOM     35  H   LIG A   1      -3.347  11.316 135.755  0.00  0.00    +0.210 HD
ENDBRANCH   3  34
TORSDOF 3
ENDMDL
MODEL 8
REMARK VINA RESULT:      -8.4      3.804      7.657
REMARK  Name = NuBBE_191
REMARK  10 active torsions:
REMARK  status: ('A' for Active; 'I' for Inactive)
REMARK    1  A    between atoms: C_1  and  C_2
REMARK    2  A    between atoms: C_2  and  C_38
REMARK    3  A    between atoms: C_3  and  O_37
REMARK    4  A    between atoms: C_7  and  C_36
REMARK    5  A    between atoms: C_11  and  C_35
REMARK    6  A    between atoms: C_17  and  C_34
REMARK    7  A    between atoms: C_20  and  C_31
REMARK    8  A    between atoms: C_23  and  C_30
REMARK    9  A    between atoms: C_25  and  C_29
REMARK   10  A    between atoms: C_31  and  O_32
REMARK                            x       y       z     vdW  Elec       q    Type
REMARK                         _______ _______ _______ _____ _____    ______ ____
ROOT
ATOM      1  C   LIG A   1      -5.462  -3.529 134.062  0.00  0.00    +0.014 C 
ATOM      2  C   LIG A   1      -4.550  -3.127 132.886  0.00  0.00    -0.006 C 
ATOM      3  C   LIG A   1      -3.754  -1.837 133.246  0.00  0.00    +0.120 C 
ATOM      4  C   LIG A   1      -4.606  -0.568 133.212  0.00  0.00    +0.032 C 
ATOM      5  C   LIG A   1      -5.352  -0.386 131.884  0.00  0.00    +0.010 C 
ATOM      6  C   LIG A   1      -6.225  -1.608 131.459  0.00  0.00    -0.025 C 
ATOM      7  C   LIG A   1      -5.315  -2.889 131.532  0.00  0.00    +0.003 C 
ATOM      8  C   LIG A   1      -6.062  -4.119 130.983  0.00  0.00    +0.005 C 
ATOM      9  C   LIG A   1      -6.381  -3.921 129.501  0.00  0.00    +0.008 C 
ATOM     10  C   LIG A   1      -7.241  -2.668 129.179  0.00  0.00    -0.019 C 
ATOM     11  C   LIG A   1      -6.662  -1.415 129.935  0.00  0.00    +0.006 C 
ATOM     12  C   LIG A   1      -7.563  -0.192 129.678  0.00  0.00    +0.031 C 
ATOM     13  C   LIG A   1      -7.928  -0.018 128.235  0.00  0.00    -0.026 C 
ATOM     14  C   LIG A   1      -7.794  -0.935 127.260  0.00  0.00    -0.063 C 
ATOM     15  C   LIG A   1      -7.254  -2.355 127.571  0.00  0.00    -0.005 C 
ATOM     16  C   LIG A   1      -5.824  -2.359 126.934  0.00  0.00    +0.012 C 
ATOM     17  C   LIG A   1      -5.753  -1.890 125.465  0.00  0.00    +0.019 C 
ATOM     18  C   LIG A   1      -6.452  -0.520 125.162  0.00  0.00    +0.074 C 
ATOM     19  C   LIG A   1      -7.903  -0.595 125.762  0.00  0.00    +0.035 C 
ATOM     20  C   LIG A   1      -8.974   0.411 125.199  0.00  0.00    -0.003 C 
ATOM     21  C   LIG A   1      -8.913   0.469 123.644  0.00  0.00    -0.011 C 
ATOM     22  C   LIG A   1      -7.483   0.733 123.161  0.00  0.00    +0.004 C 
ATOM     23  C   LIG A   1      -6.498  -0.335 123.623  0.00  0.00    +0.019 C 
ATOM     24  C   LIG A   1      -9.515  -0.781 122.987  0.00  0.00    +0.008 C 
ATOM     25  C   LIG A   1      -9.015   1.849 125.727  0.00  0.00    +0.008 C 
ATOM     26  C   LIG A   1      -8.106  -3.451 126.863  0.00  0.00    +0.016 C 
ATOM     27  C   LIG A   1      -8.696  -2.975 129.646  0.00  0.00    +0.012 C 
ATOM     28  C   LIG A   1      -7.442  -1.663 132.415  0.00  0.00    +0.012 C 
ATOM     29  C   LIG A   1      -3.541  -4.298 132.717  0.00  0.00    +0.014 C 
ENDROOT
BRANCH  18  30
ATOM     30  C   LIG A   1      -5.607   0.633 125.755  0.00  0.00    +0.311 C 
ATOM     31  O   LIG A   1      -5.791   1.826 125.567  0.00  0.00    -0.250 OA
BRANCH  30  32
ATOM     32  O   LIG A   1      -4.543   0.235 126.496  0.00  0.00    -0.480 OA
ATOM     33  H   LIG A   1      -3.702   0.138 126.018  0.00  0.00    +0.295 HD
ENDBRANCH  30  32
ENDBRANCH  18  30
BRANCH   3  34
ATOM     34  O   LIG A   1      -2.675  -1.631 132.327  0.00  0.00    -0.391 OA
ATOM     35  H   LIG A   1      -2.898  -2.090 131.501  0.00  0.00    +0.210 HD
ENDBRANCH   3  34
TORSDOF 3
ENDMDL
MODEL 9
REMARK VINA RESULT:      -8.2      4.278      5.616
REMARK  Name = NuBBE_191
REMARK  10 active torsions:
REMARK  status: ('A' for Active; 'I' for Inactive)
REMARK    1  A    between atoms: C_1  and  C_2
REMARK    2  A    between atoms: C_2  and  C_38
REMARK    3  A    between atoms: C_3  and  O_37
REMARK    4  A    between atoms: C_7  and  C_36
REMARK    5  A    between atoms: C_11  and  C_35
REMARK    6  A    between atoms: C_17  and  C_34
REMARK    7  A    between atoms: C_20  and  C_31
REMARK    8  A    between atoms: C_23  and  C_30
REMARK    9  A    between atoms: C_25  and  C_29
REMARK   10  A    between atoms: C_31  and  O_32
REMARK                            x       y       z     vdW  Elec       q    Type
REMARK                         _______ _______ _______ _____ _____    ______ ____
ROOT
ATOM      1  C   LIG A   1      -8.135  -0.774 123.417  0.00  0.00    +0.014 C 
ATOM      2  C   LIG A   1      -7.296  -1.924 124.008  0.00  0.00    -0.006 C 
ATOM      3  C   LIG A   1      -8.107  -3.253 123.960  0.00  0.00    +0.120 C 
ATOM      4  C   LIG A   1      -9.217  -3.327 125.008  0.00  0.00    +0.032 C 
ATOM      5  C   LIG A   1      -8.714  -3.057 126.431  0.00  0.00    +0.010 C 
ATOM      6  C   LIG A   1      -7.932  -1.717 126.598  0.00  0.00    -0.025 C 
ATOM      7  C   LIG A   1      -6.818  -1.675 125.487  0.00  0.00    +0.003 C 
ATOM      8  C   LIG A   1      -5.905  -0.451 125.677  0.00  0.00    +0.005 C 
ATOM      9  C   LIG A   1      -5.158  -0.554 127.008  0.00  0.00    +0.008 C 
ATOM     10  C   LIG A   1      -6.070  -0.659 128.262  0.00  0.00    -0.019 C 
ATOM     11  C   LIG A   1      -7.196  -1.730 128.015  0.00  0.00    +0.006 C 
ATOM     12  C   LIG A   1      -8.144  -1.775 129.228  0.00  0.00    +0.031 C 
ATOM     13  C   LIG A   1      -7.425  -1.821 130.542  0.00  0.00    -0.026 C 
ATOM     14  C   LIG A   1      -6.124  -1.547 130.751  0.00  0.00    -0.063 C 
ATOM     15  C   LIG A   1      -5.208  -1.093 129.586  0.00  0.00    -0.005 C 
ATOM     16  C   LIG A   1      -4.281  -2.329 129.335  0.00  0.00    +0.012 C 
ATOM     17  C   LIG A   1      -3.585  -2.899 130.591  0.00  0.00    +0.019 C 
ATOM     18  C   LIG A   1      -4.530  -3.196 131.806  0.00  0.00    +0.074 C 
ATOM     19  C   LIG A   1      -5.388  -1.904 132.056  0.00  0.00    +0.035 C 
ATOM     20  C   LIG A   1      -6.050  -1.735 133.474  0.00  0.00    -0.003 C 
ATOM     21  C   LIG A   1      -5.030  -2.069 134.603  0.00  0.00    -0.011 C 
ATOM     22  C   LIG A   1      -4.381  -3.437 134.367  0.00  0.00    +0.004 C 
ATOM     23  C   LIG A   1      -3.641  -3.518 133.036  0.00  0.00    +0.019 C 
ATOM     24  C   LIG A   1      -3.980  -0.965 134.790  0.00  0.00    +0.008 C 
ATOM     25  C   LIG A   1      -7.362  -2.460 133.790  0.00  0.00    +0.008 C 
ATOM     26  C   LIG A   1      -4.313   0.111 130.008  0.00  0.00    +0.016 C 
ATOM     27  C   LIG A   1      -6.689   0.752 128.501  0.00  0.00    +0.012 C 
ATOM     28  C   LIG A   1      -8.958  -0.564 126.482  0.00  0.00    +0.012 C 
ATOM     29  C   LIG A   1      -6.060  -2.065 123.077  0.00  0.00    +0.014 C 
ENDROOT
BRANCH  18  30
ATOM     30  C   LIG A   1      -5.387  -4.447 131.499  0.00  0.00    +0.311 C 
ATOM     31  O   LIG A   1      -5.810  -4.772 130.399  0.00  0.00    -0.250 OA
BRANCH  30  32
ATOM     32  O   LIG A   1      -5.722  -5.188 132.584  0.00  0.00    -0.480 OA
ATOM     33  H   LIG A   1      -6.259  -4.739 133.258  0.00  0.00    +0.295 HD
ENDBRANCH  30  32
ENDBRANCH  18  30
BRANCH   3  34
ATOM     34  O   LIG A   1      -7.252  -4.379 124.188  0.00  0.00    -0.391 OA
ATOM     35  H   LIG A   1      -7.068  -4.792 123.328  0.00  0.00    +0.210 HD
ENDBRANCH   3  34
TORSDOF 3
ENDMDL
