MODEL 1
REMARK VINA RESULT:      -6.6      0.000      0.000
REMARK  Name = NuBBE_1767
REMARK  4 active torsions:
REMARK  status: ('A' for Active; 'I' for Inactive)
REMARK    1  A    between atoms: O_1  and  C_2
REMARK    2  A    between atoms: C_6  and  O_9
REMARK    3  A    between atoms: C_7  and  O_8
REMARK    4  A    between atoms: O_9  and  C_10
REMARK                            x       y       z     vdW  Elec       q    Type
REMARK                         _______ _______ _______ _____ _____    ______ ____
ROOT
ATOM      1  C   LIG A   1     -11.295   6.488 131.471  0.00  0.00    +0.206 A 
ATOM      2  C   LIG A   1     -11.338   7.168 130.260  0.00  0.00    +0.184 A 
ATOM      3  C   LIG A   1     -10.166   7.542 129.614  0.00  0.00    +0.025 A 
ATOM      4  C   LIG A   1      -8.938   7.222 130.203  0.00  0.00    +0.061 A 
ATOM      5  C   LIG A   1      -8.874   6.533 131.428  0.00  0.00    +0.166 A 
ATOM      6  C   LIG A   1     -10.068   6.169 132.058  0.00  0.00    +0.205 A 
ATOM      7  C   LIG A   1     -10.258   8.252 128.349  0.00  0.00    +0.019 A 
ATOM      8  C   LIG A   1     -11.461   8.528 127.836  0.00  0.00    +0.092 A 
ATOM      9  C   LIG A   1     -12.714   8.138 128.505  0.00  0.00    +0.337 A 
ATOM     10  O   LIG A   1     -13.802   8.404 128.009  0.00  0.00    -0.245 OA
ATOM     11  O   LIG A   1     -12.601   7.462 129.714  0.00  0.00    -0.418 OA
ENDROOT
BRANCH   1  12
ATOM     12  O   LIG A   1     -12.441   6.111 132.123  0.00  0.00    -0.501 OA
ATOM     13  H   LIG A   1     -13.160   6.139 131.461  0.00  0.00    +0.292 HD
ENDBRANCH   1  12
BRANCH   6  14
ATOM     14  O   LIG A   1     -10.106   5.500 133.251  0.00  0.00    -0.501 OA
ATOM     15  H   LIG A   1     -11.057   5.444 133.481  0.00  0.00    +0.292 HD
ENDBRANCH   6  14
BRANCH   5  16
ATOM     16  O   LIG A   1      -7.589   6.309 131.845  0.00  0.00    -0.491 OA
ATOM     17  C   LIG A   1      -6.536   6.936 131.126  0.00  0.00    +0.277 C 
ENDBRANCH   5  16
TORSDOF 3
ENDMDL
MODEL 2
REMARK VINA RESULT:      -6.2      1.279      4.665
REMARK  Name = NuBBE_1767
REMARK  4 active torsions:
REMARK  status: ('A' for Active; 'I' for Inactive)
REMARK    1  A    between atoms: O_1  and  C_2
REMARK    2  A    between atoms: C_6  and  O_9
REMARK    3  A    between atoms: C_7  and  O_8
REMARK    4  A    between atoms: O_9  and  C_10
REMARK                            x       y       z     vdW  Elec       q    Type
REMARK                         _______ _______ _______ _____ _____    ______ ____
ROOT
ATOM      1  C   LIG A   1     -11.371   6.664 131.205  0.00  0.00    +0.206 A 
ATOM      2  C   LIG A   1     -10.034   6.489 131.539  0.00  0.00    +0.184 A 
ATOM      3  C   LIG A   1      -9.027   6.989 130.723  0.00  0.00    +0.025 A 
ATOM      4  C   LIG A   1      -9.382   7.673 129.555  0.00  0.00    +0.061 A 
ATOM      5  C   LIG A   1     -10.730   7.862 129.201  0.00  0.00    +0.166 A 
ATOM      6  C   LIG A   1     -11.724   7.348 130.040  0.00  0.00    +0.205 A 
ATOM      7  C   LIG A   1      -7.641   6.782 131.111  0.00  0.00    +0.019 A 
ATOM      8  C   LIG A   1      -7.367   6.121 132.239  0.00  0.00    +0.092 A 
ATOM      9  C   LIG A   1      -8.420   5.585 133.118  0.00  0.00    +0.337 A 
ATOM     10  O   LIG A   1      -8.136   4.983 134.147  0.00  0.00    -0.245 OA
ATOM     11  O   LIG A   1      -9.736   5.793 132.726  0.00  0.00    -0.418 OA
ENDROOT
BRANCH   1  12
ATOM     12  O   LIG A   1     -12.378   6.177 131.999  0.00  0.00    -0.501 OA
ATOM     13  H   LIG A   1     -12.601   5.290 131.654  0.00  0.00    +0.292 HD
ENDBRANCH   1  12
BRANCH   6  14
ATOM     14  O   LIG A   1     -13.061   7.479 129.778  0.00  0.00    -0.501 OA
ATOM     15  H   LIG A   1     -13.496   6.793 130.324  0.00  0.00    +0.292 HD
ENDBRANCH   6  14
BRANCH   5  16
ATOM     16  O   LIG A   1     -10.880   8.554 128.029  0.00  0.00    -0.491 OA
ATOM     17  C   LIG A   1     -10.978   7.809 126.823  0.00  0.00    +0.277 C 
ENDBRANCH   5  16
TORSDOF 3
ENDMDL
MODEL 3
REMARK VINA RESULT:      -5.8      9.680     10.170
REMARK  Name = NuBBE_1767
REMARK  4 active torsions:
REMARK  status: ('A' for Active; 'I' for Inactive)
REMARK    1  A    between atoms: O_1  and  C_2
REMARK    2  A    between atoms: C_6  and  O_9
REMARK    3  A    between atoms: C_7  and  O_8
REMARK    4  A    between atoms: O_9  and  C_10
REMARK                            x       y       z     vdW  Elec       q    Type
REMARK                         _______ _______ _______ _____ _____    ______ ____
ROOT
ATOM      1  C   LIG A   1      -9.450   1.190 124.207  0.00  0.00    +0.206 A 
ATOM      2  C   LIG A   1      -8.881  -0.028 123.859  0.00  0.00    +0.184 A 
ATOM      3  C   LIG A   1      -7.508  -0.145 123.682  0.00  0.00    +0.025 A 
ATOM      4  C   LIG A   1      -6.705   0.987 123.860  0.00  0.00    +0.061 A 
ATOM      5  C   LIG A   1      -7.263   2.229 124.214  0.00  0.00    +0.166 A 
ATOM      6  C   LIG A   1      -8.648   2.319 124.385  0.00  0.00    +0.205 A 
ATOM      7  C   LIG A   1      -6.954  -1.439 123.318  0.00  0.00    +0.019 A 
ATOM      8  C   LIG A   1      -7.773  -2.483 123.164  0.00  0.00    +0.092 A 
ATOM      9  C   LIG A   1      -9.231  -2.380 123.348  0.00  0.00    +0.337 A 
ATOM     10  O   LIG A   1      -9.956  -3.356 123.200  0.00  0.00    -0.245 OA
ATOM     11  O   LIG A   1      -9.737  -1.133 123.694  0.00  0.00    -0.418 OA
ENDROOT
BRANCH   1  12
ATOM     12  O   LIG A   1     -10.804   1.324 124.385  0.00  0.00    -0.501 OA
ATOM     13  H   LIG A   1     -11.030   2.239 124.126  0.00  0.00    +0.292 HD
ENDBRANCH   1  12
BRANCH   6  14
ATOM     14  O   LIG A   1      -9.282   3.484 124.725  0.00  0.00    -0.501 OA
ATOM     15  H   LIG A   1     -10.235   3.259 124.745  0.00  0.00    +0.292 HD
ENDBRANCH   6  14
BRANCH   5  16
ATOM     16  O   LIG A   1      -6.324   3.216 124.344  0.00  0.00    -0.491 OA
ATOM     17  C   LIG A   1      -5.876   3.870 123.165  0.00  0.00    +0.277 C 
ENDBRANCH   5  16
TORSDOF 3
ENDMDL
MODEL 4
REMARK VINA RESULT:      -5.7      8.758      9.274
REMARK  Name = NuBBE_1767
REMARK  4 active torsions:
REMARK  status: ('A' for Active; 'I' for Inactive)
REMARK    1  A    between atoms: O_1  and  C_2
REMARK    2  A    between atoms: C_6  and  O_9
REMARK    3  A    between atoms: C_7  and  O_8
REMARK    4  A    between atoms: O_9  and  C_10
REMARK                            x       y       z     vdW  Elec       q    Type
REMARK                         _______ _______ _______ _____ _____    ______ ____
ROOT
ATOM      1  C   LIG A   1      -9.559   1.240 123.962  0.00  0.00    +0.206 A 
ATOM      2  C   LIG A   1      -8.627   2.160 124.426  0.00  0.00    +0.184 A 
ATOM      3  C   LIG A   1      -7.266   1.894 124.347  0.00  0.00    +0.025 A 
ATOM      4  C   LIG A   1      -6.846   0.680 123.791  0.00  0.00    +0.061 A 
ATOM      5  C   LIG A   1      -7.774  -0.263 123.313  0.00  0.00    +0.166 A 
ATOM      6  C   LIG A   1      -9.138   0.029 123.406  0.00  0.00    +0.205 A 
ATOM      7  C   LIG A   1      -6.326   2.885 124.845  0.00  0.00    +0.019 A 
ATOM      8  C   LIG A   1      -6.789   4.025 125.365  0.00  0.00    +0.092 A 
ATOM      9  C   LIG A   1      -8.228   4.326 125.456  0.00  0.00    +0.337 A 
ATOM     10  O   LIG A   1      -8.622   5.382 125.938  0.00  0.00    -0.245 OA
ATOM     11  O   LIG A   1      -9.107   3.364 124.975  0.00  0.00    -0.418 OA
ENDROOT
BRANCH   1  12
ATOM     12  O   LIG A   1     -10.906   1.486 124.032  0.00  0.00    -0.501 OA
ATOM     13  H   LIG A   1     -11.335   0.631 124.235  0.00  0.00    +0.292 HD
ENDBRANCH   1  12
BRANCH   6  14
ATOM     14  O   LIG A   1     -10.115  -0.827 122.972  0.00  0.00    -0.501 OA
ATOM     15  H   LIG A   1     -10.014  -0.855 121.998  0.00  0.00    +0.292 HD
ENDBRANCH   6  14
BRANCH   5  16
ATOM     16  O   LIG A   1      -7.177  -1.385 122.804  0.00  0.00    -0.491 OA
ATOM     17  C   LIG A   1      -6.176  -2.021 123.587  0.00  0.00    +0.277 C 
ENDBRANCH   5  16
TORSDOF 3
ENDMDL
MODEL 5
REMARK VINA RESULT:      -5.6      1.903      2.898
REMARK  Name = NuBBE_1767
REMARK  4 active torsions:
REMARK  status: ('A' for Active; 'I' for Inactive)
REMARK    1  A    between atoms: O_1  and  C_2
REMARK    2  A    between atoms: C_6  and  O_9
REMARK    3  A    between atoms: C_7  and  O_8
REMARK    4  A    between atoms: O_9  and  C_10
REMARK                            x       y       z     vdW  Elec       q    Type
REMARK                         _______ _______ _______ _____ _____    ______ ____
ROOT
ATOM      1  C   LIG A   1      -9.314   5.541 129.653  0.00  0.00    +0.206 A 
ATOM      2  C   LIG A   1     -10.576   6.084 129.858  0.00  0.00    +0.184 A 
ATOM      3  C   LIG A   1     -11.011   6.405 131.138  0.00  0.00    +0.025 A 
ATOM      4  C   LIG A   1     -10.155   6.172 132.220  0.00  0.00    +0.061 A 
ATOM      5  C   LIG A   1      -8.873   5.624 132.032  0.00  0.00    +0.166 A 
ATOM      6  C   LIG A   1      -8.461   5.310 130.733  0.00  0.00    +0.205 A 
ATOM      7  C   LIG A   1     -12.339   6.971 131.308  0.00  0.00    +0.019 A 
ATOM      8  C   LIG A   1     -13.110   7.171 130.234  0.00  0.00    +0.092 A 
ATOM      9  C   LIG A   1     -12.666   6.839 128.870  0.00  0.00    +0.337 A 
ATOM     10  O   LIG A   1     -13.396   7.035 127.905  0.00  0.00    -0.245 OA
ATOM     11  O   LIG A   1     -11.394   6.297 128.732  0.00  0.00    -0.418 OA
ENDROOT
BRANCH   1  12
ATOM     12  O   LIG A   1      -8.869   5.218 128.396  0.00  0.00    -0.501 OA
ATOM     13  H   LIG A   1      -8.362   4.387 128.485  0.00  0.00    +0.292 HD
ENDBRANCH   1  12
BRANCH   6  14
ATOM     14  O   LIG A   1      -7.234   4.771 130.451  0.00  0.00    -0.501 OA
ATOM     15  H   LIG A   1      -7.421   3.860 130.145  0.00  0.00    +0.292 HD
ENDBRANCH   6  14
BRANCH   5  16
ATOM     16  O   LIG A   1      -8.183   5.471 133.204  0.00  0.00    -0.491 OA
ATOM     17  C   LIG A   1      -8.522   4.371 134.038  0.00  0.00    +0.277 C 
ENDBRANCH   5  16
TORSDOF 3
ENDMDL
MODEL 6
REMARK VINA RESULT:      -5.4      1.552      2.473
REMARK  Name = NuBBE_1767
REMARK  4 active torsions:
REMARK  status: ('A' for Active; 'I' for Inactive)
REMARK    1  A    between atoms: O_1  and  C_2
REMARK    2  A    between atoms: C_6  and  O_9
REMARK    3  A    between atoms: C_7  and  O_8
REMARK    4  A    between atoms: O_9  and  C_10
REMARK                            x       y       z     vdW  Elec       q    Type
REMARK                         _______ _______ _______ _____ _____    ______ ____
ROOT
ATOM      1  C   LIG A   1      -9.186   5.415 132.810  0.00  0.00    +0.206 A 
ATOM      2  C   LIG A   1      -9.859   6.145 131.839  0.00  0.00    +0.184 A 
ATOM      3  C   LIG A   1      -9.159   6.852 130.869  0.00  0.00    +0.025 A 
ATOM      4  C   LIG A   1      -7.761   6.816 130.885  0.00  0.00    +0.061 A 
ATOM      5  C   LIG A   1      -7.060   6.081 131.858  0.00  0.00    +0.166 A 
ATOM      6  C   LIG A   1      -7.790   5.379 132.824  0.00  0.00    +0.205 A 
ATOM      7  C   LIG A   1      -9.905   7.603 129.872  0.00  0.00    +0.019 A 
ATOM      8  C   LIG A   1     -11.240   7.597 129.908  0.00  0.00    +0.092 A 
ATOM      9  C   LIG A   1     -12.000   6.853 130.928  0.00  0.00    +0.337 A 
ATOM     10  O   LIG A   1     -13.225   6.867 130.935  0.00  0.00    -0.245 OA
ATOM     11  O   LIG A   1     -11.267   6.145 131.871  0.00  0.00    -0.418 OA
ENDROOT
BRANCH   1  12
ATOM     12  O   LIG A   1      -9.861   4.712 133.775  0.00  0.00    -0.501 OA
ATOM     13  H   LIG A   1      -9.614   5.110 134.633  0.00  0.00    +0.292 HD
ENDBRANCH   1  12
BRANCH   6  14
ATOM     14  O   LIG A   1      -7.198   4.640 133.812  0.00  0.00    -0.501 OA
ATOM     15  H   LIG A   1      -7.851   4.620 134.541  0.00  0.00    +0.292 HD
ENDBRANCH   6  14
BRANCH   5  16
ATOM     16  O   LIG A   1      -5.702   6.164 131.713  0.00  0.00    -0.491 OA
ATOM     17  C   LIG A   1      -5.152   5.902 130.429  0.00  0.00    +0.277 C 
ENDBRANCH   5  16
TORSDOF 3
ENDMDL
MODEL 7
REMARK VINA RESULT:      -5.3     10.653     11.816
REMARK  Name = NuBBE_1767
REMARK  4 active torsions:
REMARK  status: ('A' for Active; 'I' for Inactive)
REMARK    1  A    between atoms: O_1  and  C_2
REMARK    2  A    between atoms: C_6  and  O_9
REMARK    3  A    between atoms: C_7  and  O_8
REMARK    4  A    between atoms: O_9  and  C_10
REMARK                            x       y       z     vdW  Elec       q    Type
REMARK                         _______ _______ _______ _____ _____    ______ ____
ROOT
ATOM      1  C   LIG A   1      -6.491  -1.594 126.088  0.00  0.00    +0.206 A 
ATOM      2  C   LIG A   1      -6.871  -2.205 127.276  0.00  0.00    +0.184 A 
ATOM      3  C   LIG A   1      -8.123  -2.793 127.403  0.00  0.00    +0.025 A 
ATOM      4  C   LIG A   1      -8.999  -2.759 126.312  0.00  0.00    +0.061 A 
ATOM      5  C   LIG A   1      -8.631  -2.146 125.100  0.00  0.00    +0.166 A 
ATOM      6  C   LIG A   1      -7.365  -1.561 124.999  0.00  0.00    +0.205 A 
ATOM      7  C   LIG A   1      -8.480  -3.422 128.664  0.00  0.00    +0.019 A 
ATOM      8  C   LIG A   1      -7.599  -3.422 129.669  0.00  0.00    +0.092 A 
ATOM      9  C   LIG A   1      -6.266  -2.806 129.554  0.00  0.00    +0.337 A 
ATOM     10  O   LIG A   1      -5.481  -2.824 130.493  0.00  0.00    -0.245 OA
ATOM     11  O   LIG A   1      -5.949  -2.210 128.340  0.00  0.00    -0.418 OA
ENDROOT
BRANCH   1  12
ATOM     12  O   LIG A   1      -5.258  -1.008 125.945  0.00  0.00    -0.501 OA
ATOM     13  H   LIG A   1      -5.249  -0.232 126.539  0.00  0.00    +0.292 HD
ENDBRANCH   1  12
BRANCH   6  14
ATOM     14  O   LIG A   1      -6.920  -0.939 123.864  0.00  0.00    -0.501 OA
ATOM     15  H   LIG A   1      -6.000  -0.672 124.064  0.00  0.00    +0.292 HD
ENDBRANCH   6  14
BRANCH   5  16
ATOM     16  O   LIG A   1      -9.615  -2.213 124.150  0.00  0.00    -0.491 OA
ATOM     17  C   LIG A   1      -9.648  -3.354 123.304  0.00  0.00    +0.277 C 
ENDBRANCH   5  16
TORSDOF 3
ENDMDL
MODEL 8
REMARK VINA RESULT:      -5.2      2.349      6.143
REMARK  Name = NuBBE_1767
REMARK  4 active torsions:
REMARK  status: ('A' for Active; 'I' for Inactive)
REMARK    1  A    between atoms: O_1  and  C_2
REMARK    2  A    between atoms: C_6  and  O_9
REMARK    3  A    between atoms: C_7  and  O_8
REMARK    4  A    between atoms: O_9  and  C_10
REMARK                            x       y       z     vdW  Elec       q    Type
REMARK                         _______ _______ _______ _____ _____    ______ ____
ROOT
ATOM      1  C   LIG A   1      -7.884   6.780 131.255  0.00  0.00    +0.206 A 
ATOM      2  C   LIG A   1      -7.699   6.028 132.408  0.00  0.00    +0.184 A 
ATOM      3  C   LIG A   1      -8.769   5.379 133.012  0.00  0.00    +0.025 A 
ATOM      4  C   LIG A   1     -10.040   5.495 132.439  0.00  0.00    +0.061 A 
ATOM      5  C   LIG A   1     -10.247   6.250 131.270  0.00  0.00    +0.166 A 
ATOM      6  C   LIG A   1      -9.153   6.894 130.684  0.00  0.00    +0.205 A 
ATOM      7  C   LIG A   1      -8.529   4.602 134.218  0.00  0.00    +0.019 A 
ATOM      8  C   LIG A   1      -7.292   4.529 134.716  0.00  0.00    +0.092 A 
ATOM      9  C   LIG A   1      -6.145   5.208 134.090  0.00  0.00    +0.337 A 
ATOM     10  O   LIG A   1      -5.022   5.121 134.571  0.00  0.00    -0.245 OA
ATOM     11  O   LIG A   1      -6.398   5.946 132.940  0.00  0.00    -0.418 OA
ENDROOT
BRANCH   1  12
ATOM     12  O   LIG A   1      -6.840   7.428 130.646  0.00  0.00    -0.501 OA
ATOM     13  H   LIG A   1      -6.530   6.842 129.927  0.00  0.00    +0.292 HD
ENDBRANCH   1  12
BRANCH   6  14
ATOM     14  O   LIG A   1      -9.257   7.654 129.549  0.00  0.00    -0.501 OA
ATOM     15  H   LIG A   1      -8.535   7.341 128.967  0.00  0.00    +0.292 HD
ENDBRANCH   6  14
BRANCH   5  16
ATOM     16  O   LIG A   1     -11.553   6.246 130.859  0.00  0.00    -0.491 OA
ATOM     17  C   LIG A   1     -12.439   7.190 131.445  0.00  0.00    +0.277 C 
ENDBRANCH   5  16
TORSDOF 3
ENDMDL
MODEL 9
REMARK VINA RESULT:      -5.1     10.917     11.165
REMARK  Name = NuBBE_1767
REMARK  4 active torsions:
REMARK  status: ('A' for Active; 'I' for Inactive)
REMARK    1  A    between atoms: O_1  and  C_2
REMARK    2  A    between atoms: C_6  and  O_9
REMARK    3  A    between atoms: C_7  and  O_8
REMARK    4  A    between atoms: O_9  and  C_10
REMARK                            x       y       z     vdW  Elec       q    Type
REMARK                         _______ _______ _______ _____ _____    ______ ____
ROOT
ATOM      1  C   LIG A   1      -8.262  -3.306 127.678  0.00  0.00    +0.206 A 
ATOM      2  C   LIG A   1      -8.122  -3.037 126.323  0.00  0.00    +0.184 A 
ATOM      3  C   LIG A   1      -6.968  -2.438 125.834  0.00  0.00    +0.025 A 
ATOM      4  C   LIG A   1      -5.945  -2.110 126.730  0.00  0.00    +0.061 A 
ATOM      5  C   LIG A   1      -6.067  -2.377 128.106  0.00  0.00    +0.166 A 
ATOM      6  C   LIG A   1      -7.240  -2.979 128.572  0.00  0.00    +0.205 A 
ATOM      7  C   LIG A   1      -6.864  -2.173 124.408  0.00  0.00    +0.019 A 
ATOM      8  C   LIG A   1      -7.875  -2.511 123.602  0.00  0.00    +0.092 A 
ATOM      9  C   LIG A   1      -9.106  -3.148 124.102  0.00  0.00    +0.337 A 
ATOM     10  O   LIG A   1     -10.015  -3.447 123.337  0.00  0.00    -0.245 OA
ATOM     11  O   LIG A   1      -9.183  -3.389 125.468  0.00  0.00    -0.418 OA
ENDROOT
BRANCH   1  12
ATOM     12  O   LIG A   1      -9.395  -3.897 128.179  0.00  0.00    -0.501 OA
ATOM     13  H   LIG A   1      -9.960  -3.174 128.516  0.00  0.00    +0.292 HD
ENDBRANCH   1  12
BRANCH   6  14
ATOM     14  O   LIG A   1      -7.452  -3.274 129.892  0.00  0.00    -0.501 OA
ATOM     15  H   LIG A   1      -8.247  -3.845 129.901  0.00  0.00    +0.292 HD
ENDBRANCH   6  14
BRANCH   5  16
ATOM     16  O   LIG A   1      -4.968  -1.987 128.823  0.00  0.00    -0.491 OA
ATOM     17  C   LIG A   1      -4.001  -2.976 129.150  0.00  0.00    +0.277 C 
ENDBRANCH   5  16
TORSDOF 3
ENDMDL
