MODEL 1
REMARK VINA RESULT:      -8.2      0.000      0.000
REMARK  Name = NuBBE_1760
REMARK  15 active torsions:
REMARK  status: ('A' for Active; 'I' for Inactive)
REMARK    1  A    between atoms: C_2  and  O_3
REMARK    2  A    between atoms: C_2  and  C_5
REMARK    3  A    between atoms: O_3  and  C_4
REMARK    4  A    between atoms: C_7  and  C_8
REMARK    5  A    between atoms: C_8  and  C_9
REMARK    6  A    between atoms: C_10  and  C_11
REMARK    7  A    between atoms: C_10  and  C_12
REMARK    8  A    between atoms: C_15  and  C_17
REMARK    9  A    between atoms: C_17  and  C_18
REMARK   10  A    between atoms: C_17  and  O_19
REMARK   11  A    between atoms: C_17  and  C_20
REMARK   12  A    between atoms: C_20  and  C_21
REMARK   13  A    between atoms: C_21  and  C_22
REMARK   14  A    between atoms: C_23  and  C_24
REMARK   15  A    between atoms: C_23  and  C_25
REMARK                            x       y       z     vdW  Elec       q    Type
REMARK                         _______ _______ _______ _____ _____    ______ ____
ROOT
ATOM      1  C   LIG A   1      -5.995   4.001 122.398  0.00  0.00    +0.060 A 
ATOM      2  C   LIG A   1      -5.499   4.046 123.717  0.00  0.00    +0.022 A 
ATOM      3  C   LIG A   1      -6.179   3.413 124.778  0.00  0.00    -0.001 A 
ATOM      4  C   LIG A   1      -7.377   2.781 124.465  0.00  0.00    +0.128 A 
ATOM      5  O   LIG A   1      -8.133   2.037 125.337  0.00  0.00    -0.485 OA
ATOM      6  C   LIG A   1      -9.067   1.290 124.485  0.00  0.00    +0.209 C 
ATOM      7  C   LIG A   1      -9.148   2.002 123.126  0.00  0.00    +0.086 C 
ATOM      8  C   LIG A   1      -7.889   2.774 123.179  0.00  0.00    -0.001 A 
ATOM      9  C   LIG A   1      -7.228   3.386 122.137  0.00  0.00    +0.022 A 
ENDROOT
BRANCH   1  11
ATOM     10  O   LIG A   1      -4.043   5.019 121.411  0.00  0.00    -0.245 OA
ATOM     11  C   LIG A   1      -5.172   4.550 121.284  0.00  0.00    +0.339 C 
BRANCH  11  12
ATOM     12  O   LIG A   1      -5.862   4.400 120.136  0.00  0.00    -0.465 OA
ATOM     13  C   LIG A   1      -5.682   5.407 119.143  0.00  0.00    +0.280 C 
ENDBRANCH  11  12
ENDBRANCH   1  11
BRANCH   6  14
ATOM     14  C   LIG A   1      -8.642  -0.220 124.433  0.00  0.00    +0.101 C 
ATOM     15  C   LIG A   1      -9.077  -1.004 125.681  0.00  0.00    +0.045 C 
BRANCH  14  16
ATOM     16  O   LIG A   1      -9.332  -0.820 123.321  0.00  0.00    -0.385 OA
ATOM     17  H   LIG A   1      -8.697  -1.433 122.900  0.00  0.00    +0.210 HD
ENDBRANCH  14  16
BRANCH  14  18
ATOM     18  C   LIG A   1      -7.117  -0.341 124.151  0.00  0.00    +0.042 C 
BRANCH  18  19
ATOM     19  C   LIG A   1      -6.745  -1.193 122.926  0.00  0.00    +0.030 C 
BRANCH  19  20
ATOM     20  C   LIG A   1      -5.686  -2.239 123.201  0.00  0.00    -0.028 C 
ATOM     21  C   LIG A   1      -5.841  -3.447 123.785  0.00  0.00    -0.080 C 
ATOM     22  C   LIG A   1      -7.103  -3.948 124.431  0.00  0.00    +0.038 C 
ATOM     23  C   LIG A   1      -4.704  -4.437 123.837  0.00  0.00    +0.038 C 
ENDBRANCH  19  20
ENDBRANCH  18  19
ENDBRANCH  14  18
ENDBRANCH   6  14
BRANCH   3  24
ATOM     24  C   LIG A   1      -5.642   3.417 126.191  0.00  0.00    +0.066 C 
BRANCH  24  25
ATOM     25  C   LIG A   1      -4.199   2.983 126.287  0.00  0.00    -0.023 C 
ATOM     26  C   LIG A   1      -3.165   3.657 126.829  0.00  0.00    -0.079 C 
ATOM     27  C   LIG A   1      -3.263   4.998 127.500  0.00  0.00    +0.038 C 
ATOM     28  C   LIG A   1      -1.768   3.093 126.779  0.00  0.00    +0.038 C 
ENDBRANCH  24  25
ENDBRANCH   3  24
TORSDOF 9
ENDMDL
MODEL 2
REMARK VINA RESULT:      -7.8      6.969      9.089
REMARK  Name = NuBBE_1760
REMARK  15 active torsions:
REMARK  status: ('A' for Active; 'I' for Inactive)
REMARK    1  A    between atoms: C_2  and  O_3
REMARK    2  A    between atoms: C_2  and  C_5
REMARK    3  A    between atoms: O_3  and  C_4
REMARK    4  A    between atoms: C_7  and  C_8
REMARK    5  A    between atoms: C_8  and  C_9
REMARK    6  A    between atoms: C_10  and  C_11
REMARK    7  A    between atoms: C_10  and  C_12
REMARK    8  A    between atoms: C_15  and  C_17
REMARK    9  A    between atoms: C_17  and  C_18
REMARK   10  A    between atoms: C_17  and  O_19
REMARK   11  A    between atoms: C_17  and  C_20
REMARK   12  A    between atoms: C_20  and  C_21
REMARK   13  A    between atoms: C_21  and  C_22
REMARK   14  A    between atoms: C_23  and  C_24
REMARK   15  A    between atoms: C_23  and  C_25
REMARK                            x       y       z     vdW  Elec       q    Type
REMARK                         _______ _______ _______ _____ _____    ______ ____
ROOT
ATOM      1  C   LIG A   1      -9.044   6.665 131.231  0.00  0.00    +0.060 A 
ATOM      2  C   LIG A   1      -7.707   6.971 130.905  0.00  0.00    +0.022 A 
ATOM      3  C   LIG A   1      -6.632   6.444 131.651  0.00  0.00    -0.001 A 
ATOM      4  C   LIG A   1      -6.959   5.646 132.741  0.00  0.00    +0.128 A 
ATOM      5  O   LIG A   1      -6.059   4.972 133.530  0.00  0.00    -0.485 OA
ATOM      6  C   LIG A   1      -6.866   4.004 134.283  0.00  0.00    +0.209 C 
ATOM      7  C   LIG A   1      -8.327   4.480 134.260  0.00  0.00    +0.086 C 
ATOM      8  C   LIG A   1      -8.272   5.381 133.090  0.00  0.00    -0.001 A 
ATOM      9  C   LIG A   1      -9.327   5.888 132.363  0.00  0.00    +0.022 A 
ENDROOT
BRANCH   1  11
ATOM     10  O   LIG A   1     -11.334   6.879 130.502  0.00  0.00    -0.245 OA
ATOM     11  C   LIG A   1     -10.141   7.116 130.329  0.00  0.00    +0.339 C 
BRANCH  11  12
ATOM     12  O   LIG A   1      -9.597   7.850 129.337  0.00  0.00    -0.465 OA
ATOM     13  C   LIG A   1     -10.482   8.307 128.317  0.00  0.00    +0.280 C 
ENDBRANCH  11  12
ENDBRANCH   1  11
BRANCH   6  14
ATOM     14  C   LIG A   1      -6.617   2.559 133.723  0.00  0.00    +0.101 C 
ATOM     15  C   LIG A   1      -5.911   1.643 134.735  0.00  0.00    +0.045 C 
BRANCH  14  16
ATOM     16  O   LIG A   1      -7.907   1.968 133.478  0.00  0.00    -0.385 OA
ATOM     17  H   LIG A   1      -8.476   2.224 134.231  0.00  0.00    +0.210 HD
ENDBRANCH  14  16
BRANCH  14  18
ATOM     18  C   LIG A   1      -5.874   2.630 132.358  0.00  0.00    +0.042 C 
BRANCH  18  19
ATOM     19  C   LIG A   1      -6.598   1.952 131.184  0.00  0.00    +0.030 C 
BRANCH  19  20
ATOM     20  C   LIG A   1      -6.830   2.861 129.996  0.00  0.00    -0.028 C 
ATOM     21  C   LIG A   1      -7.998   3.378 129.559  0.00  0.00    -0.080 C 
ATOM     22  C   LIG A   1      -9.361   3.027 130.090  0.00  0.00    +0.038 C 
ATOM     23  C   LIG A   1      -8.030   4.401 128.449  0.00  0.00    +0.038 C 
ENDBRANCH  19  20
ENDBRANCH  18  19
ENDBRANCH  14  18
ENDBRANCH   6  14
BRANCH   3  24
ATOM     24  C   LIG A   1      -5.191   6.728 131.293  0.00  0.00    +0.066 C 
BRANCH  24  25
ATOM     25  C   LIG A   1      -4.660   5.843 130.191  0.00  0.00    -0.023 C 
ATOM     26  C   LIG A   1      -3.657   4.945 130.259  0.00  0.00    -0.079 C 
ATOM     27  C   LIG A   1      -2.874   4.616 131.499  0.00  0.00    +0.038 C 
ATOM     28  C   LIG A   1      -3.216   4.189 129.032  0.00  0.00    +0.038 C 
ENDBRANCH  24  25
ENDBRANCH   3  24
TORSDOF 9
ENDMDL
MODEL 3
REMARK VINA RESULT:      -7.5      2.690      7.120
REMARK  Name = NuBBE_1760
REMARK  15 active torsions:
REMARK  status: ('A' for Active; 'I' for Inactive)
REMARK    1  A    between atoms: C_2  and  O_3
REMARK    2  A    between atoms: C_2  and  C_5
REMARK    3  A    between atoms: O_3  and  C_4
REMARK    4  A    between atoms: C_7  and  C_8
REMARK    5  A    between atoms: C_8  and  C_9
REMARK    6  A    between atoms: C_10  and  C_11
REMARK    7  A    between atoms: C_10  and  C_12
REMARK    8  A    between atoms: C_15  and  C_17
REMARK    9  A    between atoms: C_17  and  C_18
REMARK   10  A    between atoms: C_17  and  O_19
REMARK   11  A    between atoms: C_17  and  C_20
REMARK   12  A    between atoms: C_20  and  C_21
REMARK   13  A    between atoms: C_21  and  C_22
REMARK   14  A    between atoms: C_23  and  C_24
REMARK   15  A    between atoms: C_23  and  C_25
REMARK                            x       y       z     vdW  Elec       q    Type
REMARK                         _______ _______ _______ _____ _____    ______ ____
ROOT
ATOM      1  C   LIG A   1      -7.189  -1.546 127.908  0.00  0.00    +0.060 A 
ATOM      2  C   LIG A   1      -7.265  -2.526 126.897  0.00  0.00    +0.022 A 
ATOM      3  C   LIG A   1      -7.976  -2.292 125.702  0.00  0.00    -0.001 A 
ATOM      4  C   LIG A   1      -8.627  -1.070 125.590  0.00  0.00    +0.128 A 
ATOM      5  O   LIG A   1      -9.291  -0.623 124.474  0.00  0.00    -0.485 OA
ATOM      6  C   LIG A   1      -9.479   0.816 124.696  0.00  0.00    +0.209 C 
ATOM      7  C   LIG A   1      -9.334   1.090 126.201  0.00  0.00    +0.086 C 
ATOM      8  C   LIG A   1      -8.592  -0.123 126.600  0.00  0.00    -0.001 A 
ATOM      9  C   LIG A   1      -7.895  -0.343 127.768  0.00  0.00    +0.022 A 
ENDROOT
BRANCH   1  11
ATOM     10  O   LIG A   1      -5.141  -1.387 129.173  0.00  0.00    -0.245 OA
ATOM     11  C   LIG A   1      -6.304  -1.772 129.085  0.00  0.00    +0.339 C 
BRANCH  11  12
ATOM     12  O   LIG A   1      -7.014  -2.426 130.027  0.00  0.00    -0.465 OA
ATOM     13  C   LIG A   1      -6.519  -3.699 130.435  0.00  0.00    +0.280 C 
ENDBRANCH  11  12
ENDBRANCH   1  11
BRANCH   6  14
ATOM     14  C   LIG A   1      -8.509   1.625 123.765  0.00  0.00    +0.101 C 
ATOM     15  C   LIG A   1      -7.378   0.760 123.188  0.00  0.00    +0.045 C 
BRANCH  14  16
ATOM     16  O   LIG A   1      -9.280   2.082 122.638  0.00  0.00    -0.385 OA
ATOM     17  H   LIG A   1      -8.982   1.557 121.869  0.00  0.00    +0.210 HD
ENDBRANCH  14  16
BRANCH  14  18
ATOM     18  C   LIG A   1      -7.979   2.887 124.505  0.00  0.00    +0.042 C 
BRANCH  18  19
ATOM     19  C   LIG A   1      -6.449   2.973 124.638  0.00  0.00    +0.030 C 
BRANCH  19  20
ATOM     20  C   LIG A   1      -5.945   2.827 126.057  0.00  0.00    -0.028 C 
ATOM     21  C   LIG A   1      -5.255   1.798 126.594  0.00  0.00    -0.080 C 
ATOM     22  C   LIG A   1      -4.971   0.488 125.912  0.00  0.00    +0.038 C 
ATOM     23  C   LIG A   1      -4.687   1.885 127.990  0.00  0.00    +0.038 C 
ENDBRANCH  19  20
ENDBRANCH  18  19
ENDBRANCH  14  18
ENDBRANCH   6  14
BRANCH   3  24
ATOM     24  C   LIG A   1      -8.036  -3.315 124.590  0.00  0.00    +0.066 C 
BRANCH  24  25
ATOM     25  C   LIG A   1      -6.759  -4.104 124.431  0.00  0.00    -0.023 C 
ATOM     26  C   LIG A   1      -5.616  -3.720 123.827  0.00  0.00    -0.079 C 
ATOM     27  C   LIG A   1      -5.377  -2.371 123.209  0.00  0.00    +0.038 C 
ATOM     28  C   LIG A   1      -4.453  -4.670 123.705  0.00  0.00    +0.038 C 
ENDBRANCH  24  25
ENDBRANCH   3  24
TORSDOF 9
ENDMDL
MODEL 4
REMARK VINA RESULT:      -7.3      5.456      8.212
REMARK  Name = NuBBE_1760
REMARK  15 active torsions:
REMARK  status: ('A' for Active; 'I' for Inactive)
REMARK    1  A    between atoms: C_2  and  O_3
REMARK    2  A    between atoms: C_2  and  C_5
REMARK    3  A    between atoms: O_3  and  C_4
REMARK    4  A    between atoms: C_7  and  C_8
REMARK    5  A    between atoms: C_8  and  C_9
REMARK    6  A    between atoms: C_10  and  C_11
REMARK    7  A    between atoms: C_10  and  C_12
REMARK    8  A    between atoms: C_15  and  C_17
REMARK    9  A    between atoms: C_17  and  C_18
REMARK   10  A    between atoms: C_17  and  O_19
REMARK   11  A    between atoms: C_17  and  C_20
REMARK   12  A    between atoms: C_20  and  C_21
REMARK   13  A    between atoms: C_21  and  C_22
REMARK   14  A    between atoms: C_23  and  C_24
REMARK   15  A    between atoms: C_23  and  C_25
REMARK                            x       y       z     vdW  Elec       q    Type
REMARK                         _______ _______ _______ _____ _____    ______ ____
ROOT
ATOM      1  C   LIG A   1     -10.754   6.087 130.964  0.00  0.00    +0.060 A 
ATOM      2  C   LIG A   1      -9.553   6.541 131.546  0.00  0.00    +0.022 A 
ATOM      3  C   LIG A   1      -8.387   5.748 131.532  0.00  0.00    -0.001 A 
ATOM      4  C   LIG A   1      -8.493   4.488 130.956  0.00  0.00    +0.128 A 
ATOM      5  O   LIG A   1      -7.454   3.611 130.767  0.00  0.00    -0.485 OA
ATOM      6  C   LIG A   1      -7.967   2.615 129.818  0.00  0.00    +0.209 C 
ATOM      7  C   LIG A   1      -9.502   2.674 129.846  0.00  0.00    +0.086 C 
ATOM      8  C   LIG A   1      -9.683   4.022 130.423  0.00  0.00    -0.001 A 
ATOM      9  C   LIG A   1     -10.825   4.793 130.428  0.00  0.00    +0.022 A 
ENDROOT
BRANCH   1  11
ATOM     10  O   LIG A   1     -12.933   6.940 131.550  0.00  0.00    -0.245 OA
ATOM     11  C   LIG A   1     -11.917   7.013 130.863  0.00  0.00    +0.339 C 
BRANCH  11  12
ATOM     12  O   LIG A   1     -11.635   7.946 129.931  0.00  0.00    -0.465 OA
ATOM     13  C   LIG A   1     -12.719   8.756 129.484  0.00  0.00    +0.280 C 
ENDBRANCH  11  12
ENDBRANCH   1  11
BRANCH   6  14
ATOM     14  C   LIG A   1      -7.307   2.837 128.411  0.00  0.00    +0.101 C 
ATOM     15  C   LIG A   1      -7.165   1.534 127.608  0.00  0.00    +0.045 C 
BRANCH  14  16
ATOM     16  O   LIG A   1      -8.193   3.682 127.652  0.00  0.00    -0.385 OA
ATOM     17  H   LIG A   1      -9.086   3.554 128.028  0.00  0.00    +0.210 HD
ENDBRANCH  14  16
BRANCH  14  18
ATOM     18  C   LIG A   1      -5.958   3.597 128.562  0.00  0.00    +0.042 C 
BRANCH  18  19
ATOM     19  C   LIG A   1      -5.431   4.255 127.276  0.00  0.00    +0.030 C 
BRANCH  19  20
ATOM     20  C   LIG A   1      -4.167   3.623 126.735  0.00  0.00    -0.028 C 
ATOM     21  C   LIG A   1      -2.888   3.908 127.061  0.00  0.00    -0.080 C 
ATOM     22  C   LIG A   1      -2.445   5.044 127.942  0.00  0.00    +0.038 C 
ATOM     23  C   LIG A   1      -1.746   3.068 126.543  0.00  0.00    +0.038 C 
ENDBRANCH  19  20
ENDBRANCH  18  19
ENDBRANCH  14  18
ENDBRANCH   6  14
BRANCH   3  24
ATOM     24  C   LIG A   1      -7.079   6.233 132.117  0.00  0.00    +0.066 C 
BRANCH  24  25
ATOM     25  C   LIG A   1      -6.223   6.986 131.128  0.00  0.00    -0.023 C 
ATOM     26  C   LIG A   1      -4.953   6.720 130.759  0.00  0.00    -0.079 C 
ATOM     27  C   LIG A   1      -4.135   5.560 131.251  0.00  0.00    +0.038 C 
ATOM     28  C   LIG A   1      -4.226   7.624 129.797  0.00  0.00    +0.038 C 
ENDBRANCH  24  25
ENDBRANCH   3  24
TORSDOF 9
ENDMDL
MODEL 5
REMARK VINA RESULT:      -7.3      5.863      9.613
REMARK  Name = NuBBE_1760
REMARK  15 active torsions:
REMARK  status: ('A' for Active; 'I' for Inactive)
REMARK    1  A    between atoms: C_2  and  O_3
REMARK    2  A    between atoms: C_2  and  C_5
REMARK    3  A    between atoms: O_3  and  C_4
REMARK    4  A    between atoms: C_7  and  C_8
REMARK    5  A    between atoms: C_8  and  C_9
REMARK    6  A    between atoms: C_10  and  C_11
REMARK    7  A    between atoms: C_10  and  C_12
REMARK    8  A    between atoms: C_15  and  C_17
REMARK    9  A    between atoms: C_17  and  C_18
REMARK   10  A    between atoms: C_17  and  O_19
REMARK   11  A    between atoms: C_17  and  C_20
REMARK   12  A    between atoms: C_20  and  C_21
REMARK   13  A    between atoms: C_21  and  C_22
REMARK   14  A    between atoms: C_23  and  C_24
REMARK   15  A    between atoms: C_23  and  C_25
REMARK                            x       y       z     vdW  Elec       q    Type
REMARK                         _______ _______ _______ _____ _____    ______ ____
ROOT
ATOM      1  C   LIG A   1      -2.324   6.826 132.118  0.00  0.00    +0.060 A 
ATOM      2  C   LIG A   1      -3.723   6.933 132.247  0.00  0.00    +0.022 A 
ATOM      3  C   LIG A   1      -4.574   6.811 131.129  0.00  0.00    -0.001 A 
ATOM      4  C   LIG A   1      -3.962   6.621 129.895  0.00  0.00    +0.128 A 
ATOM      5  O   LIG A   1      -4.618   6.390 128.711  0.00  0.00    -0.485 OA
ATOM      6  C   LIG A   1      -3.582   5.895 127.795  0.00  0.00    +0.209 C 
ATOM      7  C   LIG A   1      -2.213   6.315 128.351  0.00  0.00    +0.086 C 
ATOM      8  C   LIG A   1      -2.586   6.560 129.759  0.00  0.00    -0.001 A 
ATOM      9  C   LIG A   1      -1.749   6.674 130.848  0.00  0.00    +0.022 A 
ENDROOT
BRANCH   1  11
ATOM     10  O   LIG A   1      -1.845   6.430 134.450  0.00  0.00    -0.245 OA
ATOM     11  C   LIG A   1      -1.473   6.809 133.342  0.00  0.00    +0.339 C 
BRANCH  11  12
ATOM     12  O   LIG A   1      -0.239   7.235 133.003  0.00  0.00    -0.465 OA
ATOM     13  C   LIG A   1       0.155   8.513 133.495  0.00  0.00    +0.280 C 
ENDBRANCH  11  12
ENDBRANCH   1  11
BRANCH   6  14
ATOM     14  C   LIG A   1      -3.774   4.355 127.563  0.00  0.00    +0.101 C 
ATOM     15  C   LIG A   1      -4.195   4.018 126.124  0.00  0.00    +0.045 C 
BRANCH  14  16
ATOM     16  O   LIG A   1      -2.493   3.729 127.763  0.00  0.00    -0.385 OA
ATOM     17  H   LIG A   1      -2.128   3.556 126.873  0.00  0.00    +0.210 HD
ENDBRANCH  14  16
BRANCH  14  18
ATOM     18  C   LIG A   1      -4.748   3.767 128.625  0.00  0.00    +0.042 C 
BRANCH  18  19
ATOM     19  C   LIG A   1      -4.129   2.727 129.574  0.00  0.00    +0.030 C 
BRANCH  19  20
ATOM     20  C   LIG A   1      -3.702   3.292 130.912  0.00  0.00    -0.028 C 
ATOM     21  C   LIG A   1      -3.740   2.690 132.120  0.00  0.00    -0.080 C 
ATOM     22  C   LIG A   1      -4.369   1.355 132.410  0.00  0.00    +0.038 C 
ATOM     23  C   LIG A   1      -3.123   3.341 133.334  0.00  0.00    +0.038 C 
ENDBRANCH  19  20
ENDBRANCH  18  19
ENDBRANCH  14  18
ENDBRANCH   6  14
BRANCH   3  24
ATOM     24  C   LIG A   1      -6.079   6.884 131.253  0.00  0.00    +0.066 C 
BRANCH  24  25
ATOM     25  C   LIG A   1      -6.750   5.531 131.220  0.00  0.00    -0.023 C 
ATOM     26  C   LIG A   1      -6.932   4.671 132.242  0.00  0.00    -0.079 C 
ATOM     27  C   LIG A   1      -6.521   4.921 133.666  0.00  0.00    +0.038 C 
ATOM     28  C   LIG A   1      -7.572   3.326 132.012  0.00  0.00    +0.038 C 
ENDBRANCH  24  25
ENDBRANCH   3  24
TORSDOF 9
ENDMDL
MODEL 6
REMARK VINA RESULT:      -7.3      7.192      9.447
REMARK  Name = NuBBE_1760
REMARK  15 active torsions:
REMARK  status: ('A' for Active; 'I' for Inactive)
REMARK    1  A    between atoms: C_2  and  O_3
REMARK    2  A    between atoms: C_2  and  C_5
REMARK    3  A    between atoms: O_3  and  C_4
REMARK    4  A    between atoms: C_7  and  C_8
REMARK    5  A    between atoms: C_8  and  C_9
REMARK    6  A    between atoms: C_10  and  C_11
REMARK    7  A    between atoms: C_10  and  C_12
REMARK    8  A    between atoms: C_15  and  C_17
REMARK    9  A    between atoms: C_17  and  C_18
REMARK   10  A    between atoms: C_17  and  O_19
REMARK   11  A    between atoms: C_17  and  C_20
REMARK   12  A    between atoms: C_20  and  C_21
REMARK   13  A    between atoms: C_21  and  C_22
REMARK   14  A    between atoms: C_23  and  C_24
REMARK   15  A    between atoms: C_23  and  C_25
REMARK                            x       y       z     vdW  Elec       q    Type
REMARK                         _______ _______ _______ _____ _____    ______ ____
ROOT
ATOM      1  C   LIG A   1      -5.770   6.679 131.701  0.00  0.00    +0.060 A 
ATOM      2  C   LIG A   1      -5.780   6.053 132.964  0.00  0.00    +0.022 A 
ATOM      3  C   LIG A   1      -6.944   5.435 133.467  0.00  0.00    -0.001 A 
ATOM      4  C   LIG A   1      -8.084   5.510 132.676  0.00  0.00    +0.128 A 
ATOM      5  O   LIG A   1      -9.282   4.896 132.950  0.00  0.00    -0.485 OA
ATOM      6  C   LIG A   1     -10.031   4.952 131.689  0.00  0.00    +0.209 C 
ATOM      7  C   LIG A   1      -9.416   6.055 130.815  0.00  0.00    +0.086 C 
ATOM      8  C   LIG A   1      -8.089   6.163 131.456  0.00  0.00    -0.001 A 
ATOM      9  C   LIG A   1      -6.955   6.764 130.956  0.00  0.00    +0.022 A 
ENDROOT
BRANCH   1  11
ATOM     10  O   LIG A   1      -3.500   7.486 131.810  0.00  0.00    -0.245 OA
ATOM     11  C   LIG A   1      -4.485   7.184 131.141  0.00  0.00    +0.339 C 
BRANCH  11  12
ATOM     12  O   LIG A   1      -4.590   7.206 129.797  0.00  0.00    -0.465 OA
ATOM     13  C   LIG A   1      -3.628   7.985 129.091  0.00  0.00    +0.280 C 
ENDBRANCH  11  12
ENDBRANCH   1  11
BRANCH   6  14
ATOM     14  C   LIG A   1     -10.080   3.524 131.040  0.00  0.00    +0.101 C 
ATOM     15  C   LIG A   1      -9.851   2.398 132.061  0.00  0.00    +0.045 C 
BRANCH  14  16
ATOM     16  O   LIG A   1     -11.411   3.334 130.523  0.00  0.00    -0.385 OA
ATOM     17  H   LIG A   1     -11.422   2.448 130.109  0.00  0.00    +0.210 HD
ENDBRANCH  14  16
BRANCH  14  18
ATOM     18  C   LIG A   1      -9.100   3.446 129.833  0.00  0.00    +0.042 C 
BRANCH  18  19
ATOM     19  C   LIG A   1      -7.947   2.442 129.992  0.00  0.00    +0.030 C 
BRANCH  19  20
ATOM     20  C   LIG A   1      -6.571   3.071 129.939  0.00  0.00    -0.028 C 
ATOM     21  C   LIG A   1      -5.567   2.954 130.834  0.00  0.00    -0.080 C 
ATOM     22  C   LIG A   1      -5.667   2.278 132.174  0.00  0.00    +0.038 C 
ATOM     23  C   LIG A   1      -4.198   3.520 130.547  0.00  0.00    +0.038 C 
ENDBRANCH  19  20
ENDBRANCH  18  19
ENDBRANCH  14  18
ENDBRANCH   6  14
BRANCH   3  24
ATOM     24  C   LIG A   1      -6.963   4.725 134.802  0.00  0.00    +0.066 C 
BRANCH  24  25
ATOM     25  C   LIG A   1      -7.711   5.482 135.873  0.00  0.00    -0.023 C 
ATOM     26  C   LIG A   1      -7.217   6.363 136.766  0.00  0.00    -0.079 C 
ATOM     27  C   LIG A   1      -5.782   6.805 136.840  0.00  0.00    +0.038 C 
ATOM     28  C   LIG A   1      -8.108   6.980 137.812  0.00  0.00    +0.038 C 
ENDBRANCH  24  25
ENDBRANCH   3  24
TORSDOF 9
ENDMDL
MODEL 7
REMARK VINA RESULT:      -7.2      7.846      9.871
REMARK  Name = NuBBE_1760
REMARK  15 active torsions:
REMARK  status: ('A' for Active; 'I' for Inactive)
REMARK    1  A    between atoms: C_2  and  O_3
REMARK    2  A    between atoms: C_2  and  C_5
REMARK    3  A    between atoms: O_3  and  C_4
REMARK    4  A    between atoms: C_7  and  C_8
REMARK    5  A    between atoms: C_8  and  C_9
REMARK    6  A    between atoms: C_10  and  C_11
REMARK    7  A    between atoms: C_10  and  C_12
REMARK    8  A    between atoms: C_15  and  C_17
REMARK    9  A    between atoms: C_17  and  C_18
REMARK   10  A    between atoms: C_17  and  O_19
REMARK   11  A    between atoms: C_17  and  C_20
REMARK   12  A    between atoms: C_20  and  C_21
REMARK   13  A    between atoms: C_21  and  C_22
REMARK   14  A    between atoms: C_23  and  C_24
REMARK   15  A    between atoms: C_23  and  C_25
REMARK                            x       y       z     vdW  Elec       q    Type
REMARK                         _______ _______ _______ _____ _____    ______ ____
ROOT
ATOM      1  C   LIG A   1      -5.413   6.258 131.974  0.00  0.00    +0.060 A 
ATOM      2  C   LIG A   1      -5.938   5.718 133.165  0.00  0.00    +0.022 A 
ATOM      3  C   LIG A   1      -7.329   5.679 133.401  0.00  0.00    -0.001 A 
ATOM      4  C   LIG A   1      -8.145   6.235 132.423  0.00  0.00    +0.128 A 
ATOM      5  O   LIG A   1      -9.518   6.212 132.428  0.00  0.00    -0.485 OA
ATOM      6  C   LIG A   1      -9.907   6.571 131.058  0.00  0.00    +0.209 C 
ATOM      7  C   LIG A   1      -8.718   7.281 130.394  0.00  0.00    +0.086 C 
ATOM      8  C   LIG A   1      -7.629   6.806 131.273  0.00  0.00    -0.001 A 
ATOM      9  C   LIG A   1      -6.272   6.843 131.034  0.00  0.00    +0.022 A 
ENDROOT
BRANCH   1  11
ATOM     10  O   LIG A   1      -3.315   5.092 131.726  0.00  0.00    -0.245 OA
ATOM     11  C   LIG A   1      -3.953   6.141 131.697  0.00  0.00    +0.339 C 
BRANCH  11  12
ATOM     12  O   LIG A   1      -3.486   7.365 131.376  0.00  0.00    -0.465 OA
ATOM     13  C   LIG A   1      -2.805   8.081 132.404  0.00  0.00    +0.280 C 
ENDBRANCH  11  12
ENDBRANCH   1  11
BRANCH   6  14
ATOM     14  C   LIG A   1     -10.439   5.299 130.309  0.00  0.00    +0.101 C 
ATOM     15  C   LIG A   1     -11.947   5.366 130.020  0.00  0.00    +0.045 C 
BRANCH  14  16
ATOM     16  O   LIG A   1      -9.786   5.255 129.026  0.00  0.00    -0.385 OA
ATOM     17  H   LIG A   1      -9.613   6.183 128.772  0.00  0.00    +0.210 HD
ENDBRANCH  14  16
BRANCH  14  18
ATOM     18  C   LIG A   1     -10.034   4.010 131.080  0.00  0.00    +0.042 C 
BRANCH  18  19
ATOM     19  C   LIG A   1      -9.188   3.008 130.277  0.00  0.00    +0.030 C 
BRANCH  19  20
ATOM     20  C   LIG A   1      -7.716   3.020 130.634  0.00  0.00    -0.028 C 
ATOM     21  C   LIG A   1      -7.111   2.443 131.694  0.00  0.00    -0.080 C 
ATOM     22  C   LIG A   1      -7.816   1.778 132.845  0.00  0.00    +0.038 C 
ATOM     23  C   LIG A   1      -5.607   2.416 131.813  0.00  0.00    +0.038 C 
ENDBRANCH  19  20
ENDBRANCH  18  19
ENDBRANCH  14  18
ENDBRANCH   6  14
BRANCH   3  24
ATOM     24  C   LIG A   1      -7.914   5.069 134.655  0.00  0.00    +0.066 C 
BRANCH  24  25
ATOM     25  C   LIG A   1      -6.986   5.135 135.844  0.00  0.00    -0.023 C 
ATOM     26  C   LIG A   1      -7.055   5.963 136.905  0.00  0.00    -0.079 C 
ATOM     27  C   LIG A   1      -8.130   6.988 137.133  0.00  0.00    +0.038 C 
ATOM     28  C   LIG A   1      -5.997   5.930 137.977  0.00  0.00    +0.038 C 
ENDBRANCH  24  25
ENDBRANCH   3  24
TORSDOF 9
ENDMDL
MODEL 8
REMARK VINA RESULT:      -7.1      2.154      3.027
REMARK  Name = NuBBE_1760
REMARK  15 active torsions:
REMARK  status: ('A' for Active; 'I' for Inactive)
REMARK    1  A    between atoms: C_2  and  O_3
REMARK    2  A    between atoms: C_2  and  C_5
REMARK    3  A    between atoms: O_3  and  C_4
REMARK    4  A    between atoms: C_7  and  C_8
REMARK    5  A    between atoms: C_8  and  C_9
REMARK    6  A    between atoms: C_10  and  C_11
REMARK    7  A    between atoms: C_10  and  C_12
REMARK    8  A    between atoms: C_15  and  C_17
REMARK    9  A    between atoms: C_17  and  C_18
REMARK   10  A    between atoms: C_17  and  O_19
REMARK   11  A    between atoms: C_17  and  C_20
REMARK   12  A    between atoms: C_20  and  C_21
REMARK   13  A    between atoms: C_21  and  C_22
REMARK   14  A    between atoms: C_23  and  C_24
REMARK   15  A    between atoms: C_23  and  C_25
REMARK                            x       y       z     vdW  Elec       q    Type
REMARK                         _______ _______ _______ _____ _____    ______ ____
ROOT
ATOM      1  C   LIG A   1      -7.755   3.116 123.600  0.00  0.00    +0.060 A 
ATOM      2  C   LIG A   1      -6.755   3.871 124.246  0.00  0.00    +0.022 A 
ATOM      3  C   LIG A   1      -6.471   3.689 125.615  0.00  0.00    -0.001 A 
ATOM      4  C   LIG A   1      -7.249   2.763 126.299  0.00  0.00    +0.128 A 
ATOM      5  O   LIG A   1      -7.066   2.383 127.606  0.00  0.00    -0.485 OA
ATOM      6  C   LIG A   1      -7.859   1.156 127.757  0.00  0.00    +0.209 C 
ATOM      7  C   LIG A   1      -8.898   1.116 126.626  0.00  0.00    +0.086 C 
ATOM      8  C   LIG A   1      -8.262   2.053 125.677  0.00  0.00    -0.001 A 
ATOM      9  C   LIG A   1      -8.542   2.221 124.339  0.00  0.00    +0.022 A 
ENDROOT
BRANCH   1  11
ATOM     10  O   LIG A   1      -8.983   3.088 121.523  0.00  0.00    -0.245 OA
ATOM     11  C   LIG A   1      -7.920   3.228 122.123  0.00  0.00    +0.339 C 
BRANCH  11  12
ATOM     12  O   LIG A   1      -6.723   3.543 121.587  0.00  0.00    -0.465 OA
ATOM     13  C   LIG A   1      -6.724   3.997 120.236  0.00  0.00    +0.280 C 
ENDBRANCH  11  12
ENDBRANCH   1  11
BRANCH   6  14
ATOM     14  C   LIG A   1      -6.903  -0.085 127.841  0.00  0.00    +0.101 C 
ATOM     15  C   LIG A   1      -5.483   0.224 127.341  0.00  0.00    +0.045 C 
BRANCH  14  16
ATOM     16  O   LIG A   1      -6.771  -0.430 129.233  0.00  0.00    -0.385 OA
ATOM     17  H   LIG A   1      -7.591  -0.127 129.671  0.00  0.00    +0.210 HD
ENDBRANCH  14  16
BRANCH  14  18
ATOM     18  C   LIG A   1      -7.540  -1.307 127.119  0.00  0.00    +0.042 C 
BRANCH  18  19
ATOM     19  C   LIG A   1      -6.723  -1.871 125.946  0.00  0.00    +0.030 C 
BRANCH  19  20
ATOM     20  C   LIG A   1      -7.301  -1.552 124.583  0.00  0.00    -0.028 C 
ATOM     21  C   LIG A   1      -8.334  -2.153 123.955  0.00  0.00    -0.080 C 
ATOM     22  C   LIG A   1      -9.043  -3.391 124.432  0.00  0.00    +0.038 C 
ATOM     23  C   LIG A   1      -8.886  -1.603 122.663  0.00  0.00    +0.038 C 
ENDBRANCH  19  20
ENDBRANCH  18  19
ENDBRANCH  14  18
ENDBRANCH   6  14
BRANCH   3  24
ATOM     24  C   LIG A   1      -5.376   4.461 126.317  0.00  0.00    +0.066 C 
BRANCH  24  25
ATOM     25  C   LIG A   1      -3.992   3.925 126.041  0.00  0.00    -0.023 C 
ATOM     26  C   LIG A   1      -3.120   3.388 126.918  0.00  0.00    -0.079 C 
ATOM     27  C   LIG A   1      -3.385   3.178 128.382  0.00  0.00    +0.038 C 
ATOM     28  C   LIG A   1      -1.746   2.960 126.472  0.00  0.00    +0.038 C 
ENDBRANCH  24  25
ENDBRANCH   3  24
TORSDOF 9
ENDMDL
MODEL 9
REMARK VINA RESULT:      -7.1      7.108      9.498
REMARK  Name = NuBBE_1760
REMARK  15 active torsions:
REMARK  status: ('A' for Active; 'I' for Inactive)
REMARK    1  A    between atoms: C_2  and  O_3
REMARK    2  A    between atoms: C_2  and  C_5
REMARK    3  A    between atoms: O_3  and  C_4
REMARK    4  A    between atoms: C_7  and  C_8
REMARK    5  A    between atoms: C_8  and  C_9
REMARK    6  A    between atoms: C_10  and  C_11
REMARK    7  A    between atoms: C_10  and  C_12
REMARK    8  A    between atoms: C_15  and  C_17
REMARK    9  A    between atoms: C_17  and  C_18
REMARK   10  A    between atoms: C_17  and  O_19
REMARK   11  A    between atoms: C_17  and  C_20
REMARK   12  A    between atoms: C_20  and  C_21
REMARK   13  A    between atoms: C_21  and  C_22
REMARK   14  A    between atoms: C_23  and  C_24
REMARK   15  A    between atoms: C_23  and  C_25
REMARK                            x       y       z     vdW  Elec       q    Type
REMARK                         _______ _______ _______ _____ _____    ______ ____
ROOT
ATOM      1  C   LIG A   1      -6.066   6.301 130.698  0.00  0.00    +0.060 A 
ATOM      2  C   LIG A   1      -7.361   6.803 130.937  0.00  0.00    +0.022 A 
ATOM      3  C   LIG A   1      -8.504   5.995 130.760  0.00  0.00    -0.001 A 
ATOM      4  C   LIG A   1      -8.291   4.700 130.302  0.00  0.00    +0.128 A 
ATOM      5  O   LIG A   1      -9.262   3.740 130.155  0.00  0.00    -0.485 OA
ATOM      6  C   LIG A   1      -8.526   2.477 130.013  0.00  0.00    +0.209 C 
ATOM      7  C   LIG A   1      -7.086   2.808 129.591  0.00  0.00    +0.086 C 
ATOM      8  C   LIG A   1      -7.023   4.219 130.023  0.00  0.00    -0.001 A 
ATOM      9  C   LIG A   1      -5.902   5.001 130.198  0.00  0.00    +0.022 A 
ENDROOT
BRANCH   1  11
ATOM     10  O   LIG A   1      -4.138   6.937 132.000  0.00  0.00    -0.245 OA
ATOM     11  C   LIG A   1      -4.880   7.135 131.042  0.00  0.00    +0.339 C 
BRANCH  11  12
ATOM     12  O   LIG A   1      -4.755   8.097 130.105  0.00  0.00    -0.465 OA
ATOM     13  C   LIG A   1      -3.715   7.925 129.145  0.00  0.00    +0.280 C 
ENDBRANCH  11  12
ENDBRANCH   1  11
BRANCH   6  14
ATOM     14  C   LIG A   1      -8.667   1.632 131.328  0.00  0.00    +0.101 C 
ATOM     15  C   LIG A   1     -10.004   1.871 132.048  0.00  0.00    +0.045 C 
BRANCH  14  16
ATOM     16  O   LIG A   1      -8.659   0.243 130.946  0.00  0.00    -0.385 OA
ATOM     17  H   LIG A   1      -7.969  -0.188 131.488  0.00  0.00    +0.210 HD
ENDBRANCH  14  16
BRANCH  14  18
ATOM     18  C   LIG A   1      -7.439   1.865 132.253  0.00  0.00    +0.042 C 
BRANCH  18  19
ATOM     19  C   LIG A   1      -7.721   2.693 133.518  0.00  0.00    +0.030 C 
BRANCH  19  20
ATOM     20  C   LIG A   1      -6.664   3.734 133.820  0.00  0.00    -0.028 C 
ATOM     21  C   LIG A   1      -6.842   4.995 134.270  0.00  0.00    -0.080 C 
ATOM     22  C   LIG A   1      -8.169   5.687 134.424  0.00  0.00    +0.038 C 
ATOM     23  C   LIG A   1      -5.667   5.850 134.674  0.00  0.00    +0.038 C 
ENDBRANCH  19  20
ENDBRANCH  18  19
ENDBRANCH  14  18
ENDBRANCH   6  14
BRANCH   3  24
ATOM     24  C   LIG A   1      -9.899   6.502 131.049  0.00  0.00    +0.066 C 
BRANCH  24  25
ATOM     25  C   LIG A   1     -10.390   7.513 130.041  0.00  0.00    -0.023 C 
ATOM     26  C   LIG A   1     -11.486   7.439 129.258  0.00  0.00    -0.079 C 
ATOM     27  C   LIG A   1     -12.482   6.313 129.270  0.00  0.00    +0.038 C 
ATOM     28  C   LIG A   1     -11.790   8.522 128.255  0.00  0.00    +0.038 C 
ENDBRANCH  24  25
ENDBRANCH   3  24
TORSDOF 9
ENDMDL
