MODEL 1
REMARK VINA RESULT:      -7.3      0.000      0.000
REMARK  Name = NuBBE_2224
REMARK  5 active torsions:
REMARK  status: ('A' for Active; 'I' for Inactive)
REMARK    1  A    between atoms: O_1  and  C_2
REMARK    2  A    between atoms: O_1  and  C_3
REMARK    3  A    between atoms: C_5  and  C_6
REMARK    4  A    between atoms: C_14  and  O_16
REMARK    5  A    between atoms: C_19  and  O_20
REMARK                            x       y       z     vdW  Elec       q    Type
REMARK                         _______ _______ _______ _____ _____    ______ ____
ROOT
ATOM      1  C   LIG A   1      -7.486   2.594 123.369  0.00  0.00    +0.204 C 
ATOM      2  O   LIG A   1      -7.951   1.331 122.865  0.00  0.00    -0.484 OA
ATOM      3  C   LIG A   1      -8.246   0.379 123.799  0.00  0.00    +0.128 A 
ATOM      4  C   LIG A   1      -7.894   0.477 125.149  0.00  0.00    -0.005 A 
ATOM      5  C   LIG A   1      -7.176   1.690 125.662  0.00  0.00    +0.043 C 
ATOM      6  C   LIG A   1      -6.492   2.424 124.519  0.00  0.00    +0.054 C 
ATOM      7  C   LIG A   1      -8.243  -0.562 126.024  0.00  0.00    +0.011 A 
ATOM      8  C   LIG A   1      -8.906  -1.696 125.548  0.00  0.00    +0.046 A 
ATOM      9  C   LIG A   1      -9.225  -1.784 124.197  0.00  0.00    +0.120 A 
ATOM     10  C   LIG A   1      -8.899  -0.757 123.322  0.00  0.00    +0.091 A 
ENDROOT
BRANCH   1  13
ATOM     11  C   LIG A   1      -6.996   4.287 119.954  0.00  0.00    +0.162 A 
ATOM     12  C   LIG A   1      -7.549   3.564 121.025  0.00  0.00    +0.056 A 
ATOM     13  C   LIG A   1      -6.846   3.365 122.225  0.00  0.00    -0.004 A 
ATOM     14  C   LIG A   1      -5.565   3.920 122.342  0.00  0.00    +0.011 A 
ATOM     15  C   LIG A   1      -5.001   4.638 121.288  0.00  0.00    +0.049 A 
ATOM     16  C   LIG A   1      -5.713   4.825 120.100  0.00  0.00    +0.159 A 
BRANCH  11  17
ATOM     17  O   LIG A   1      -7.835   4.365 118.876  0.00  0.00    -0.491 OA
ATOM     18  C   LIG A   1      -9.235   4.287 119.109  0.00  0.00    +0.277 C 
ENDBRANCH  11  17
BRANCH  16  19
ATOM     19  O   LIG A   1      -5.119   5.548 119.101  0.00  0.00    -0.503 OA
ATOM     20  H   LIG A   1      -4.207   5.237 118.988  0.00  0.00    +0.292 HD
ENDBRANCH  16  19
ENDBRANCH   1  13
BRANCH   9  21
ATOM     21  O   LIG A   1      -9.866  -2.875 123.688  0.00  0.00    -0.507 OA
ATOM     22  H   LIG A   1      -9.243  -3.371 123.133  0.00  0.00    +0.292 HD
ENDBRANCH   9  21
TORSDOF 4
ENDMDL
MODEL 2
REMARK VINA RESULT:      -7.2      8.664     10.680
REMARK  Name = NuBBE_2224
REMARK  5 active torsions:
REMARK  status: ('A' for Active; 'I' for Inactive)
REMARK    1  A    between atoms: O_1  and  C_2
REMARK    2  A    between atoms: O_1  and  C_3
REMARK    3  A    between atoms: C_5  and  C_6
REMARK    4  A    between atoms: C_14  and  O_16
REMARK    5  A    between atoms: C_19  and  O_20
REMARK                            x       y       z     vdW  Elec       q    Type
REMARK                         _______ _______ _______ _____ _____    ______ ____
ROOT
ATOM      1  C   LIG A   1      -8.886   6.221 131.069  0.00  0.00    +0.204 C 
ATOM      2  O   LIG A   1      -7.720   6.956 130.659  0.00  0.00    -0.484 OA
ATOM      3  C   LIG A   1      -6.575   6.717 131.365  0.00  0.00    +0.128 A 
ATOM      4  C   LIG A   1      -6.537   6.014 132.573  0.00  0.00    -0.005 A 
ATOM      5  C   LIG A   1      -7.793   5.442 133.161  0.00  0.00    +0.043 C 
ATOM      6  C   LIG A   1      -9.014   6.149 132.592  0.00  0.00    +0.054 C 
ATOM      7  C   LIG A   1      -5.306   5.828 133.218  0.00  0.00    +0.011 A 
ATOM      8  C   LIG A   1      -4.135   6.365 132.678  0.00  0.00    +0.046 A 
ATOM      9  C   LIG A   1      -4.199   7.082 131.487  0.00  0.00    +0.120 A 
ATOM     10  C   LIG A   1      -5.408   7.261 130.830  0.00  0.00    +0.091 A 
ENDROOT
BRANCH   1  13
ATOM     11  C   LIG A   1     -11.163   8.077 128.593  0.00  0.00    +0.162 A 
ATOM     12  C   LIG A   1     -10.044   7.473 129.190  0.00  0.00    +0.056 A 
ATOM     13  C   LIG A   1     -10.113   6.884 130.464  0.00  0.00    -0.004 A 
ATOM     14  C   LIG A   1     -11.342   6.900 131.136  0.00  0.00    +0.011 A 
ATOM     15  C   LIG A   1     -12.462   7.499 130.558  0.00  0.00    +0.049 A 
ATOM     16  C   LIG A   1     -12.375   8.082 129.290  0.00  0.00    +0.159 A 
BRANCH  11  17
ATOM     17  O   LIG A   1     -10.889   8.595 127.355  0.00  0.00    -0.491 OA
ATOM     18  C   LIG A   1     -10.921   7.716 126.239  0.00  0.00    +0.277 C 
ENDBRANCH  11  17
BRANCH  16  19
ATOM     19  O   LIG A   1     -13.506   8.644 128.763  0.00  0.00    -0.503 OA
ATOM     20  H   LIG A   1     -13.879   8.039 128.101  0.00  0.00    +0.292 HD
ENDBRANCH  16  19
ENDBRANCH   1  13
BRANCH   9  21
ATOM     21  O   LIG A   1      -3.082   7.628 130.926  0.00  0.00    -0.507 OA
ATOM     22  H   LIG A   1      -2.442   7.821 131.631  0.00  0.00    +0.292 HD
ENDBRANCH   9  21
TORSDOF 4
ENDMDL
MODEL 3
REMARK VINA RESULT:      -7.2      8.281      9.765
REMARK  Name = NuBBE_2224
REMARK  5 active torsions:
REMARK  status: ('A' for Active; 'I' for Inactive)
REMARK    1  A    between atoms: O_1  and  C_2
REMARK    2  A    between atoms: O_1  and  C_3
REMARK    3  A    between atoms: C_5  and  C_6
REMARK    4  A    between atoms: C_14  and  O_16
REMARK    5  A    between atoms: C_19  and  O_20
REMARK                            x       y       z     vdW  Elec       q    Type
REMARK                         _______ _______ _______ _____ _____    ______ ____
ROOT
ATOM      1  C   LIG A   1     -10.185   5.948 131.873  0.00  0.00    +0.204 C 
ATOM      2  O   LIG A   1     -10.420   4.603 131.422  0.00  0.00    -0.484 OA
ATOM      3  C   LIG A   1      -9.558   3.650 131.885  0.00  0.00    +0.128 A 
ATOM      4  C   LIG A   1      -8.360   3.938 132.545  0.00  0.00    -0.005 A 
ATOM      5  C   LIG A   1      -7.961   5.360 132.813  0.00  0.00    +0.043 C 
ATOM      6  C   LIG A   1      -8.697   6.302 131.872  0.00  0.00    +0.054 C 
ATOM      7  C   LIG A   1      -7.545   2.882 132.977  0.00  0.00    +0.011 A 
ATOM      8  C   LIG A   1      -7.909   1.557 132.724  0.00  0.00    +0.046 A 
ATOM      9  C   LIG A   1      -9.095   1.293 132.045  0.00  0.00    +0.120 A 
ATOM     10  C   LIG A   1      -9.918   2.328 131.624  0.00  0.00    +0.091 A 
ENDROOT
BRANCH   1  13
ATOM     11  C   LIG A   1     -11.128   8.150 128.869  0.00  0.00    +0.162 A 
ATOM     12  C   LIG A   1     -10.432   7.286 129.731  0.00  0.00    +0.056 A 
ATOM     13  C   LIG A   1     -10.958   6.901 130.976  0.00  0.00    -0.004 A 
ATOM     14  C   LIG A   1     -12.216   7.395 131.345  0.00  0.00    +0.011 A 
ATOM     15  C   LIG A   1     -12.918   8.256 130.502  0.00  0.00    +0.049 A 
ATOM     16  C   LIG A   1     -12.380   8.630 129.267  0.00  0.00    +0.159 A 
BRANCH  11  17
ATOM     17  O   LIG A   1     -10.446   8.406 127.709  0.00  0.00    -0.491 OA
ATOM     18  C   LIG A   1     -10.823   7.691 126.540  0.00  0.00    +0.277 C 
ENDBRANCH  11  17
BRANCH  16  19
ATOM     19  O   LIG A   1     -13.115   9.467 128.472  0.00  0.00    -0.503 OA
ATOM     20  H   LIG A   1     -13.278  10.295 128.952  0.00  0.00    +0.292 HD
ENDBRANCH  16  19
ENDBRANCH   1  13
BRANCH   9  21
ATOM     21  O   LIG A   1      -9.486   0.016 131.771  0.00  0.00    -0.507 OA
ATOM     22  H   LIG A   1      -8.701  -0.555 131.759  0.00  0.00    +0.292 HD
ENDBRANCH   9  21
TORSDOF 4
ENDMDL
MODEL 4
REMARK VINA RESULT:      -7.2      8.431     10.488
REMARK  Name = NuBBE_2224
REMARK  5 active torsions:
REMARK  status: ('A' for Active; 'I' for Inactive)
REMARK    1  A    between atoms: O_1  and  C_2
REMARK    2  A    between atoms: O_1  and  C_3
REMARK    3  A    between atoms: C_5  and  C_6
REMARK    4  A    between atoms: C_14  and  O_16
REMARK    5  A    between atoms: C_19  and  O_20
REMARK                            x       y       z     vdW  Elec       q    Type
REMARK                         _______ _______ _______ _____ _____    ______ ____
ROOT
ATOM      1  C   LIG A   1      -9.541   6.963 130.967  0.00  0.00    +0.204 C 
ATOM      2  O   LIG A   1      -9.418   7.062 129.538  0.00  0.00    -0.484 OA
ATOM      3  C   LIG A   1     -10.586   7.056 128.829  0.00  0.00    +0.128 A 
ATOM      4  C   LIG A   1     -11.827   6.719 129.376  0.00  0.00    -0.005 A 
ATOM      5  C   LIG A   1     -11.948   6.363 130.828  0.00  0.00    +0.043 C 
ATOM      6  C   LIG A   1     -10.597   5.938 131.383  0.00  0.00    +0.054 C 
ATOM      7  C   LIG A   1     -12.965   6.742 128.556  0.00  0.00    +0.011 A 
ATOM      8  C   LIG A   1     -12.857   7.066 127.202  0.00  0.00    +0.046 A 
ATOM      9  C   LIG A   1     -11.607   7.375 126.672  0.00  0.00    +0.120 A 
ATOM     10  C   LIG A   1     -10.475   7.372 127.475  0.00  0.00    +0.091 A 
ENDROOT
BRANCH   1  13
ATOM     11  C   LIG A   1      -5.735   6.731 131.443  0.00  0.00    +0.162 A 
ATOM     12  C   LIG A   1      -7.005   7.040 130.926  0.00  0.00    +0.056 A 
ATOM     13  C   LIG A   1      -8.184   6.591 131.544  0.00  0.00    -0.004 A 
ATOM     14  C   LIG A   1      -8.070   5.825 132.711  0.00  0.00    +0.011 A 
ATOM     15  C   LIG A   1      -6.817   5.507 133.235  0.00  0.00    +0.049 A 
ATOM     16  C   LIG A   1      -5.654   5.960 132.607  0.00  0.00    +0.159 A 
BRANCH  11  17
ATOM     17  O   LIG A   1      -4.715   7.257 130.696  0.00  0.00    -0.491 OA
ATOM     18  C   LIG A   1      -4.184   6.470 129.639  0.00  0.00    +0.277 C 
ENDBRANCH  11  17
BRANCH  16  19
ATOM     19  O   LIG A   1      -4.450   5.632 133.169  0.00  0.00    -0.503 OA
ATOM     20  H   LIG A   1      -4.205   6.317 133.811  0.00  0.00    +0.292 HD
ENDBRANCH  16  19
ENDBRANCH   1  13
BRANCH   9  21
ATOM     21  O   LIG A   1     -11.453   7.692 125.355  0.00  0.00    -0.507 OA
ATOM     22  H   LIG A   1     -11.734   6.934 124.818  0.00  0.00    +0.292 HD
ENDBRANCH   9  21
TORSDOF 4
ENDMDL
MODEL 5
REMARK VINA RESULT:      -7.2      8.552     11.068
REMARK  Name = NuBBE_2224
REMARK  5 active torsions:
REMARK  status: ('A' for Active; 'I' for Inactive)
REMARK    1  A    between atoms: O_1  and  C_2
REMARK    2  A    between atoms: O_1  and  C_3
REMARK    3  A    between atoms: C_5  and  C_6
REMARK    4  A    between atoms: C_14  and  O_16
REMARK    5  A    between atoms: C_19  and  O_20
REMARK                            x       y       z     vdW  Elec       q    Type
REMARK                         _______ _______ _______ _____ _____    ______ ____
ROOT
ATOM      1  C   LIG A   1      -9.599   6.942 130.995  0.00  0.00    +0.204 C 
ATOM      2  O   LIG A   1      -9.422   7.061 129.573  0.00  0.00    -0.484 OA
ATOM      3  C   LIG A   1     -10.561   7.063 128.819  0.00  0.00    +0.128 A 
ATOM      4  C   LIG A   1     -11.822   6.717 129.314  0.00  0.00    -0.005 A 
ATOM      5  C   LIG A   1     -11.998   6.341 130.756  0.00  0.00    +0.043 C 
ATOM      6  C   LIG A   1     -10.668   5.910 131.356  0.00  0.00    +0.054 C 
ATOM      7  C   LIG A   1     -12.928   6.750 128.452  0.00  0.00    +0.011 A 
ATOM      8  C   LIG A   1     -12.768   7.093 127.107  0.00  0.00    +0.046 A 
ATOM      9  C   LIG A   1     -11.500   7.411 126.630  0.00  0.00    +0.120 A 
ATOM     10  C   LIG A   1     -10.399   7.398 127.475  0.00  0.00    +0.091 A 
ENDROOT
BRANCH   1  13
ATOM     11  C   LIG A   1      -7.010   5.461 133.416  0.00  0.00    +0.162 A 
ATOM     12  C   LIG A   1      -8.224   5.842 132.822  0.00  0.00    +0.056 A 
ATOM     13  C   LIG A   1      -8.264   6.564 131.618  0.00  0.00    -0.004 A 
ATOM     14  C   LIG A   1      -7.050   6.894 131.003  0.00  0.00    +0.011 A 
ATOM     15  C   LIG A   1      -5.835   6.526 131.581  0.00  0.00    +0.049 A 
ATOM     16  C   LIG A   1      -5.814   5.808 132.781  0.00  0.00    +0.159 A 
BRANCH  11  17
ATOM     17  O   LIG A   1      -7.184   4.768 134.585  0.00  0.00    -0.491 OA
ATOM     18  C   LIG A   1      -7.262   5.508 135.796  0.00  0.00    +0.277 C 
ENDBRANCH  11  17
BRANCH  16  19
ATOM     19  O   LIG A   1      -4.596   5.460 133.299  0.00  0.00    -0.503 OA
ATOM     20  H   LIG A   1      -4.196   4.780 132.733  0.00  0.00    +0.292 HD
ENDBRANCH  16  19
ENDBRANCH   1  13
BRANCH   9  21
ATOM     21  O   LIG A   1     -11.296   7.746 125.324  0.00  0.00    -0.507 OA
ATOM     22  H   LIG A   1     -10.466   8.245 125.256  0.00  0.00    +0.292 HD
ENDBRANCH   9  21
TORSDOF 4
ENDMDL
MODEL 6
REMARK VINA RESULT:      -7.0      2.760      4.684
REMARK  Name = NuBBE_2224
REMARK  5 active torsions:
REMARK  status: ('A' for Active; 'I' for Inactive)
REMARK    1  A    between atoms: O_1  and  C_2
REMARK    2  A    between atoms: O_1  and  C_3
REMARK    3  A    between atoms: C_5  and  C_6
REMARK    4  A    between atoms: C_14  and  O_16
REMARK    5  A    between atoms: C_19  and  O_20
REMARK                            x       y       z     vdW  Elec       q    Type
REMARK                         _______ _______ _______ _____ _____    ______ ____
ROOT
ATOM      1  C   LIG A   1      -7.968  -0.878 124.769  0.00  0.00    +0.204 C 
ATOM      2  O   LIG A   1      -7.866  -0.520 126.157  0.00  0.00    -0.484 OA
ATOM      3  C   LIG A   1      -8.020  -1.536 127.057  0.00  0.00    +0.128 A 
ATOM      4  C   LIG A   1      -8.500  -2.806 126.723  0.00  0.00    -0.005 A 
ATOM      5  C   LIG A   1      -8.856  -3.137 125.304  0.00  0.00    +0.043 C 
ATOM      6  C   LIG A   1      -9.109  -1.863 124.511  0.00  0.00    +0.054 C 
ATOM      7  C   LIG A   1      -8.623  -3.777 127.728  0.00  0.00    +0.011 A 
ATOM      8  C   LIG A   1      -8.299  -3.472 129.052  0.00  0.00    +0.046 A 
ATOM      9  C   LIG A   1      -7.845  -2.194 129.366  0.00  0.00    +0.120 A 
ATOM     10  C   LIG A   1      -7.705  -1.228 128.380  0.00  0.00    +0.091 A 
ENDROOT
BRANCH   1  13
ATOM     11  C   LIG A   1      -7.244   2.454 122.998  0.00  0.00    +0.162 A 
ATOM     12  C   LIG A   1      -7.099   1.282 123.760  0.00  0.00    +0.056 A 
ATOM     13  C   LIG A   1      -8.167   0.391 123.955  0.00  0.00    -0.004 A 
ATOM     14  C   LIG A   1      -9.399   0.690 123.358  0.00  0.00    +0.011 A 
ATOM     15  C   LIG A   1      -9.559   1.852 122.601  0.00  0.00    +0.049 A 
ATOM     16  C   LIG A   1      -8.486   2.728 122.418  0.00  0.00    +0.159 A 
BRANCH  11  17
ATOM     17  O   LIG A   1      -6.090   3.189 122.930  0.00  0.00    -0.491 OA
ATOM     18  C   LIG A   1      -5.866   4.177 123.926  0.00  0.00    +0.277 C 
ENDBRANCH  11  17
BRANCH  16  19
ATOM     19  O   LIG A   1      -8.693   3.846 121.656  0.00  0.00    -0.503 OA
ATOM     20  H   LIG A   1      -8.227   4.595 122.062  0.00  0.00    +0.292 HD
ENDBRANCH  16  19
ENDBRANCH   1  13
BRANCH   9  21
ATOM     21  O   LIG A   1      -7.524  -1.850 130.646  0.00  0.00    -0.507 OA
ATOM     22  H   LIG A   1      -6.941  -2.533 131.015  0.00  0.00    +0.292 HD
ENDBRANCH   9  21
TORSDOF 4
ENDMDL
MODEL 7
REMARK VINA RESULT:      -6.9      5.594      9.676
REMARK  Name = NuBBE_2224
REMARK  5 active torsions:
REMARK  status: ('A' for Active; 'I' for Inactive)
REMARK    1  A    between atoms: O_1  and  C_2
REMARK    2  A    between atoms: O_1  and  C_3
REMARK    3  A    between atoms: C_5  and  C_6
REMARK    4  A    between atoms: C_14  and  O_16
REMARK    5  A    between atoms: C_19  and  O_20
REMARK                            x       y       z     vdW  Elec       q    Type
REMARK                         _______ _______ _______ _____ _____    ______ ____
ROOT
ATOM      1  C   LIG A   1      -7.631  -2.716 128.370  0.00  0.00    +0.204 C 
ATOM      2  O   LIG A   1      -6.719  -2.562 127.271  0.00  0.00    -0.484 OA
ATOM      3  C   LIG A   1      -7.260  -2.643 126.019  0.00  0.00    +0.128 A 
ATOM      4  C   LIG A   1      -8.555  -3.101 125.759  0.00  0.00    -0.005 A 
ATOM      5  C   LIG A   1      -9.458  -3.511 126.885  0.00  0.00    +0.043 C 
ATOM      6  C   LIG A   1      -8.641  -3.839 128.126  0.00  0.00    +0.054 C 
ATOM      7  C   LIG A   1      -9.011  -3.147 124.433  0.00  0.00    +0.011 A 
ATOM      8  C   LIG A   1      -8.172  -2.772 123.382  0.00  0.00    +0.046 A 
ATOM      9  C   LIG A   1      -6.878  -2.342 123.661  0.00  0.00    +0.120 A 
ATOM     10  C   LIG A   1      -6.418  -2.277 124.969  0.00  0.00    +0.091 A 
ENDROOT
BRANCH   1  13
ATOM     11  C   LIG A   1      -4.662  -3.427 130.703  0.00  0.00    +0.162 A 
ATOM     12  C   LIG A   1      -5.439  -3.190 129.556  0.00  0.00    +0.056 A 
ATOM     13  C   LIG A   1      -6.827  -2.991 129.631  0.00  0.00    -0.004 A 
ATOM     14  C   LIG A   1      -7.434  -3.024 130.893  0.00  0.00    +0.011 A 
ATOM     15  C   LIG A   1      -6.678  -3.262 132.041  0.00  0.00    +0.049 A 
ATOM     16  C   LIG A   1      -5.297  -3.459 131.948  0.00  0.00    +0.159 A 
BRANCH  11  17
ATOM     17  O   LIG A   1      -3.334  -3.598 130.419  0.00  0.00    -0.491 OA
ATOM     18  C   LIG A   1      -2.946  -3.687 129.054  0.00  0.00    +0.277 C 
ENDBRANCH  11  17
BRANCH  16  19
ATOM     19  O   LIG A   1      -4.600  -3.675 133.106  0.00  0.00    -0.503 OA
ATOM     20  H   LIG A   1      -4.732  -4.595 133.386  0.00  0.00    +0.292 HD
ENDBRANCH  16  19
ENDBRANCH   1  13
BRANCH   9  21
ATOM     21  O   LIG A   1      -6.023  -1.972 122.665  0.00  0.00    -0.507 OA
ATOM     22  H   LIG A   1      -5.115  -2.168 122.946  0.00  0.00    +0.292 HD
ENDBRANCH   9  21
TORSDOF 4
ENDMDL
MODEL 8
REMARK VINA RESULT:      -6.8      2.690      4.065
REMARK  Name = NuBBE_2224
REMARK  5 active torsions:
REMARK  status: ('A' for Active; 'I' for Inactive)
REMARK    1  A    between atoms: O_1  and  C_2
REMARK    2  A    between atoms: O_1  and  C_3
REMARK    3  A    between atoms: C_5  and  C_6
REMARK    4  A    between atoms: C_14  and  O_16
REMARK    5  A    between atoms: C_19  and  O_20
REMARK                            x       y       z     vdW  Elec       q    Type
REMARK                         _______ _______ _______ _____ _____    ______ ____
ROOT
ATOM      1  C   LIG A   1      -7.122  -0.433 124.977  0.00  0.00    +0.204 C 
ATOM      2  O   LIG A   1      -7.032  -0.570 126.405  0.00  0.00    -0.484 OA
ATOM      3  C   LIG A   1      -7.636  -1.670 126.947  0.00  0.00    +0.128 A 
ATOM      4  C   LIG A   1      -8.515  -2.500 126.244  0.00  0.00    -0.005 A 
ATOM      5  C   LIG A   1      -8.826  -2.233 124.801  0.00  0.00    +0.043 C 
ATOM      6  C   LIG A   1      -8.515  -0.785 124.452  0.00  0.00    +0.054 C 
ATOM      7  C   LIG A   1      -9.084  -3.603 126.898  0.00  0.00    +0.011 A 
ATOM      8  C   LIG A   1      -8.801  -3.852 128.243  0.00  0.00    +0.046 A 
ATOM      9  C   LIG A   1      -7.943  -2.999 128.930  0.00  0.00    +0.120 A 
ATOM     10  C   LIG A   1      -7.361  -1.913 128.292  0.00  0.00    +0.091 A 
ENDROOT
BRANCH   1  13
ATOM     11  C   LIG A   1      -6.825   2.838 122.984  0.00  0.00    +0.162 A 
ATOM     12  C   LIG A   1      -7.126   1.517 123.353  0.00  0.00    +0.056 A 
ATOM     13  C   LIG A   1      -6.760   0.996 124.605  0.00  0.00    -0.004 A 
ATOM     14  C   LIG A   1      -6.086   1.837 125.500  0.00  0.00    +0.011 A 
ATOM     15  C   LIG A   1      -5.776   3.150 125.148  0.00  0.00    +0.049 A 
ATOM     16  C   LIG A   1      -6.147   3.652 123.897  0.00  0.00    +0.159 A 
BRANCH  11  17
ATOM     17  O   LIG A   1      -7.262   3.151 121.725  0.00  0.00    -0.491 OA
ATOM     18  C   LIG A   1      -8.658   3.329 121.526  0.00  0.00    +0.277 C 
ENDBRANCH  11  17
BRANCH  16  19
ATOM     19  O   LIG A   1      -5.831   4.951 123.606  0.00  0.00    -0.503 OA
ATOM     20  H   LIG A   1      -4.865   5.051 123.621  0.00  0.00    +0.292 HD
ENDBRANCH  16  19
ENDBRANCH   1  13
BRANCH   9  21
ATOM     21  O   LIG A   1      -7.644  -3.201 130.245  0.00  0.00    -0.507 OA
ATOM     22  H   LIG A   1      -8.027  -2.476 130.766  0.00  0.00    +0.292 HD
ENDBRANCH   9  21
TORSDOF 4
ENDMDL
MODEL 9
REMARK VINA RESULT:      -6.8      5.476      9.761
REMARK  Name = NuBBE_2224
REMARK  5 active torsions:
REMARK  status: ('A' for Active; 'I' for Inactive)
REMARK    1  A    between atoms: O_1  and  C_2
REMARK    2  A    between atoms: O_1  and  C_3
REMARK    3  A    between atoms: C_5  and  C_6
REMARK    4  A    between atoms: C_14  and  O_16
REMARK    5  A    between atoms: C_19  and  O_20
REMARK                            x       y       z     vdW  Elec       q    Type
REMARK                         _______ _______ _______ _____ _____    ______ ____
ROOT
ATOM      1  C   LIG A   1      -7.102  -2.708 128.185  0.00  0.00    +0.204 C 
ATOM      2  O   LIG A   1      -6.443  -2.541 126.918  0.00  0.00    -0.484 OA
ATOM      3  C   LIG A   1      -7.236  -2.617 125.809  0.00  0.00    +0.128 A 
ATOM      4  C   LIG A   1      -8.556  -3.079 125.825  0.00  0.00    -0.005 A 
ATOM      5  C   LIG A   1      -9.198  -3.502 127.113  0.00  0.00    +0.043 C 
ATOM      6  C   LIG A   1      -8.136  -3.834 128.151  0.00  0.00    +0.054 C 
ATOM      7  C   LIG A   1      -9.282  -3.119 124.626  0.00  0.00    +0.011 A 
ATOM      8  C   LIG A   1      -8.685  -2.733 123.423  0.00  0.00    +0.046 A 
ATOM      9  C   LIG A   1      -7.363  -2.299 123.426  0.00  0.00    +0.120 A 
ATOM     10  C   LIG A   1      -6.637  -2.239 124.607  0.00  0.00    +0.091 A 
ENDROOT
BRANCH   1  13
ATOM     11  C   LIG A   1      -5.458  -3.881 131.454  0.00  0.00    +0.162 A 
ATOM     12  C   LIG A   1      -6.409  -3.592 130.460  0.00  0.00    +0.056 A 
ATOM     13  C   LIG A   1      -6.048  -2.987 129.245  0.00  0.00    -0.004 A 
ATOM     14  C   LIG A   1      -4.697  -2.680 129.032  0.00  0.00    +0.011 A 
ATOM     15  C   LIG A   1      -3.742  -2.958 130.010  0.00  0.00    +0.049 A 
ATOM     16  C   LIG A   1      -4.119  -3.559 131.214  0.00  0.00    +0.159 A 
BRANCH  11  17
ATOM     17  O   LIG A   1      -6.010  -4.466 132.562  0.00  0.00    -0.491 OA
ATOM     18  C   LIG A   1      -6.527  -3.619 133.579  0.00  0.00    +0.277 C 
ENDBRANCH  11  17
BRANCH  16  19
ATOM     19  O   LIG A   1      -3.141  -3.823 132.135  0.00  0.00    -0.503 OA
ATOM     20  H   LIG A   1      -3.547  -4.224 132.920  0.00  0.00    +0.292 HD
ENDBRANCH  16  19
ENDBRANCH   1  13
BRANCH   9  21
ATOM     21  O   LIG A   1      -6.739  -1.918 122.274  0.00  0.00    -0.507 OA
ATOM     22  H   LIG A   1      -7.380  -1.455 121.711  0.00  0.00    +0.292 HD
ENDBRANCH   9  21
TORSDOF 4
ENDMDL
