MODEL 1
REMARK VINA RESULT:      -7.4      0.000      0.000
REMARK  Name = NuBBE_911
REMARK  10 active torsions:
REMARK  status: ('A' for Active; 'I' for Inactive)
REMARK    1  A    between atoms: C_1  and  C_15
REMARK    2  A    between atoms: N_5  and  C_6
REMARK    3  A    between atoms: C_7  and  S_13
REMARK    4  A    between atoms: N_11  and  C_12
REMARK    5  A    between atoms: S_13  and  C_14
REMARK    6  A    between atoms: C_18  and  O_21
REMARK    7  A    between atoms: O_21  and  C_22
REMARK    8  A    between atoms: C_22  and  C_23
REMARK    9  A    between atoms: C_24  and  C_25
REMARK   10  A    between atoms: C_24  and  C_26
REMARK                            x       y       z     vdW  Elec       q    Type
REMARK                         _______ _______ _______ _____ _____    ______ ____
ROOT
ATOM      1  C   LIG A   1      -7.761  -2.496 130.842  0.00  0.00    +0.036 C 
ATOM      2  C   LIG A   1      -6.626  -2.516 131.566  0.00  0.00    +0.099 C 
ATOM      3  C   LIG A   1      -6.799  -2.046 132.999  0.00  0.00    +0.262 C 
ATOM      4  O   LIG A   1      -7.922  -1.996 133.536  0.00  0.00    -0.269 OA
ATOM      5  N   LIG A   1      -5.640  -1.729 133.671  0.00  0.00    -0.279 N 
ATOM      6  C   LIG A   1      -5.712  -1.259 135.043  0.00  0.00    +0.134 C 
ATOM      7  C   LIG A   1      -4.406  -1.469 132.934  0.00  0.00    +0.221 C 
ATOM      8  C   LIG A   1      -4.200  -2.488 131.812  0.00  0.00    +0.251 C 
ATOM      9  O   LIG A   1      -3.055  -2.795 131.438  0.00  0.00    -0.272 OA
ATOM     10  N   LIG A   1      -5.342  -2.893 131.126  0.00  0.00    -0.268 N 
ATOM     11  C   LIG A   1      -5.140  -3.773 129.984  0.00  0.00    +0.138 C 
ENDROOT
BRANCH   1  12
ATOM     12  C   LIG A   1      -7.934  -2.551 129.386  0.00  0.00    -0.023 A 
ATOM     13  C   LIG A   1      -8.611  -3.618 128.801  0.00  0.00    +0.011 A 
ATOM     14  C   LIG A   1      -8.902  -3.595 127.437  0.00  0.00    +0.046 A 
ATOM     15  C   LIG A   1      -8.509  -2.521 126.631  0.00  0.00    +0.121 A 
ATOM     16  C   LIG A   1      -7.812  -1.463 127.208  0.00  0.00    +0.046 A 
ATOM     17  C   LIG A   1      -7.572  -1.460 128.584  0.00  0.00    +0.011 A 
BRANCH  15  18
ATOM     18  O   LIG A   1      -8.794  -2.415 125.292  0.00  0.00    -0.488 OA
BRANCH  18  19
ATOM     19  C   LIG A   1      -8.484  -3.584 124.531  0.00  0.00    +0.256 C 
BRANCH  19  20
ATOM     20  C   LIG A   1      -7.007  -3.705 124.353  0.00  0.00    +0.012 C 
ATOM     21  C   LIG A   1      -6.207  -2.920 123.607  0.00  0.00    -0.076 C 
ATOM     22  C   LIG A   1      -6.677  -1.817 122.698  0.00  0.00    +0.038 C 
ATOM     23  C   LIG A   1      -4.720  -3.128 123.627  0.00  0.00    +0.038 C 
ENDBRANCH  19  20
ENDBRANCH  18  19
ENDBRANCH  15  18
ENDBRANCH   1  12
BRANCH   7  24
ATOM     24  S   LIG A   1      -4.361   0.242 132.283  0.00  0.00    -0.133 S 
ATOM     25  C   LIG A   1      -3.146   0.973 133.417  0.00  0.00    +0.086 C 
ENDBRANCH   7  24
TORSDOF 5
ENDMDL
MODEL 2
REMARK VINA RESULT:      -7.3      8.150     10.128
REMARK  Name = NuBBE_911
REMARK  10 active torsions:
REMARK  status: ('A' for Active; 'I' for Inactive)
REMARK    1  A    between atoms: C_1  and  C_15
REMARK    2  A    between atoms: N_5  and  C_6
REMARK    3  A    between atoms: C_7  and  S_13
REMARK    4  A    between atoms: N_11  and  C_12
REMARK    5  A    between atoms: S_13  and  C_14
REMARK    6  A    between atoms: C_18  and  O_21
REMARK    7  A    between atoms: O_21  and  C_22
REMARK    8  A    between atoms: C_22  and  C_23
REMARK    9  A    between atoms: C_24  and  C_25
REMARK   10  A    between atoms: C_24  and  C_26
REMARK                            x       y       z     vdW  Elec       q    Type
REMARK                         _______ _______ _______ _____ _____    ______ ____
ROOT
ATOM      1  C   LIG A   1      -6.085   6.478 132.013  0.00  0.00    +0.036 C 
ATOM      2  C   LIG A   1      -5.103   5.699 131.520  0.00  0.00    +0.099 C 
ATOM      3  C   LIG A   1      -3.749   6.382 131.454  0.00  0.00    +0.262 C 
ATOM      4  O   LIG A   1      -3.506   7.412 132.112  0.00  0.00    -0.269 OA
ATOM      5  N   LIG A   1      -2.805   5.767 130.663  0.00  0.00    -0.279 N 
ATOM      6  C   LIG A   1      -1.484   6.356 130.531  0.00  0.00    +0.134 C 
ATOM      7  C   LIG A   1      -3.208   4.786 129.658  0.00  0.00    +0.221 C 
ATOM      8  C   LIG A   1      -4.263   3.825 130.206  0.00  0.00    +0.251 C 
ATOM      9  O   LIG A   1      -4.347   2.663 129.771  0.00  0.00    -0.272 OA
ATOM     10  N   LIG A   1      -5.218   4.374 131.058  0.00  0.00    -0.268 N 
ATOM     11  C   LIG A   1      -6.291   3.491 131.491  0.00  0.00    +0.138 C 
ENDROOT
BRANCH   1  12
ATOM     12  C   LIG A   1      -7.539   6.303 131.925  0.00  0.00    -0.023 A 
ATOM     13  C   LIG A   1      -8.262   5.877 133.036  0.00  0.00    +0.011 A 
ATOM     14  C   LIG A   1      -9.656   5.854 132.994  0.00  0.00    +0.046 A 
ATOM     15  C   LIG A   1     -10.352   6.235 131.843  0.00  0.00    +0.121 A 
ATOM     16  C   LIG A   1      -9.632   6.641 130.721  0.00  0.00    +0.046 A 
ATOM     17  C   LIG A   1      -8.239   6.719 130.784  0.00  0.00    +0.011 A 
BRANCH  15  18
ATOM     18  O   LIG A   1     -11.721   6.273 131.742  0.00  0.00    -0.488 OA
BRANCH  18  19
ATOM     19  C   LIG A   1     -12.206   6.512 130.420  0.00  0.00    +0.256 C 
BRANCH  19  20
ATOM     20  C   LIG A   1     -12.770   7.891 130.321  0.00  0.00    +0.012 C 
ATOM     21  C   LIG A   1     -12.512   8.813 129.374  0.00  0.00    -0.076 C 
ATOM     22  C   LIG A   1     -11.494   8.668 128.276  0.00  0.00    +0.038 C 
ATOM     23  C   LIG A   1     -13.255  10.118 129.376  0.00  0.00    +0.038 C 
ENDBRANCH  19  20
ENDBRANCH  18  19
ENDBRANCH  15  18
ENDBRANCH   1  12
BRANCH   7  24
ATOM     24  S   LIG A   1      -3.795   5.600 128.125  0.00  0.00    -0.133 S 
ATOM     25  C   LIG A   1      -3.316   4.344 126.905  0.00  0.00    +0.086 C 
ENDBRANCH   7  24
TORSDOF 5
ENDMDL
MODEL 3
REMARK VINA RESULT:      -6.5      3.990      7.815
REMARK  Name = NuBBE_911
REMARK  10 active torsions:
REMARK  status: ('A' for Active; 'I' for Inactive)
REMARK    1  A    between atoms: C_1  and  C_15
REMARK    2  A    between atoms: N_5  and  C_6
REMARK    3  A    between atoms: C_7  and  S_13
REMARK    4  A    between atoms: N_11  and  C_12
REMARK    5  A    between atoms: S_13  and  C_14
REMARK    6  A    between atoms: C_18  and  O_21
REMARK    7  A    between atoms: O_21  and  C_22
REMARK    8  A    between atoms: C_22  and  C_23
REMARK    9  A    between atoms: C_24  and  C_25
REMARK   10  A    between atoms: C_24  and  C_26
REMARK                            x       y       z     vdW  Elec       q    Type
REMARK                         _______ _______ _______ _____ _____    ______ ____
ROOT
ATOM      1  C   LIG A   1      -8.232  -1.291 126.461  0.00  0.00    +0.036 C 
ATOM      2  C   LIG A   1      -8.493   0.007 126.216  0.00  0.00    +0.099 C 
ATOM      3  C   LIG A   1      -9.019   0.278 124.818  0.00  0.00    +0.262 C 
ATOM      4  O   LIG A   1      -9.491  -0.634 124.112  0.00  0.00    -0.269 OA
ATOM      5  N   LIG A   1      -8.982   1.591 124.407  0.00  0.00    -0.279 N 
ATOM      6  C   LIG A   1      -9.455   1.942 123.079  0.00  0.00    +0.134 C 
ATOM      7  C   LIG A   1      -8.129   2.558 125.095  0.00  0.00    +0.221 C 
ATOM      8  C   LIG A   1      -8.213   2.396 126.614  0.00  0.00    +0.251 C 
ATOM      9  O   LIG A   1      -8.036   3.371 127.364  0.00  0.00    -0.272 OA
ATOM     10  N   LIG A   1      -8.308   1.093 127.093  0.00  0.00    -0.268 N 
ATOM     11  C   LIG A   1      -8.272   0.925 128.539  0.00  0.00    +0.138 C 
ENDROOT
BRANCH   1  12
ATOM     12  C   LIG A   1      -7.426  -1.889 127.531  0.00  0.00    -0.023 A 
ATOM     13  C   LIG A   1      -8.024  -2.713 128.481  0.00  0.00    +0.011 A 
ATOM     14  C   LIG A   1      -7.236  -3.397 129.407  0.00  0.00    +0.046 A 
ATOM     15  C   LIG A   1      -5.844  -3.258 129.414  0.00  0.00    +0.121 A 
ATOM     16  C   LIG A   1      -5.244  -2.417 128.480  0.00  0.00    +0.046 A 
ATOM     17  C   LIG A   1      -6.028  -1.779 127.517  0.00  0.00    +0.011 A 
BRANCH  15  18
ATOM     18  O   LIG A   1      -5.004  -3.927 130.270  0.00  0.00    -0.488 OA
BRANCH  18  19
ATOM     19  C   LIG A   1      -5.573  -5.103 130.849  0.00  0.00    +0.256 C 
BRANCH  19  20
ATOM     20  C   LIG A   1      -5.287  -5.146 132.314  0.00  0.00    +0.012 C 
ATOM     21  C   LIG A   1      -5.948  -4.500 133.294  0.00  0.00    -0.076 C 
ATOM     22  C   LIG A   1      -7.051  -3.500 133.083  0.00  0.00    +0.038 C 
ATOM     23  C   LIG A   1      -5.583  -4.743 134.731  0.00  0.00    +0.038 C 
ENDBRANCH  19  20
ENDBRANCH  18  19
ENDBRANCH  15  18
ENDBRANCH   1  12
BRANCH   7  24
ATOM     24  S   LIG A   1      -6.394   2.448 124.519  0.00  0.00    -0.133 S 
ATOM     25  C   LIG A   1      -6.083   4.197 124.142  0.00  0.00    +0.086 C 
ENDBRANCH   7  24
TORSDOF 5
ENDMDL
MODEL 4
REMARK VINA RESULT:      -6.5      2.949      7.543
REMARK  Name = NuBBE_911
REMARK  10 active torsions:
REMARK  status: ('A' for Active; 'I' for Inactive)
REMARK    1  A    between atoms: C_1  and  C_15
REMARK    2  A    between atoms: N_5  and  C_6
REMARK    3  A    between atoms: C_7  and  S_13
REMARK    4  A    between atoms: N_11  and  C_12
REMARK    5  A    between atoms: S_13  and  C_14
REMARK    6  A    between atoms: C_18  and  O_21
REMARK    7  A    between atoms: O_21  and  C_22
REMARK    8  A    between atoms: C_22  and  C_23
REMARK    9  A    between atoms: C_24  and  C_25
REMARK   10  A    between atoms: C_24  and  C_26
REMARK                            x       y       z     vdW  Elec       q    Type
REMARK                         _______ _______ _______ _____ _____    ______ ____
ROOT
ATOM      1  C   LIG A   1      -8.274  -2.788 128.182  0.00  0.00    +0.036 C 
ATOM      2  C   LIG A   1      -7.864  -2.204 127.040  0.00  0.00    +0.099 C 
ATOM      3  C   LIG A   1      -8.762  -2.483 125.847  0.00  0.00    +0.262 C 
ATOM      4  O   LIG A   1      -9.926  -2.902 125.993  0.00  0.00    -0.269 OA
ATOM      5  N   LIG A   1      -8.223  -2.201 124.612  0.00  0.00    -0.279 N 
ATOM      6  C   LIG A   1      -9.006  -2.448 123.414  0.00  0.00    +0.134 C 
ATOM      7  C   LIG A   1      -6.780  -2.046 124.452  0.00  0.00    +0.221 C 
ATOM      8  C   LIG A   1      -6.178  -1.211 125.585  0.00  0.00    +0.251 C 
ATOM      9  O   LIG A   1      -5.158  -0.528 125.393  0.00  0.00    -0.272 OA
ATOM     10  N   LIG A   1      -6.716  -1.410 126.853  0.00  0.00    -0.268 N 
ATOM     11  C   LIG A   1      -6.073  -0.705 127.952  0.00  0.00    +0.138 C 
ENDROOT
BRANCH   1  12
ATOM     12  C   LIG A   1      -7.526  -3.026 129.421  0.00  0.00    -0.023 A 
ATOM     13  C   LIG A   1      -7.861  -2.338 130.584  0.00  0.00    +0.011 A 
ATOM     14  C   LIG A   1      -7.249  -2.672 131.792  0.00  0.00    +0.046 A 
ATOM     15  C   LIG A   1      -6.282  -3.680 131.860  0.00  0.00    +0.121 A 
ATOM     16  C   LIG A   1      -5.928  -4.356 130.695  0.00  0.00    +0.046 A 
ATOM     17  C   LIG A   1      -6.583  -4.061 129.497  0.00  0.00    +0.011 A 
BRANCH  15  18
ATOM     18  O   LIG A   1      -5.667  -4.086 133.019  0.00  0.00    -0.488 OA
BRANCH  18  19
ATOM     19  C   LIG A   1      -4.240  -4.112 132.947  0.00  0.00    +0.256 C 
BRANCH  19  20
ATOM     20  C   LIG A   1      -3.677  -2.814 133.421  0.00  0.00    +0.012 C 
ATOM     21  C   LIG A   1      -3.323  -1.754 132.670  0.00  0.00    -0.076 C 
ATOM     22  C   LIG A   1      -3.317  -1.720 131.166  0.00  0.00    +0.038 C 
ATOM     23  C   LIG A   1      -2.868  -0.484 133.331  0.00  0.00    +0.038 C 
ENDBRANCH  19  20
ENDBRANCH  18  19
ENDBRANCH  15  18
ENDBRANCH   1  12
BRANCH   7  24
ATOM     24  S   LIG A   1      -5.943  -3.670 124.319  0.00  0.00    -0.133 S 
ATOM     25  C   LIG A   1      -4.566  -3.219 123.224  0.00  0.00    +0.086 C 
ENDBRANCH   7  24
TORSDOF 5
ENDMDL
MODEL 5
REMARK VINA RESULT:      -6.5      1.491      1.993
REMARK  Name = NuBBE_911
REMARK  10 active torsions:
REMARK  status: ('A' for Active; 'I' for Inactive)
REMARK    1  A    between atoms: C_1  and  C_15
REMARK    2  A    between atoms: N_5  and  C_6
REMARK    3  A    between atoms: C_7  and  S_13
REMARK    4  A    between atoms: N_11  and  C_12
REMARK    5  A    between atoms: S_13  and  C_14
REMARK    6  A    between atoms: C_18  and  O_21
REMARK    7  A    between atoms: O_21  and  C_22
REMARK    8  A    between atoms: C_22  and  C_23
REMARK    9  A    between atoms: C_24  and  C_25
REMARK   10  A    between atoms: C_24  and  C_26
REMARK                            x       y       z     vdW  Elec       q    Type
REMARK                         _______ _______ _______ _____ _____    ______ ____
ROOT
ATOM      1  C   LIG A   1      -7.755  -2.568 130.673  0.00  0.00    +0.036 C 
ATOM      2  C   LIG A   1      -6.606  -2.462 131.368  0.00  0.00    +0.099 C 
ATOM      3  C   LIG A   1      -6.786  -1.925 132.777  0.00  0.00    +0.262 C 
ATOM      4  O   LIG A   1      -7.898  -1.927 133.337  0.00  0.00    -0.269 OA
ATOM      5  N   LIG A   1      -5.640  -1.484 133.401  0.00  0.00    -0.279 N 
ATOM      6  C   LIG A   1      -5.719  -0.943 134.746  0.00  0.00    +0.134 C 
ATOM      7  C   LIG A   1      -4.444  -1.176 132.621  0.00  0.00    +0.221 C 
ATOM      8  C   LIG A   1      -4.185  -2.240 131.552  0.00  0.00    +0.251 C 
ATOM      9  O   LIG A   1      -3.028  -2.482 131.169  0.00  0.00    -0.272 OA
ATOM     10  N   LIG A   1      -5.307  -2.767 130.919  0.00  0.00    -0.268 N 
ATOM     11  C   LIG A   1      -5.063  -3.694 129.823  0.00  0.00    +0.138 C 
ENDROOT
BRANCH   1  12
ATOM     12  C   LIG A   1      -7.952  -2.719 129.227  0.00  0.00    -0.023 A 
ATOM     13  C   LIG A   1      -8.637  -3.823 128.725  0.00  0.00    +0.011 A 
ATOM     14  C   LIG A   1      -8.951  -3.891 127.368  0.00  0.00    +0.046 A 
ATOM     15  C   LIG A   1      -8.575  -2.872 126.486  0.00  0.00    +0.121 A 
ATOM     16  C   LIG A   1      -7.871  -1.777 126.980  0.00  0.00    +0.046 A 
ATOM     17  C   LIG A   1      -7.607  -1.683 128.348  0.00  0.00    +0.011 A 
BRANCH  15  18
ATOM     18  O   LIG A   1      -8.883  -2.854 125.148  0.00  0.00    -0.488 OA
BRANCH  18  19
ATOM     19  C   LIG A   1      -8.091  -1.949 124.376  0.00  0.00    +0.256 C 
BRANCH  19  20
ATOM     20  C   LIG A   1      -8.959  -1.175 123.440  0.00  0.00    +0.012 C 
ATOM     21  C   LIG A   1      -9.354   0.106 123.564  0.00  0.00    -0.076 C 
ATOM     22  C   LIG A   1      -9.084   0.986 124.753  0.00  0.00    +0.038 C 
ATOM     23  C   LIG A   1     -10.147   0.755 122.466  0.00  0.00    +0.038 C 
ENDBRANCH  19  20
ENDBRANCH  18  19
ENDBRANCH  15  18
ENDBRANCH   1  12
BRANCH   7  24
ATOM     24  S   LIG A   1      -4.543   0.493 131.874  0.00  0.00    -0.133 S 
ATOM     25  C   LIG A   1      -3.388   1.384 132.956  0.00  0.00    +0.086 C 
ENDBRANCH   7  24
TORSDOF 5
ENDMDL
MODEL 6
REMARK VINA RESULT:      -6.4      2.164      3.342
REMARK  Name = NuBBE_911
REMARK  10 active torsions:
REMARK  status: ('A' for Active; 'I' for Inactive)
REMARK    1  A    between atoms: C_1  and  C_15
REMARK    2  A    between atoms: N_5  and  C_6
REMARK    3  A    between atoms: C_7  and  S_13
REMARK    4  A    between atoms: N_11  and  C_12
REMARK    5  A    between atoms: S_13  and  C_14
REMARK    6  A    between atoms: C_18  and  O_21
REMARK    7  A    between atoms: O_21  and  C_22
REMARK    8  A    between atoms: C_22  and  C_23
REMARK    9  A    between atoms: C_24  and  C_25
REMARK   10  A    between atoms: C_24  and  C_26
REMARK                            x       y       z     vdW  Elec       q    Type
REMARK                         _______ _______ _______ _____ _____    ______ ____
ROOT
ATOM      1  C   LIG A   1      -4.677  -3.527 130.933  0.00  0.00    +0.036 C 
ATOM      2  C   LIG A   1      -4.818  -3.134 132.214  0.00  0.00    +0.099 C 
ATOM      3  C   LIG A   1      -3.912  -3.868 133.187  0.00  0.00    +0.262 C 
ATOM      4  O   LIG A   1      -2.909  -4.496 132.796  0.00  0.00    -0.269 OA
ATOM      5  N   LIG A   1      -4.245  -3.754 134.518  0.00  0.00    -0.279 N 
ATOM      6  C   LIG A   1      -3.440  -4.432 135.519  0.00  0.00    +0.134 C 
ATOM      7  C   LIG A   1      -5.582  -3.317 134.912  0.00  0.00    +0.221 C 
ATOM      8  C   LIG A   1      -6.057  -2.138 134.062  0.00  0.00    +0.251 C 
ATOM      9  O   LIG A   1      -6.851  -1.302 134.528  0.00  0.00    -0.272 OA
ATOM     10  N   LIG A   1      -5.707  -2.165 132.715  0.00  0.00    -0.268 N 
ATOM     11  C   LIG A   1      -6.253  -1.106 131.878  0.00  0.00    +0.138 C 
ENDROOT
BRANCH   1  12
ATOM     12  C   LIG A   1      -5.574  -3.307 129.793  0.00  0.00    -0.023 A 
ATOM     13  C   LIG A   1      -6.880  -3.787 129.827  0.00  0.00    +0.011 A 
ATOM     14  C   LIG A   1      -7.773  -3.452 128.810  0.00  0.00    +0.046 A 
ATOM     15  C   LIG A   1      -7.377  -2.650 127.735  0.00  0.00    +0.121 A 
ATOM     16  C   LIG A   1      -6.065  -2.186 127.685  0.00  0.00    +0.046 A 
ATOM     17  C   LIG A   1      -5.188  -2.475 128.733  0.00  0.00    +0.011 A 
BRANCH  15  18
ATOM     18  O   LIG A   1      -8.211  -2.250 126.719  0.00  0.00    -0.488 OA
BRANCH  18  19
ATOM     19  C   LIG A   1      -8.250  -3.144 125.605  0.00  0.00    +0.256 C 
BRANCH  19  20
ATOM     20  C   LIG A   1      -7.778  -2.448 124.372  0.00  0.00    +0.012 C 
ATOM     21  C   LIG A   1      -6.591  -2.595 123.755  0.00  0.00    -0.076 C 
ATOM     22  C   LIG A   1      -5.442  -3.418 124.269  0.00  0.00    +0.038 C 
ATOM     23  C   LIG A   1      -6.327  -1.886 122.457  0.00  0.00    +0.038 C 
ENDBRANCH  19  20
ENDBRANCH  18  19
ENDBRANCH  15  18
ENDBRANCH   1  12
BRANCH   7  24
ATOM     24  S   LIG A   1      -6.783  -4.698 134.848  0.00  0.00    -0.133 S 
ATOM     25  C   LIG A   1      -7.691  -4.390 136.390  0.00  0.00    +0.086 C 
ENDBRANCH   7  24
TORSDOF 5
ENDMDL
MODEL 7
REMARK VINA RESULT:      -6.4      7.993      9.712
REMARK  Name = NuBBE_911
REMARK  10 active torsions:
REMARK  status: ('A' for Active; 'I' for Inactive)
REMARK    1  A    between atoms: C_1  and  C_15
REMARK    2  A    between atoms: N_5  and  C_6
REMARK    3  A    between atoms: C_7  and  S_13
REMARK    4  A    between atoms: N_11  and  C_12
REMARK    5  A    between atoms: S_13  and  C_14
REMARK    6  A    between atoms: C_18  and  O_21
REMARK    7  A    between atoms: O_21  and  C_22
REMARK    8  A    between atoms: C_22  and  C_23
REMARK    9  A    between atoms: C_24  and  C_25
REMARK   10  A    between atoms: C_24  and  C_26
REMARK                            x       y       z     vdW  Elec       q    Type
REMARK                         _______ _______ _______ _____ _____    ______ ____
ROOT
ATOM      1  C   LIG A   1      -7.289   5.835 133.452  0.00  0.00    +0.036 C 
ATOM      2  C   LIG A   1      -5.996   5.462 133.507  0.00  0.00    +0.099 C 
ATOM      3  C   LIG A   1      -5.259   5.965 134.736  0.00  0.00    +0.262 C 
ATOM      4  O   LIG A   1      -5.873   6.367 135.743  0.00  0.00    -0.269 OA
ATOM      5  N   LIG A   1      -3.885   5.904 134.678  0.00  0.00    -0.279 N 
ATOM      6  C   LIG A   1      -3.099   6.376 135.804  0.00  0.00    +0.134 C 
ATOM      7  C   LIG A   1      -3.204   5.762 133.394  0.00  0.00    +0.221 C 
ATOM      8  C   LIG A   1      -3.897   4.727 132.506  0.00  0.00    +0.251 C 
ATOM      9  O   LIG A   1      -3.248   4.076 131.669  0.00  0.00    -0.272 OA
ATOM     10  N   LIG A   1      -5.288   4.700 132.558  0.00  0.00    -0.268 N 
ATOM     11  C   LIG A   1      -5.958   3.798 131.632  0.00  0.00    +0.138 C 
ENDROOT
BRANCH   1  12
ATOM     12  C   LIG A   1      -8.206   5.833 132.307  0.00  0.00    -0.023 A 
ATOM     13  C   LIG A   1      -9.355   5.047 132.331  0.00  0.00    +0.011 A 
ATOM     14  C   LIG A   1     -10.298   5.159 131.310  0.00  0.00    +0.046 A 
ATOM     15  C   LIG A   1     -10.105   6.039 130.240  0.00  0.00    +0.121 A 
ATOM     16  C   LIG A   1      -8.947   6.811 130.201  0.00  0.00    +0.046 A 
ATOM     17  C   LIG A   1      -8.031   6.741 131.253  0.00  0.00    +0.011 A 
BRANCH  15  18
ATOM     18  O   LIG A   1     -11.007   6.227 129.221  0.00  0.00    -0.488 OA
BRANCH  18  19
ATOM     19  C   LIG A   1     -10.665   7.286 128.325  0.00  0.00    +0.256 C 
BRANCH  19  20
ATOM     20  C   LIG A   1     -11.490   8.496 128.620  0.00  0.00    +0.012 C 
ATOM     21  C   LIG A   1     -12.810   8.654 128.414  0.00  0.00    -0.076 C 
ATOM     22  C   LIG A   1     -13.706   7.662 127.723  0.00  0.00    +0.038 C 
ATOM     23  C   LIG A   1     -13.496   9.910 128.870  0.00  0.00    +0.038 C 
ENDBRANCH  19  20
ENDBRANCH  18  19
ENDBRANCH  15  18
ENDBRANCH   1  12
BRANCH   7  24
ATOM     24  S   LIG A   1      -3.055   7.371 132.532  0.00  0.00    -0.133 S 
ATOM     25  C   LIG A   1      -1.259   7.615 132.644  0.00  0.00    +0.086 C 
ENDBRANCH   7  24
TORSDOF 5
ENDMDL
MODEL 8
REMARK VINA RESULT:      -6.3      6.296     10.419
REMARK  Name = NuBBE_911
REMARK  10 active torsions:
REMARK  status: ('A' for Active; 'I' for Inactive)
REMARK    1  A    between atoms: C_1  and  C_15
REMARK    2  A    between atoms: N_5  and  C_6
REMARK    3  A    between atoms: C_7  and  S_13
REMARK    4  A    between atoms: N_11  and  C_12
REMARK    5  A    between atoms: S_13  and  C_14
REMARK    6  A    between atoms: C_18  and  O_21
REMARK    7  A    between atoms: O_21  and  C_22
REMARK    8  A    between atoms: C_22  and  C_23
REMARK    9  A    between atoms: C_24  and  C_25
REMARK   10  A    between atoms: C_24  and  C_26
REMARK                            x       y       z     vdW  Elec       q    Type
REMARK                         _______ _______ _______ _____ _____    ______ ____
ROOT
ATOM      1  C   LIG A   1      -5.038   4.163 126.038  0.00  0.00    +0.036 C 
ATOM      2  C   LIG A   1      -5.520   3.230 125.195  0.00  0.00    +0.099 C 
ATOM      3  C   LIG A   1      -5.897   3.771 123.827  0.00  0.00    +0.262 C 
ATOM      4  O   LIG A   1      -5.473   4.870 123.422  0.00  0.00    -0.269 OA
ATOM      5  N   LIG A   1      -6.693   2.953 123.057  0.00  0.00    -0.279 N 
ATOM      6  C   LIG A   1      -7.113   3.395 121.739  0.00  0.00    +0.134 C 
ATOM      7  C   LIG A   1      -7.441   1.859 123.670  0.00  0.00    +0.221 C 
ATOM      8  C   LIG A   1      -6.587   1.098 124.686  0.00  0.00    +0.251 C 
ATOM      9  O   LIG A   1      -6.794  -0.107 124.908  0.00  0.00    -0.272 OA
ATOM     10  N   LIG A   1      -5.720   1.863 125.461  0.00  0.00    -0.268 N 
ATOM     11  C   LIG A   1      -4.989   1.161 126.507  0.00  0.00    +0.138 C 
ENDROOT
BRANCH   1  12
ATOM     12  C   LIG A   1      -4.887   4.104 127.496  0.00  0.00    -0.023 A 
ATOM     13  C   LIG A   1      -3.620   4.159 128.072  0.00  0.00    +0.011 A 
ATOM     14  C   LIG A   1      -3.487   4.252 129.457  0.00  0.00    +0.046 A 
ATOM     15  C   LIG A   1      -4.609   4.274 130.292  0.00  0.00    +0.121 A 
ATOM     16  C   LIG A   1      -5.877   4.197 129.722  0.00  0.00    +0.046 A 
ATOM     17  C   LIG A   1      -6.011   4.163 128.332  0.00  0.00    +0.011 A 
BRANCH  15  18
ATOM     18  O   LIG A   1      -4.555   4.402 131.659  0.00  0.00    -0.488 OA
BRANCH  18  19
ATOM     19  C   LIG A   1      -5.109   5.621 132.157  0.00  0.00    +0.256 C 
BRANCH  19  20
ATOM     20  C   LIG A   1      -4.018   6.576 132.510  0.00  0.00    +0.012 C 
ATOM     21  C   LIG A   1      -3.549   7.592 131.763  0.00  0.00    -0.076 C 
ATOM     22  C   LIG A   1      -3.965   7.894 130.350  0.00  0.00    +0.038 C 
ATOM     23  C   LIG A   1      -2.510   8.520 132.326  0.00  0.00    +0.038 C 
ENDBRANCH  19  20
ENDBRANCH  18  19
ENDBRANCH  15  18
ENDBRANCH   1  12
BRANCH   7  24
ATOM     24  S   LIG A   1      -8.994   2.457 124.436  0.00  0.00    -0.133 S 
ATOM     25  C   LIG A   1     -10.181   1.331 123.648  0.00  0.00    +0.086 C 
ENDBRANCH   7  24
TORSDOF 5
ENDMDL
MODEL 9
REMARK VINA RESULT:      -6.3      7.537     11.477
REMARK  Name = NuBBE_911
REMARK  10 active torsions:
REMARK  status: ('A' for Active; 'I' for Inactive)
REMARK    1  A    between atoms: C_1  and  C_15
REMARK    2  A    between atoms: N_5  and  C_6
REMARK    3  A    between atoms: C_7  and  S_13
REMARK    4  A    between atoms: N_11  and  C_12
REMARK    5  A    between atoms: S_13  and  C_14
REMARK    6  A    between atoms: C_18  and  O_21
REMARK    7  A    between atoms: O_21  and  C_22
REMARK    8  A    between atoms: C_22  and  C_23
REMARK    9  A    between atoms: C_24  and  C_25
REMARK   10  A    between atoms: C_24  and  C_26
REMARK                            x       y       z     vdW  Elec       q    Type
REMARK                         _______ _______ _______ _____ _____    ______ ____
ROOT
ATOM      1  C   LIG A   1      -6.888   6.824 131.072  0.00  0.00    +0.036 C 
ATOM      2  C   LIG A   1      -7.647   5.856 130.522  0.00  0.00    +0.099 C 
ATOM      3  C   LIG A   1      -9.141   6.081 130.677  0.00  0.00    +0.262 C 
ATOM      4  O   LIG A   1      -9.604   7.203 130.960  0.00  0.00    -0.269 OA
ATOM      5  N   LIG A   1      -9.939   4.985 130.441  0.00  0.00    -0.279 N 
ATOM      6  C   LIG A   1     -11.380   5.105 130.578  0.00  0.00    +0.134 C 
ATOM      7  C   LIG A   1      -9.372   3.639 130.455  0.00  0.00    +0.221 C 
ATOM      8  C   LIG A   1      -8.035   3.589 129.713  0.00  0.00    +0.251 C 
ATOM      9  O   LIG A   1      -7.662   2.545 129.151  0.00  0.00    -0.272 OA
ATOM     10  N   LIG A   1      -7.201   4.693 129.866  0.00  0.00    -0.268 N 
ATOM     11  C   LIG A   1      -5.881   4.604 129.257  0.00  0.00    +0.138 C 
ENDROOT
BRANCH   1  12
ATOM     12  C   LIG A   1      -5.461   6.800 131.414  0.00  0.00    -0.023 A 
ATOM     13  C   LIG A   1      -4.548   7.532 130.659  0.00  0.00    +0.011 A 
ATOM     14  C   LIG A   1      -3.220   7.627 131.072  0.00  0.00    +0.046 A 
ATOM     15  C   LIG A   1      -2.774   6.983 132.231  0.00  0.00    +0.121 A 
ATOM     16  C   LIG A   1      -3.679   6.231 132.977  0.00  0.00    +0.046 A 
ATOM     17  C   LIG A   1      -5.021   6.185 132.594  0.00  0.00    +0.011 A 
BRANCH  15  18
ATOM     18  O   LIG A   1      -1.492   7.063 132.717  0.00  0.00    -0.488 OA
BRANCH  18  19
ATOM     19  C   LIG A   1      -1.356   7.880 133.881  0.00  0.00    +0.256 C 
BRANCH  19  20
ATOM     20  C   LIG A   1      -0.407   9.001 133.616  0.00  0.00    +0.012 C 
ATOM     21  C   LIG A   1      -0.710  10.248 133.208  0.00  0.00    -0.076 C 
ATOM     22  C   LIG A   1      -2.083  10.725 132.821  0.00  0.00    +0.038 C 
ATOM     23  C   LIG A   1       0.372  11.282 133.090  0.00  0.00    +0.038 C 
ENDBRANCH  19  20
ENDBRANCH  18  19
ENDBRANCH  15  18
ENDBRANCH   1  12
BRANCH   7  24
ATOM     24  S   LIG A   1      -9.198   3.002 132.163  0.00  0.00    -0.133 S 
ATOM     25  C   LIG A   1      -9.741   1.288 131.910  0.00  0.00    +0.086 C 
ENDBRANCH   7  24
TORSDOF 5
ENDMDL
