MODEL 1
REMARK VINA RESULT:      -8.1      0.000      0.000
REMARK  Name = NuBBE_13
REMARK  6 active torsions:
REMARK  status: ('A' for Active; 'I' for Inactive)
REMARK    1  A    between atoms: C_3  and  O_31
REMARK    2  A    between atoms: C_4  and  O_5
REMARK    3  A    between atoms: O_5  and  C_6
REMARK    4  A    between atoms: C_8  and  C_9
REMARK    5  A    between atoms: C_15  and  C_21
REMARK    6  A    between atoms: O_31  and  C_32
REMARK                            x       y       z     vdW  Elec       q    Type
REMARK                         _______ _______ _______ _____ _____    ______ ____
ROOT
ATOM      1  C   LIG A   1      -7.982   2.520 123.270  0.00  0.00    +0.154 C 
ATOM      2  C   LIG A   1      -7.042   1.454 123.844  0.00  0.00    +0.056 C 
ATOM      3  C   LIG A   1      -6.464   1.840 125.182  0.00  0.00    +0.167 C 
ATOM      4  O   LIG A   1      -7.488   1.588 126.149  0.00  0.00    -0.371 OA
ATOM      5  C   LIG A   1      -8.371   0.568 125.634  0.00  0.00    +0.154 C 
ATOM      6  C   LIG A   1      -7.959   0.303 124.180  0.00  0.00    +0.056 C 
ATOM      7  C   LIG A   1      -9.088   0.463 123.188  0.00  0.00    +0.167 C 
ATOM      8  O   LIG A   1      -9.214   1.862 122.920  0.00  0.00    -0.371 OA
ENDROOT
BRANCH   5   9
ATOM      9  C   LIG A   1      -8.292  -0.680 126.501  0.00  0.00    -0.015 A 
ATOM     10  C   LIG A   1      -7.634  -0.653 127.747  0.00  0.00    +0.055 A 
ATOM     11  C   LIG A   1      -7.591  -1.802 128.503  0.00  0.00    +0.167 A 
ATOM     12  C   LIG A   1      -8.167  -2.966 128.075  0.00  0.00    +0.166 A 
ATOM     13  C   LIG A   1      -8.816  -3.049 126.856  0.00  0.00    +0.050 A 
ATOM     14  C   LIG A   1      -8.873  -1.890 126.061  0.00  0.00    +0.010 A 
ATOM     15  O   LIG A   1      -8.020  -3.980 128.968  0.00  0.00    -0.453 OA
ATOM     16  C   LIG A   1      -7.285  -3.309 130.015  0.00  0.00    +0.466 C 
ATOM     17  O   LIG A   1      -7.003  -1.927 129.724  0.00  0.00    -0.453 OA
ENDBRANCH   5   9
BRANCH   1  22
ATOM     18  C   LIG A   1      -5.542   4.302 120.919  0.00  0.00    +0.050 A 
ATOM     19  C   LIG A   1      -6.354   4.588 119.814  0.00  0.00    +0.162 A 
ATOM     20  C   LIG A   1      -7.702   4.190 119.823  0.00  0.00    +0.162 A 
ATOM     21  C   LIG A   1      -8.197   3.509 120.951  0.00  0.00    +0.055 A 
ATOM     22  C   LIG A   1      -7.389   3.237 122.070  0.00  0.00    -0.015 A 
ATOM     23  C   LIG A   1      -6.054   3.652 122.042  0.00  0.00    +0.010 A 
BRANCH  20  24
ATOM     24  O   LIG A   1      -8.462   4.475 118.720  0.00  0.00    -0.491 OA
ATOM     25  C   LIG A   1      -9.877   4.495 118.854  0.00  0.00    +0.277 C 
ENDBRANCH  20  24
BRANCH  19  26
ATOM     26  O   LIG A   1      -5.667   5.203 118.800  0.00  0.00    -0.491 OA
ATOM     27  C   LIG A   1      -5.854   6.602 118.637  0.00  0.00    +0.277 C 
ENDBRANCH  19  26
ENDBRANCH   1  22
TORSDOF 4
ENDMDL
MODEL 2
REMARK VINA RESULT:      -8.0      1.305      9.380
REMARK  Name = NuBBE_13
REMARK  6 active torsions:
REMARK  status: ('A' for Active; 'I' for Inactive)
REMARK    1  A    between atoms: C_3  and  O_31
REMARK    2  A    between atoms: C_4  and  O_5
REMARK    3  A    between atoms: O_5  and  C_6
REMARK    4  A    between atoms: C_8  and  C_9
REMARK    5  A    between atoms: C_15  and  C_21
REMARK    6  A    between atoms: O_31  and  C_32
REMARK                            x       y       z     vdW  Elec       q    Type
REMARK                         _______ _______ _______ _____ _____    ______ ____
ROOT
ATOM      1  C   LIG A   1      -8.201   1.059 126.019  0.00  0.00    +0.154 C 
ATOM      2  C   LIG A   1      -6.894   1.201 125.230  0.00  0.00    +0.056 C 
ATOM      3  C   LIG A   1      -6.893   0.405 123.949  0.00  0.00    +0.167 C 
ATOM      4  O   LIG A   1      -7.652   1.165 123.004  0.00  0.00    -0.371 OA
ATOM      5  C   LIG A   1      -7.603   2.557 123.382  0.00  0.00    +0.154 C 
ATOM      6  C   LIG A   1      -6.911   2.631 124.751  0.00  0.00    +0.056 C 
ATOM      7  C   LIG A   1      -7.727   3.338 125.808  0.00  0.00    +0.167 C 
ATOM      8  O   LIG A   1      -8.670   2.389 126.313  0.00  0.00    -0.371 OA
ENDROOT
BRANCH   5   9
ATOM      9  C   LIG A   1      -6.879   3.366 122.316  0.00  0.00    -0.015 A 
ATOM     10  C   LIG A   1      -7.468   3.588 121.056  0.00  0.00    +0.055 A 
ATOM     11  C   LIG A   1      -6.782   4.331 120.122  0.00  0.00    +0.167 A 
ATOM     12  C   LIG A   1      -5.546   4.854 120.385  0.00  0.00    +0.166 A 
ATOM     13  C   LIG A   1      -4.920   4.656 121.602  0.00  0.00    +0.050 A 
ATOM     14  C   LIG A   1      -5.597   3.899 122.575  0.00  0.00    +0.010 A 
ATOM     15  O   LIG A   1      -5.043   5.558 119.337  0.00  0.00    -0.453 OA
ATOM     16  C   LIG A   1      -6.119   5.419 118.381  0.00  0.00    +0.466 C 
ATOM     17  O   LIG A   1      -7.223   4.636 118.870  0.00  0.00    -0.453 OA
ENDBRANCH   5   9
BRANCH   1  22
ATOM     18  C   LIG A   1      -7.752   0.082 129.692  0.00  0.00    +0.050 A 
ATOM     19  C   LIG A   1      -7.687  -1.316 129.619  0.00  0.00    +0.162 A 
ATOM     20  C   LIG A   1      -7.803  -1.951 128.371  0.00  0.00    +0.162 A 
ATOM     21  C   LIG A   1      -7.983  -1.155 127.224  0.00  0.00    +0.055 A 
ATOM     22  C   LIG A   1      -8.030   0.250 127.292  0.00  0.00    -0.015 A 
ATOM     23  C   LIG A   1      -7.902   0.859 128.544  0.00  0.00    +0.010 A 
BRANCH  20  24
ATOM     24  O   LIG A   1      -7.749  -3.318 128.339  0.00  0.00    -0.491 OA
ATOM     25  C   LIG A   1      -8.931  -4.041 128.020  0.00  0.00    +0.277 C 
ENDBRANCH  20  24
BRANCH  19  26
ATOM     26  O   LIG A   1      -7.568  -1.904 130.852  0.00  0.00    -0.491 OA
ATOM     27  C   LIG A   1      -6.291  -2.409 131.215  0.00  0.00    +0.277 C 
ENDBRANCH  19  26
ENDBRANCH   1  22
TORSDOF 4
ENDMDL
MODEL 3
REMARK VINA RESULT:      -7.7      7.279      9.027
REMARK  Name = NuBBE_13
REMARK  6 active torsions:
REMARK  status: ('A' for Active; 'I' for Inactive)
REMARK    1  A    between atoms: C_3  and  O_31
REMARK    2  A    between atoms: C_4  and  O_5
REMARK    3  A    between atoms: O_5  and  C_6
REMARK    4  A    between atoms: C_8  and  C_9
REMARK    5  A    between atoms: C_15  and  C_21
REMARK    6  A    between atoms: O_31  and  C_32
REMARK                            x       y       z     vdW  Elec       q    Type
REMARK                         _______ _______ _______ _____ _____    ______ ____
ROOT
ATOM      1  C   LIG A   1     -10.989   4.993 131.253  0.00  0.00    +0.154 C 
ATOM      2  C   LIG A   1      -9.514   5.035 131.670  0.00  0.00    +0.056 C 
ATOM      3  C   LIG A   1      -9.329   5.071 133.167  0.00  0.00    +0.167 C 
ATOM      4  O   LIG A   1      -9.515   3.728 133.625  0.00  0.00    -0.371 OA
ATOM      5  C   LIG A   1      -9.209   2.822 132.545  0.00  0.00    +0.154 C 
ATOM      6  C   LIG A   1      -8.989   3.674 131.287  0.00  0.00    +0.056 C 
ATOM      7  C   LIG A   1      -9.869   3.281 130.124  0.00  0.00    +0.167 C 
ATOM      8  O   LIG A   1     -11.145   3.891 130.339  0.00  0.00    -0.371 OA
ENDROOT
BRANCH   5   9
ATOM      9  C   LIG A   1      -7.995   1.976 132.898  0.00  0.00    -0.015 A 
ATOM     10  C   LIG A   1      -7.791   0.720 132.292  0.00  0.00    +0.055 A 
ATOM     11  C   LIG A   1      -6.676  -0.011 132.634  0.00  0.00    +0.167 A 
ATOM     12  C   LIG A   1      -5.766   0.448 133.546  0.00  0.00    +0.166 A 
ATOM     13  C   LIG A   1      -5.926   1.669 134.177  0.00  0.00    +0.050 A 
ATOM     14  C   LIG A   1      -7.057   2.437 133.848  0.00  0.00    +0.010 A 
ATOM     15  O   LIG A   1      -4.737  -0.419 133.738  0.00  0.00    -0.453 OA
ATOM     16  C   LIG A   1      -5.108  -1.479 132.829  0.00  0.00    +0.466 C 
ATOM     17  O   LIG A   1      -6.341  -1.231 132.129  0.00  0.00    -0.453 OA
ENDBRANCH   5   9
BRANCH   1  22
ATOM     18  C   LIG A   1     -12.867   8.259 130.577  0.00  0.00    +0.050 A 
ATOM     19  C   LIG A   1     -12.287   8.690 129.377  0.00  0.00    +0.162 A 
ATOM     20  C   LIG A   1     -11.268   7.923 128.785  0.00  0.00    +0.162 A 
ATOM     21  C   LIG A   1     -10.859   6.738 129.424  0.00  0.00    +0.055 A 
ATOM     22  C   LIG A   1     -11.453   6.293 130.620  0.00  0.00    -0.015 A 
ATOM     23  C   LIG A   1     -12.471   7.068 131.184  0.00  0.00    +0.010 A 
BRANCH  20  24
ATOM     24  O   LIG A   1     -10.715   8.381 127.620  0.00  0.00    -0.491 OA
ATOM     25  C   LIG A   1     -11.001   7.691 126.411  0.00  0.00    +0.277 C 
ENDBRANCH  20  24
BRANCH  19  26
ATOM     26  O   LIG A   1     -12.784   9.895 128.953  0.00  0.00    -0.491 OA
ATOM     27  C   LIG A   1     -13.431  10.713 129.918  0.00  0.00    +0.277 C 
ENDBRANCH  19  26
ENDBRANCH   1  22
TORSDOF 4
ENDMDL
MODEL 4
REMARK VINA RESULT:      -7.7      0.858      1.865
REMARK  Name = NuBBE_13
REMARK  6 active torsions:
REMARK  status: ('A' for Active; 'I' for Inactive)
REMARK    1  A    between atoms: C_3  and  O_31
REMARK    2  A    between atoms: C_4  and  O_5
REMARK    3  A    between atoms: O_5  and  C_6
REMARK    4  A    between atoms: C_8  and  C_9
REMARK    5  A    between atoms: C_15  and  C_21
REMARK    6  A    between atoms: O_31  and  C_32
REMARK                            x       y       z     vdW  Elec       q    Type
REMARK                         _______ _______ _______ _____ _____    ______ ____
ROOT
ATOM      1  C   LIG A   1      -8.297   2.483 123.612  0.00  0.00    +0.154 C 
ATOM      2  C   LIG A   1      -7.287   1.436 124.095  0.00  0.00    +0.056 C 
ATOM      3  C   LIG A   1      -6.499   1.893 125.297  0.00  0.00    +0.167 C 
ATOM      4  O   LIG A   1      -7.357   1.719 126.428  0.00  0.00    -0.371 OA
ATOM      5  C   LIG A   1      -8.319   0.686 126.126  0.00  0.00    +0.154 C 
ATOM      6  C   LIG A   1      -8.147   0.326 124.644  0.00  0.00    +0.056 C 
ATOM      7  C   LIG A   1      -9.419   0.446 123.837  0.00  0.00    +0.167 C 
ATOM      8  O   LIG A   1      -9.575   1.828 123.505  0.00  0.00    -0.371 OA
ENDROOT
BRANCH   5   9
ATOM      9  C   LIG A   1      -8.114  -0.508 127.046  0.00  0.00    -0.015 A 
ATOM     10  C   LIG A   1      -7.655  -0.331 128.367  0.00  0.00    +0.055 A 
ATOM     11  C   LIG A   1      -7.489  -1.437 129.168  0.00  0.00    +0.167 A 
ATOM     12  C   LIG A   1      -7.754  -2.700 128.716  0.00  0.00    +0.166 A 
ATOM     13  C   LIG A   1      -8.196  -2.929 127.425  0.00  0.00    +0.050 A 
ATOM     14  C   LIG A   1      -8.373  -1.817 126.583  0.00  0.00    +0.010 A 
ATOM     15  O   LIG A   1      -7.533  -3.651 129.661  0.00  0.00    -0.453 OA
ATOM     16  C   LIG A   1      -7.101  -2.830 130.769  0.00  0.00    +0.466 C 
ATOM     17  O   LIG A   1      -7.064  -1.424 130.462  0.00  0.00    -0.453 OA
ENDBRANCH   5   9
BRANCH   1  22
ATOM     18  C   LIG A   1      -8.423   3.939 120.074  0.00  0.00    +0.050 A 
ATOM     19  C   LIG A   1      -7.081   4.269 119.844  0.00  0.00    +0.162 A 
ATOM     20  C   LIG A   1      -6.126   4.031 120.848  0.00  0.00    +0.162 A 
ATOM     21  C   LIG A   1      -6.553   3.464 122.063  0.00  0.00    +0.055 A 
ATOM     22  C   LIG A   1      -7.897   3.114 122.291  0.00  0.00    -0.015 A 
ATOM     23  C   LIG A   1      -8.826   3.352 121.273  0.00  0.00    +0.010 A 
BRANCH  20  24
ATOM     24  O   LIG A   1      -4.827   4.378 120.593  0.00  0.00    -0.491 OA
ATOM     25  C   LIG A   1      -4.091   5.056 121.602  0.00  0.00    +0.277 C 
ENDBRANCH  20  24
BRANCH  19  26
ATOM     26  O   LIG A   1      -6.885   4.862 118.623  0.00  0.00    -0.491 OA
ATOM     27  C   LIG A   1      -5.971   5.948 118.562  0.00  0.00    +0.277 C 
ENDBRANCH  19  26
ENDBRANCH   1  22
TORSDOF 4
ENDMDL
MODEL 5
REMARK VINA RESULT:      -7.7      3.577      9.234
REMARK  Name = NuBBE_13
REMARK  6 active torsions:
REMARK  status: ('A' for Active; 'I' for Inactive)
REMARK    1  A    between atoms: C_3  and  O_31
REMARK    2  A    between atoms: C_4  and  O_5
REMARK    3  A    between atoms: O_5  and  C_6
REMARK    4  A    between atoms: C_8  and  C_9
REMARK    5  A    between atoms: C_15  and  C_21
REMARK    6  A    between atoms: O_31  and  C_32
REMARK                            x       y       z     vdW  Elec       q    Type
REMARK                         _______ _______ _______ _____ _____    ______ ____
ROOT
ATOM      1  C   LIG A   1      -7.440   2.558 127.047  0.00  0.00    +0.154 C 
ATOM      2  C   LIG A   1      -7.741   3.733 126.109  0.00  0.00    +0.056 C 
ATOM      3  C   LIG A   1      -6.510   4.529 125.753  0.00  0.00    +0.167 C 
ATOM      4  O   LIG A   1      -5.826   3.780 124.745  0.00  0.00    -0.371 OA
ATOM      5  C   LIG A   1      -6.784   2.951 124.053  0.00  0.00    +0.154 C 
ATOM      6  C   LIG A   1      -8.116   3.071 124.806  0.00  0.00    +0.056 C 
ATOM      7  C   LIG A   1      -8.688   1.744 125.247  0.00  0.00    +0.167 C 
ATOM      8  O   LIG A   1      -8.015   1.378 126.454  0.00  0.00    -0.371 OA
ENDROOT
BRANCH   5   9
ATOM      9  C   LIG A   1      -6.894   3.379 122.597  0.00  0.00    -0.015 A 
ATOM     10  C   LIG A   1      -8.143   3.402 121.945  0.00  0.00    +0.055 A 
ATOM     11  C   LIG A   1      -8.201   3.803 120.630  0.00  0.00    +0.167 A 
ATOM     12  C   LIG A   1      -7.080   4.175 119.941  0.00  0.00    +0.166 A 
ATOM     13  C   LIG A   1      -5.828   4.159 120.531  0.00  0.00    +0.050 A 
ATOM     14  C   LIG A   1      -5.739   3.753 121.875  0.00  0.00    +0.010 A 
ATOM     15  O   LIG A   1      -7.350   4.541 118.661  0.00  0.00    -0.453 OA
ATOM     16  C   LIG A   1      -8.784   4.360 118.629  0.00  0.00    +0.466 C 
ATOM     17  O   LIG A   1      -9.330   3.885 119.874  0.00  0.00    -0.453 OA
ENDBRANCH   5   9
BRANCH   1  22
ATOM     18  C   LIG A   1      -8.760   1.955 130.589  0.00  0.00    +0.050 A 
ATOM     19  C   LIG A   1      -9.004   3.259 131.039  0.00  0.00    +0.162 A 
ATOM     20  C   LIG A   1      -8.728   4.347 130.193  0.00  0.00    +0.162 A 
ATOM     21  C   LIG A   1      -8.208   4.089 128.910  0.00  0.00    +0.055 A 
ATOM     22  C   LIG A   1      -7.979   2.779 128.449  0.00  0.00    -0.015 A 
ATOM     23  C   LIG A   1      -8.272   1.713 129.305  0.00  0.00    +0.010 A 
BRANCH  20  24
ATOM     24  O   LIG A   1      -8.966   5.608 130.670  0.00  0.00    -0.491 OA
ATOM     25  C   LIG A   1      -7.867   6.383 131.129  0.00  0.00    +0.277 C 
ENDBRANCH  20  24
BRANCH  19  26
ATOM     26  O   LIG A   1      -9.453   3.296 132.334  0.00  0.00    -0.491 OA
ATOM     27  C   LIG A   1      -8.481   3.208 133.366  0.00  0.00    +0.277 C 
ENDBRANCH  19  26
ENDBRANCH   1  22
TORSDOF 4
ENDMDL
MODEL 6
REMARK VINA RESULT:      -7.6      1.387      9.262
REMARK  Name = NuBBE_13
REMARK  6 active torsions:
REMARK  status: ('A' for Active; 'I' for Inactive)
REMARK    1  A    between atoms: C_3  and  O_31
REMARK    2  A    between atoms: C_4  and  O_5
REMARK    3  A    between atoms: O_5  and  C_6
REMARK    4  A    between atoms: C_8  and  C_9
REMARK    5  A    between atoms: C_15  and  C_21
REMARK    6  A    between atoms: O_31  and  C_32
REMARK                            x       y       z     vdW  Elec       q    Type
REMARK                         _______ _______ _______ _____ _____    ______ ____
ROOT
ATOM      1  C   LIG A   1      -8.578   0.171 126.208  0.00  0.00    +0.154 C 
ATOM      2  C   LIG A   1      -7.524   0.270 125.099  0.00  0.00    +0.056 C 
ATOM      3  C   LIG A   1      -7.962  -0.386 123.813  0.00  0.00    +0.167 C 
ATOM      4  O   LIG A   1      -8.851   0.537 123.176  0.00  0.00    -0.371 OA
ATOM      5  C   LIG A   1      -8.537   1.871 123.627  0.00  0.00    +0.154 C 
ATOM      6  C   LIG A   1      -7.499   1.737 124.750  0.00  0.00    +0.056 C 
ATOM      7  C   LIG A   1      -7.910   2.404 126.042  0.00  0.00    +0.167 C 
ATOM      8  O   LIG A   1      -8.789   1.501 126.718  0.00  0.00    -0.371 OA
ENDROOT
BRANCH   5   9
ATOM      9  C   LIG A   1      -8.034   2.713 122.464  0.00  0.00    -0.015 A 
ATOM     10  C   LIG A   1      -6.687   3.122 122.399  0.00  0.00    +0.055 A 
ATOM     11  C   LIG A   1      -6.271   3.877 121.326  0.00  0.00    +0.167 A 
ATOM     12  C   LIG A   1      -7.131   4.242 120.327  0.00  0.00    +0.166 A 
ATOM     13  C   LIG A   1      -8.465   3.876 120.348  0.00  0.00    +0.050 A 
ATOM     14  C   LIG A   1      -8.918   3.105 121.434  0.00  0.00    +0.010 A 
ATOM     15  O   LIG A   1      -6.524   4.979 119.359  0.00  0.00    -0.453 OA
ATOM     16  C   LIG A   1      -5.173   5.029 119.870  0.00  0.00    +0.466 C 
ATOM     17  O   LIG A   1      -5.006   4.337 121.121  0.00  0.00    -0.453 OA
ENDBRANCH   5   9
BRANCH   1  22
ATOM     18  C   LIG A   1      -7.895  -3.007 128.229  0.00  0.00    +0.050 A 
ATOM     19  C   LIG A   1      -7.411  -2.489 129.438  0.00  0.00    +0.162 A 
ATOM     20  C   LIG A   1      -7.292  -1.097 129.597  0.00  0.00    +0.162 A 
ATOM     21  C   LIG A   1      -7.665  -0.262 128.527  0.00  0.00    +0.055 A 
ATOM     22  C   LIG A   1      -8.168  -0.778 127.319  0.00  0.00    -0.015 A 
ATOM     23  C   LIG A   1      -8.287  -2.165 127.189  0.00  0.00    +0.010 A 
BRANCH  20  24
ATOM     24  O   LIG A   1      -6.803  -0.627 130.786  0.00  0.00    -0.491 OA
ATOM     25  C   LIG A   1      -7.060   0.725 131.143  0.00  0.00    +0.277 C 
ENDBRANCH  20  24
BRANCH  19  26
ATOM     26  O   LIG A   1      -7.050  -3.469 130.325  0.00  0.00    -0.491 OA
ATOM     27  C   LIG A   1      -5.757  -4.040 130.179  0.00  0.00    +0.277 C 
ENDBRANCH  19  26
ENDBRANCH   1  22
TORSDOF 4
ENDMDL
MODEL 7
REMARK VINA RESULT:      -7.4      5.600      8.315
REMARK  Name = NuBBE_13
REMARK  6 active torsions:
REMARK  status: ('A' for Active; 'I' for Inactive)
REMARK    1  A    between atoms: C_3  and  O_31
REMARK    2  A    between atoms: C_4  and  O_5
REMARK    3  A    between atoms: O_5  and  C_6
REMARK    4  A    between atoms: C_8  and  C_9
REMARK    5  A    between atoms: C_15  and  C_21
REMARK    6  A    between atoms: O_31  and  C_32
REMARK                            x       y       z     vdW  Elec       q    Type
REMARK                         _______ _______ _______ _____ _____    ______ ____
ROOT
ATOM      1  C   LIG A   1      -6.566  -2.331 128.986  0.00  0.00    +0.154 C 
ATOM      2  C   LIG A   1      -7.121  -3.530 129.764  0.00  0.00    +0.056 C 
ATOM      3  C   LIG A   1      -6.048  -4.506 130.180  0.00  0.00    +0.167 C 
ATOM      4  O   LIG A   1      -5.414  -3.938 131.329  0.00  0.00    -0.371 OA
ATOM      5  C   LIG A   1      -6.346  -3.052 131.983  0.00  0.00    +0.154 C 
ATOM      6  C   LIG A   1      -7.577  -2.936 131.073  0.00  0.00    +0.056 C 
ATOM      7  C   LIG A   1      -7.928  -1.514 130.701  0.00  0.00    +0.167 C 
ATOM      8  O   LIG A   1      -7.067  -1.139 129.622  0.00  0.00    -0.371 OA
ENDROOT
BRANCH   5   9
ATOM      9  C   LIG A   1      -6.691  -3.581 133.368  0.00  0.00    -0.015 A 
ATOM     10  C   LIG A   1      -7.590  -2.887 134.202  0.00  0.00    +0.055 A 
ATOM     11  C   LIG A   1      -7.881  -3.404 135.444  0.00  0.00    +0.167 A 
ATOM     12  C   LIG A   1      -7.318  -4.569 135.888  0.00  0.00    +0.166 A 
ATOM     13  C   LIG A   1      -6.422  -5.282 135.113  0.00  0.00    +0.050 A 
ATOM     14  C   LIG A   1      -6.105  -4.777 133.839  0.00  0.00    +0.010 A 
ATOM     15  O   LIG A   1      -7.739  -4.909 137.135  0.00  0.00    -0.453 OA
ATOM     16  C   LIG A   1      -8.642  -3.817 137.420  0.00  0.00    +0.466 C 
ATOM     17  O   LIG A   1      -8.732  -2.854 136.353  0.00  0.00    -0.453 OA
ENDBRANCH   5   9
BRANCH   1  22
ATOM     18  C   LIG A   1      -8.582  -2.513 125.738  0.00  0.00    +0.050 A 
ATOM     19  C   LIG A   1      -7.579  -2.441 124.763  0.00  0.00    +0.162 A 
ATOM     20  C   LIG A   1      -6.235  -2.318 125.160  0.00  0.00    +0.162 A 
ATOM     21  C   LIG A   1      -5.940  -2.271 126.535  0.00  0.00    +0.055 A 
ATOM     22  C   LIG A   1      -6.945  -2.363 127.516  0.00  0.00    -0.015 A 
ATOM     23  C   LIG A   1      -8.272  -2.494 127.097  0.00  0.00    +0.010 A 
BRANCH  20  24
ATOM     24  O   LIG A   1      -5.282  -2.237 124.181  0.00  0.00    -0.491 OA
ATOM     25  C   LIG A   1      -4.716  -3.440 123.678  0.00  0.00    +0.277 C 
ENDBRANCH  20  24
BRANCH  19  26
ATOM     26  O   LIG A   1      -8.080  -2.444 123.487  0.00  0.00    -0.491 OA
ATOM     27  C   LIG A   1      -9.335  -3.077 123.279  0.00  0.00    +0.277 C 
ENDBRANCH  19  26
ENDBRANCH   1  22
TORSDOF 4
ENDMDL
MODEL 8
REMARK VINA RESULT:      -7.4      7.010     10.444
REMARK  Name = NuBBE_13
REMARK  6 active torsions:
REMARK  status: ('A' for Active; 'I' for Inactive)
REMARK    1  A    between atoms: C_3  and  O_31
REMARK    2  A    between atoms: C_4  and  O_5
REMARK    3  A    between atoms: O_5  and  C_6
REMARK    4  A    between atoms: C_8  and  C_9
REMARK    5  A    between atoms: C_15  and  C_21
REMARK    6  A    between atoms: O_31  and  C_32
REMARK                            x       y       z     vdW  Elec       q    Type
REMARK                         _______ _______ _______ _____ _____    ______ ____
ROOT
ATOM      1  C   LIG A   1      -7.362   1.022 131.275  0.00  0.00    +0.154 C 
ATOM      2  C   LIG A   1      -8.836   1.305 130.959  0.00  0.00    +0.056 C 
ATOM      3  C   LIG A   1      -9.685   1.447 132.197  0.00  0.00    +0.167 C 
ATOM      4  O   LIG A   1      -9.444   2.766 132.698  0.00  0.00    -0.371 OA
ATOM      5  C   LIG A   1      -9.023   3.608 131.604  0.00  0.00    +0.154 C 
ATOM      6  C   LIG A   1      -8.823   2.700 130.383  0.00  0.00    +0.056 C 
ATOM      7  C   LIG A   1      -7.448   2.804 129.765  0.00  0.00    +0.167 C 
ATOM      8  O   LIG A   1      -6.575   1.982 130.545  0.00  0.00    -0.371 OA
ENDROOT
BRANCH   5   9
ATOM      9  C   LIG A   1     -10.051   4.702 131.357  0.00  0.00    -0.015 A 
ATOM     10  C   LIG A   1     -10.751   4.771 130.136  0.00  0.00    +0.055 A 
ATOM     11  C   LIG A   1     -11.679   5.772 129.955  0.00  0.00    +0.167 A 
ATOM     12  C   LIG A   1     -11.934   6.700 130.927  0.00  0.00    +0.166 A 
ATOM     13  C   LIG A   1     -11.266   6.683 132.138  0.00  0.00    +0.050 A 
ATOM     14  C   LIG A   1     -10.312   5.672 132.350  0.00  0.00    +0.010 A 
ATOM     15  O   LIG A   1     -12.885   7.597 130.555  0.00  0.00    -0.453 OA
ATOM     16  C   LIG A   1     -13.202   7.116 129.230  0.00  0.00    +0.466 C 
ATOM     17  O   LIG A   1     -12.436   5.961 128.840  0.00  0.00    -0.453 OA
ENDBRANCH   5   9
BRANCH   1  22
ATOM     18  C   LIG A   1      -5.327  -2.191 130.848  0.00  0.00    +0.050 A 
ATOM     19  C   LIG A   1      -6.246  -3.041 130.220  0.00  0.00    +0.162 A 
ATOM     20  C   LIG A   1      -7.543  -2.575 129.942  0.00  0.00    +0.162 A 
ATOM     21  C   LIG A   1      -7.880  -1.258 130.308  0.00  0.00    +0.055 A 
ATOM     22  C   LIG A   1      -6.952  -0.396 130.923  0.00  0.00    -0.015 A 
ATOM     23  C   LIG A   1      -5.666  -0.880 131.180  0.00  0.00    +0.010 A 
BRANCH  20  24
ATOM     24  O   LIG A   1      -8.419  -3.437 129.338  0.00  0.00    -0.491 OA
ATOM     25  C   LIG A   1      -8.547  -3.400 127.923  0.00  0.00    +0.277 C 
ENDBRANCH  20  24
BRANCH  19  26
ATOM     26  O   LIG A   1      -5.741  -4.296 130.001  0.00  0.00    -0.491 OA
ATOM     27  C   LIG A   1      -5.483  -5.106 131.139  0.00  0.00    +0.277 C 
ENDBRANCH  19  26
ENDBRANCH   1  22
TORSDOF 4
ENDMDL
MODEL 9
REMARK VINA RESULT:      -7.4      6.523      8.374
REMARK  Name = NuBBE_13
REMARK  6 active torsions:
REMARK  status: ('A' for Active; 'I' for Inactive)
REMARK    1  A    between atoms: C_3  and  O_31
REMARK    2  A    between atoms: C_4  and  O_5
REMARK    3  A    between atoms: O_5  and  C_6
REMARK    4  A    between atoms: C_8  and  C_9
REMARK    5  A    between atoms: C_15  and  C_21
REMARK    6  A    between atoms: O_31  and  C_32
REMARK                            x       y       z     vdW  Elec       q    Type
REMARK                         _______ _______ _______ _____ _____    ______ ____
ROOT
ATOM      1  C   LIG A   1      -9.386   5.055 130.937  0.00  0.00    +0.154 C 
ATOM      2  C   LIG A   1      -9.765   3.663 130.418  0.00  0.00    +0.056 C 
ATOM      3  C   LIG A   1      -8.828   3.161 129.348  0.00  0.00    +0.167 C 
ATOM      4  O   LIG A   1      -7.660   2.689 130.028  0.00  0.00    -0.371 OA
ATOM      5  C   LIG A   1      -8.026   2.315 131.373  0.00  0.00    +0.154 C 
ATOM      6  C   LIG A   1      -9.482   2.750 131.586  0.00  0.00    +0.056 C 
ATOM      7  C   LIG A   1      -9.679   3.651 132.782  0.00  0.00    +0.167 C 
ATOM      8  O   LIG A   1      -9.321   4.974 132.374  0.00  0.00    -0.371 OA
ENDROOT
BRANCH   5   9
ATOM      9  C   LIG A   1      -7.827   0.819 131.573  0.00  0.00    -0.015 A 
ATOM     10  C   LIG A   1      -7.469   0.302 132.834  0.00  0.00    +0.055 A 
ATOM     11  C   LIG A   1      -7.306  -1.058 132.974  0.00  0.00    +0.167 A 
ATOM     12  C   LIG A   1      -7.480  -1.916 131.924  0.00  0.00    +0.166 A 
ATOM     13  C   LIG A   1      -7.821  -1.458 130.663  0.00  0.00    +0.050 A 
ATOM     14  C   LIG A   1      -7.993  -0.073 130.490  0.00  0.00    +0.010 A 
ATOM     15  O   LIG A   1      -7.280  -3.214 132.271  0.00  0.00    -0.453 OA
ATOM     16  C   LIG A   1      -6.963  -3.069 133.673  0.00  0.00    +0.466 C 
ATOM     17  O   LIG A   1      -6.972  -1.702 134.126  0.00  0.00    -0.453 OA
ENDBRANCH   5   9
BRANCH   1  22
ATOM     18  C   LIG A   1     -12.375   7.443 130.815  0.00  0.00    +0.050 A 
ATOM     19  C   LIG A   1     -12.162   8.120 129.608  0.00  0.00    +0.162 A 
ATOM     20  C   LIG A   1     -11.033   7.810 128.829  0.00  0.00    +0.162 A 
ATOM     21  C   LIG A   1     -10.144   6.823 129.293  0.00  0.00    +0.055 A 
ATOM     22  C   LIG A   1     -10.366   6.128 130.497  0.00  0.00    -0.015 A 
ATOM     23  C   LIG A   1     -11.501   6.447 131.248  0.00  0.00    +0.010 A 
BRANCH  20  24
ATOM     24  O   LIG A   1     -10.850   8.501 127.661  0.00  0.00    -0.491 OA
ATOM     25  C   LIG A   1     -10.966   7.801 126.429  0.00  0.00    +0.277 C 
ENDBRANCH  20  24
BRANCH  19  26
ATOM     26  O   LIG A   1     -13.109   9.082 129.367  0.00  0.00    -0.491 OA
ATOM     27  C   LIG A   1     -13.112  10.223 130.213  0.00  0.00    +0.277 C 
ENDBRANCH  19  26
ENDBRANCH   1  22
TORSDOF 4
ENDMDL
