MODEL 1
REMARK VINA RESULT:      -7.9      0.000      0.000
REMARK  Name = NuBBE_2500
REMARK  7 active torsions:
REMARK  status: ('A' for Active; 'I' for Inactive)
REMARK    1  A    between atoms: C_1  and  C_2
REMARK    2  A    between atoms: C_2  and  C_3
REMARK    3  A    between atoms: C_4  and  C_5
REMARK    4  A    between atoms: C_10  and  O_12
REMARK    5  A    between atoms: C_16  and  C_17
REMARK    6  A    between atoms: C_16  and  C_18
REMARK    7  A    between atoms: C_23  and  C_24
REMARK                            x       y       z     vdW  Elec       q    Type
REMARK                         _______ _______ _______ _____ _____    ______ ____
ROOT
ATOM      1  C   LIG A   1      -7.121  -2.623 125.163  0.00  0.00    -0.039 A 
ATOM      2  C   LIG A   1      -8.481  -2.968 124.972  0.00  0.00    -0.047 A 
ATOM      3  C   LIG A   1      -9.070  -3.241 123.612  0.00  0.00    +0.044 C 
ATOM      4  C   LIG A   1      -9.320  -3.086 126.081  0.00  0.00    +0.004 A 
ATOM      5  C   LIG A   1      -8.839  -2.856 127.366  0.00  0.00    +0.005 A 
ATOM      6  C   LIG A   1      -7.495  -2.512 127.605  0.00  0.00    -0.035 A 
ATOM      7  C   LIG A   1      -6.631  -2.391 126.489  0.00  0.00    -0.012 A 
ATOM      8  C   LIG A   1      -5.200  -1.957 126.724  0.00  0.00    +0.145 C 
ATOM      9  C   LIG A   1      -4.679  -2.462 128.061  0.00  0.00    +0.041 C 
ATOM     10  C   LIG A   1      -5.508  -1.908 129.231  0.00  0.00    +0.015 C 
ATOM     11  C   LIG A   1      -4.858  -2.280 130.622  0.00  0.00    +0.027 C 
ATOM     12  C   LIG A   1      -3.876  -1.155 131.022  0.00  0.00    +0.019 C 
ATOM     13  C   LIG A   1      -4.063  -3.604 130.642  0.00  0.00    +0.019 C 
ATOM     14  C   LIG A   1      -5.929  -2.415 131.706  0.00  0.00    +0.139 C 
ATOM     15  O   LIG A   1      -5.816  -1.895 132.817  0.00  0.00    -0.297 OA
ATOM     16  C   LIG A   1      -7.111  -3.308 131.416  0.00  0.00    +0.076 C 
ATOM     17  C   LIG A   1      -7.356  -3.506 129.927  0.00  0.00    +0.019 C 
ATOM     18  C   LIG A   1      -7.040  -2.254 129.068  0.00  0.00    -0.003 C 
ATOM     19  C   LIG A   1      -7.858  -1.031 129.576  0.00  0.00    +0.016 C 
ENDROOT
BRANCH   1  21
ATOM     20  C   LIG A   1      -5.248  -3.649 123.796  0.00  0.00    +0.009 C 
ATOM     21  C   LIG A   1      -6.220  -2.488 123.942  0.00  0.00    +0.032 C 
ENDBRANCH   1  21
BRANCH   8  22
ATOM     22  O   LIG A   1      -5.104  -0.535 126.686  0.00  0.00    -0.387 OA
ATOM     23  H   LIG A   1      -4.808  -0.236 127.564  0.00  0.00    +0.210 HD
ENDBRANCH   8  22
TORSDOF 2
ENDMDL
MODEL 2
REMARK VINA RESULT:      -7.7      3.722      6.505
REMARK  Name = NuBBE_2500
REMARK  7 active torsions:
REMARK  status: ('A' for Active; 'I' for Inactive)
REMARK    1  A    between atoms: C_1  and  C_2
REMARK    2  A    between atoms: C_2  and  C_3
REMARK    3  A    between atoms: C_4  and  C_5
REMARK    4  A    between atoms: C_10  and  O_12
REMARK    5  A    between atoms: C_16  and  C_17
REMARK    6  A    between atoms: C_16  and  C_18
REMARK    7  A    between atoms: C_23  and  C_24
REMARK                            x       y       z     vdW  Elec       q    Type
REMARK                         _______ _______ _______ _____ _____    ______ ____
ROOT
ATOM      1  C   LIG A   1      -7.732  -1.880 127.651  0.00  0.00    -0.039 A 
ATOM      2  C   LIG A   1      -8.591  -2.923 127.227  0.00  0.00    -0.047 A 
ATOM      3  C   LIG A   1      -8.928  -4.106 128.099  0.00  0.00    +0.044 C 
ATOM      4  C   LIG A   1      -9.175  -2.859 125.962  0.00  0.00    +0.004 A 
ATOM      5  C   LIG A   1      -8.914  -1.791 125.110  0.00  0.00    +0.005 A 
ATOM      6  C   LIG A   1      -8.068  -0.730 125.486  0.00  0.00    -0.035 A 
ATOM      7  C   LIG A   1      -7.469  -0.781 126.770  0.00  0.00    -0.012 A 
ATOM      8  C   LIG A   1      -6.505   0.318 127.164  0.00  0.00    +0.145 C 
ATOM      9  C   LIG A   1      -6.896   1.648 126.538  0.00  0.00    +0.041 C 
ATOM     10  C   LIG A   1      -6.877   1.573 125.002  0.00  0.00    +0.015 C 
ATOM     11  C   LIG A   1      -7.100   2.997 124.355  0.00  0.00    +0.027 C 
ATOM     12  C   LIG A   1      -5.721   3.666 124.157  0.00  0.00    +0.019 C 
ATOM     13  C   LIG A   1      -7.961   3.970 125.189  0.00  0.00    +0.019 C 
ATOM     14  C   LIG A   1      -7.794   2.876 122.997  0.00  0.00    +0.139 C 
ATOM     15  O   LIG A   1      -7.405   3.484 121.998  0.00  0.00    -0.297 OA
ATOM     16  C   LIG A   1      -9.061   2.058 122.928  0.00  0.00    +0.076 C 
ATOM     17  C   LIG A   1      -9.171   1.037 124.051  0.00  0.00    +0.019 C 
ATOM     18  C   LIG A   1      -7.812   0.417 124.471  0.00  0.00    -0.003 C 
ATOM     19  C   LIG A   1      -7.112  -0.230 123.240  0.00  0.00    +0.016 C 
ENDROOT
BRANCH   1  21
ATOM     20  C   LIG A   1      -7.889  -1.233 130.097  0.00  0.00    +0.009 C 
ATOM     21  C   LIG A   1      -7.092  -1.970 129.030  0.00  0.00    +0.032 C 
ENDBRANCH   1  21
BRANCH   8  22
ATOM     22  O   LIG A   1      -5.180  -0.022 126.763  0.00  0.00    -0.387 OA
ATOM     23  H   LIG A   1      -5.231  -0.406 125.870  0.00  0.00    +0.210 HD
ENDBRANCH   8  22
TORSDOF 2
ENDMDL
MODEL 3
REMARK VINA RESULT:      -7.1      3.714      5.344
REMARK  Name = NuBBE_2500
REMARK  7 active torsions:
REMARK  status: ('A' for Active; 'I' for Inactive)
REMARK    1  A    between atoms: C_1  and  C_2
REMARK    2  A    between atoms: C_2  and  C_3
REMARK    3  A    between atoms: C_4  and  C_5
REMARK    4  A    between atoms: C_10  and  O_12
REMARK    5  A    between atoms: C_16  and  C_17
REMARK    6  A    between atoms: C_16  and  C_18
REMARK    7  A    between atoms: C_23  and  C_24
REMARK                            x       y       z     vdW  Elec       q    Type
REMARK                         _______ _______ _______ _____ _____    ______ ____
ROOT
ATOM      1  C   LIG A   1      -8.743  -2.321 126.586  0.00  0.00    -0.039 A 
ATOM      2  C   LIG A   1      -8.486  -3.058 127.767  0.00  0.00    -0.047 A 
ATOM      3  C   LIG A   1      -8.798  -4.527 127.895  0.00  0.00    +0.044 C 
ATOM      4  C   LIG A   1      -7.901  -2.419 128.860  0.00  0.00    +0.004 A 
ATOM      5  C   LIG A   1      -7.579  -1.066 128.806  0.00  0.00    +0.005 A 
ATOM      6  C   LIG A   1      -7.815  -0.292 127.654  0.00  0.00    -0.035 A 
ATOM      7  C   LIG A   1      -8.407  -0.929 126.535  0.00  0.00    -0.012 A 
ATOM      8  C   LIG A   1      -8.728  -0.096 125.313  0.00  0.00    +0.145 C 
ATOM      9  C   LIG A   1      -7.718   1.026 125.126  0.00  0.00    +0.041 C 
ATOM     10  C   LIG A   1      -7.717   1.986 126.328  0.00  0.00    +0.015 C 
ATOM     11  C   LIG A   1      -6.807   3.248 126.055  0.00  0.00    +0.027 C 
ATOM     12  C   LIG A   1      -7.678   4.349 125.408  0.00  0.00    +0.019 C 
ATOM     13  C   LIG A   1      -5.611   3.002 125.109  0.00  0.00    +0.019 C 
ATOM     14  C   LIG A   1      -6.212   3.784 127.358  0.00  0.00    +0.139 C 
ATOM     15  O   LIG A   1      -6.220   4.983 127.646  0.00  0.00    -0.297 OA
ATOM     16  C   LIG A   1      -5.502   2.804 128.260  0.00  0.00    +0.076 C 
ATOM     17  C   LIG A   1      -5.942   1.364 128.036  0.00  0.00    +0.019 C 
ATOM     18  C   LIG A   1      -7.444   1.216 127.679  0.00  0.00    -0.003 C 
ATOM     19  C   LIG A   1      -8.327   1.869 128.783  0.00  0.00    +0.016 C 
ENDROOT
BRANCH   1  21
ATOM     20  C   LIG A   1      -8.376  -3.616 124.437  0.00  0.00    +0.009 C 
ATOM     21  C   LIG A   1      -9.394  -3.030 125.404  0.00  0.00    +0.032 C 
ENDBRANCH   1  21
BRANCH   8  22
ATOM     22  O   LIG A   1     -10.036   0.460 125.425  0.00  0.00    -0.387 OA
ATOM     23  H   LIG A   1     -10.108   1.178 124.771  0.00  0.00    +0.210 HD
ENDBRANCH   8  22
TORSDOF 2
ENDMDL
MODEL 4
REMARK VINA RESULT:      -7.1      1.914      2.317
REMARK  Name = NuBBE_2500
REMARK  7 active torsions:
REMARK  status: ('A' for Active; 'I' for Inactive)
REMARK    1  A    between atoms: C_1  and  C_2
REMARK    2  A    between atoms: C_2  and  C_3
REMARK    3  A    between atoms: C_4  and  C_5
REMARK    4  A    between atoms: C_10  and  O_12
REMARK    5  A    between atoms: C_16  and  C_17
REMARK    6  A    between atoms: C_16  and  C_18
REMARK    7  A    between atoms: C_23  and  C_24
REMARK                            x       y       z     vdW  Elec       q    Type
REMARK                         _______ _______ _______ _____ _____    ______ ____
ROOT
ATOM      1  C   LIG A   1      -8.028  -1.780 126.785  0.00  0.00    -0.039 A 
ATOM      2  C   LIG A   1      -8.887  -2.882 126.558  0.00  0.00    -0.047 A 
ATOM      3  C   LIG A   1      -9.732  -3.015 125.317  0.00  0.00    +0.044 C 
ATOM      4  C   LIG A   1      -8.950  -3.908 127.502  0.00  0.00    +0.004 A 
ATOM      5  C   LIG A   1      -8.191  -3.853 128.666  0.00  0.00    +0.005 A 
ATOM      6  C   LIG A   1      -7.322  -2.778 128.935  0.00  0.00    -0.035 A 
ATOM      7  C   LIG A   1      -7.245  -1.730 127.984  0.00  0.00    -0.012 A 
ATOM      8  C   LIG A   1      -6.366  -0.537 128.290  0.00  0.00    +0.145 C 
ATOM      9  C   LIG A   1      -5.146  -0.940 129.103  0.00  0.00    +0.041 C 
ATOM     10  C   LIG A   1      -5.551  -1.550 130.456  0.00  0.00    +0.015 C 
ATOM     11  C   LIG A   1      -4.290  -1.797 131.375  0.00  0.00    +0.027 C 
ATOM     12  C   LIG A   1      -4.047  -0.529 132.225  0.00  0.00    +0.019 C 
ATOM     13  C   LIG A   1      -2.976  -2.096 130.620  0.00  0.00    +0.019 C 
ATOM     14  C   LIG A   1      -4.521  -2.986 132.309  0.00  0.00    +0.139 C 
ATOM     15  O   LIG A   1      -4.258  -2.944 133.512  0.00  0.00    -0.297 OA
ATOM     16  C   LIG A   1      -4.988  -4.282 131.692  0.00  0.00    +0.076 C 
ATOM     17  C   LIG A   1      -5.684  -4.085 130.352  0.00  0.00    +0.019 C 
ATOM     18  C   LIG A   1      -6.521  -2.781 130.266  0.00  0.00    -0.003 C 
ATOM     19  C   LIG A   1      -7.571  -2.738 131.414  0.00  0.00    +0.016 C 
ENDROOT
BRANCH   1  21
ATOM     20  C   LIG A   1      -9.024   0.414 125.995  0.00  0.00    +0.009 C 
ATOM     21  C   LIG A   1      -7.977  -0.663 125.750  0.00  0.00    +0.032 C 
ENDBRANCH   1  21
BRANCH   8  22
ATOM     22  O   LIG A   1      -7.106   0.450 129.005  0.00  0.00    -0.387 OA
ATOM     23  H   LIG A   1      -6.823   0.414 129.935  0.00  0.00    +0.210 HD
ENDBRANCH   8  22
TORSDOF 2
ENDMDL
MODEL 5
REMARK VINA RESULT:      -6.9      3.539      6.501
REMARK  Name = NuBBE_2500
REMARK  7 active torsions:
REMARK  status: ('A' for Active; 'I' for Inactive)
REMARK    1  A    between atoms: C_1  and  C_2
REMARK    2  A    between atoms: C_2  and  C_3
REMARK    3  A    between atoms: C_4  and  C_5
REMARK    4  A    between atoms: C_10  and  O_12
REMARK    5  A    between atoms: C_16  and  C_17
REMARK    6  A    between atoms: C_16  and  C_18
REMARK    7  A    between atoms: C_23  and  C_24
REMARK                            x       y       z     vdW  Elec       q    Type
REMARK                         _______ _______ _______ _____ _____    ______ ____
ROOT
ATOM      1  C   LIG A   1      -4.968   1.985 126.662  0.00  0.00    -0.039 A 
ATOM      2  C   LIG A   1      -5.007   3.168 125.885  0.00  0.00    -0.047 A 
ATOM      3  C   LIG A   1      -4.143   4.366 126.181  0.00  0.00    +0.044 C 
ATOM      4  C   LIG A   1      -5.861   3.236 124.783  0.00  0.00    +0.004 A 
ATOM      5  C   LIG A   1      -6.679   2.162 124.448  0.00  0.00    +0.005 A 
ATOM      6  C   LIG A   1      -6.674   0.965 125.190  0.00  0.00    -0.035 A 
ATOM      7  C   LIG A   1      -5.811   0.881 126.311  0.00  0.00    -0.012 A 
ATOM      8  C   LIG A   1      -5.842  -0.373 127.157  0.00  0.00    +0.145 C 
ATOM      9  C   LIG A   1      -6.148  -1.603 126.315  0.00  0.00    +0.041 C 
ATOM     10  C   LIG A   1      -7.524  -1.491 125.638  0.00  0.00    +0.015 C 
ATOM     11  C   LIG A   1      -7.921  -2.840 124.917  0.00  0.00    +0.027 C 
ATOM     12  C   LIG A   1      -8.690  -3.726 125.924  0.00  0.00    +0.019 C 
ATOM     13  C   LIG A   1      -6.734  -3.677 124.392  0.00  0.00    +0.019 C 
ATOM     14  C   LIG A   1      -8.816  -2.569 123.707  0.00  0.00    +0.139 C 
ATOM     15  O   LIG A   1      -9.848  -3.207 123.490  0.00  0.00    -0.297 OA
ATOM     16  C   LIG A   1      -8.343  -1.549 122.700  0.00  0.00    +0.076 C 
ATOM     17  C   LIG A   1      -7.350  -0.554 123.284  0.00  0.00    +0.019 C 
ATOM     18  C   LIG A   1      -7.631  -0.182 124.763  0.00  0.00    -0.003 C 
ATOM     19  C   LIG A   1      -9.078   0.372 124.914  0.00  0.00    +0.016 C 
ENDROOT
BRANCH   1  21
ATOM     20  C   LIG A   1      -4.700   2.437 129.143  0.00  0.00    +0.009 C 
ATOM     21  C   LIG A   1      -4.040   1.930 127.869  0.00  0.00    +0.032 C 
ENDBRANCH   1  21
BRANCH   8  22
ATOM     22  O   LIG A   1      -6.822  -0.250 128.186  0.00  0.00    -0.387 OA
ATOM     23  H   LIG A   1      -7.698  -0.315 127.768  0.00  0.00    +0.210 HD
ENDBRANCH   8  22
TORSDOF 2
ENDMDL
MODEL 6
REMARK VINA RESULT:      -6.9      4.029      5.784
REMARK  Name = NuBBE_2500
REMARK  7 active torsions:
REMARK  status: ('A' for Active; 'I' for Inactive)
REMARK    1  A    between atoms: C_1  and  C_2
REMARK    2  A    between atoms: C_2  and  C_3
REMARK    3  A    between atoms: C_4  and  C_5
REMARK    4  A    between atoms: C_10  and  O_12
REMARK    5  A    between atoms: C_16  and  C_17
REMARK    6  A    between atoms: C_16  and  C_18
REMARK    7  A    between atoms: C_23  and  C_24
REMARK                            x       y       z     vdW  Elec       q    Type
REMARK                         _______ _______ _______ _____ _____    ______ ____
ROOT
ATOM      1  C   LIG A   1      -8.075  -1.982 124.683  0.00  0.00    -0.039 A 
ATOM      2  C   LIG A   1      -9.036  -2.058 123.646  0.00  0.00    -0.047 A 
ATOM      3  C   LIG A   1      -9.690  -3.352 123.235  0.00  0.00    +0.044 C 
ATOM      4  C   LIG A   1      -9.421  -0.893 122.982  0.00  0.00    +0.004 A 
ATOM      5  C   LIG A   1      -8.864   0.336 123.318  0.00  0.00    +0.005 A 
ATOM      6  C   LIG A   1      -7.906   0.462 124.342  0.00  0.00    -0.035 A 
ATOM      7  C   LIG A   1      -7.507  -0.713 125.027  0.00  0.00    -0.012 A 
ATOM      8  C   LIG A   1      -6.430  -0.604 126.085  0.00  0.00    +0.145 C 
ATOM      9  C   LIG A   1      -6.493   0.734 126.805  0.00  0.00    +0.041 C 
ATOM     10  C   LIG A   1      -6.277   1.905 125.832  0.00  0.00    +0.015 C 
ATOM     11  C   LIG A   1      -6.158   3.279 126.604  0.00  0.00    +0.027 C 
ATOM     12  C   LIG A   1      -4.669   3.523 126.942  0.00  0.00    +0.019 C 
ATOM     13  C   LIG A   1      -6.943   3.356 127.931  0.00  0.00    +0.019 C 
ATOM     14  C   LIG A   1      -6.669   4.435 125.742  0.00  0.00    +0.139 C 
ATOM     15  O   LIG A   1      -6.047   5.491 125.615  0.00  0.00    -0.297 OA
ATOM     16  C   LIG A   1      -8.037   4.294 125.121  0.00  0.00    +0.076 C 
ATOM     17  C   LIG A   1      -8.477   2.844 124.974  0.00  0.00    +0.019 C 
ATOM     18  C   LIG A   1      -7.317   1.867 124.645  0.00  0.00    -0.003 C 
ATOM     19  C   LIG A   1      -6.578   2.324 123.353  0.00  0.00    +0.016 C 
ENDROOT
BRANCH   1  21
ATOM     20  C   LIG A   1      -8.536  -3.587 126.591  0.00  0.00    +0.009 C 
ATOM     21  C   LIG A   1      -7.657  -3.264 125.392  0.00  0.00    +0.032 C 
ENDBRANCH   1  21
BRANCH   8  22
ATOM     22  O   LIG A   1      -5.142  -0.763 125.496  0.00  0.00    -0.387 OA
ATOM     23  H   LIG A   1      -4.513  -0.967 126.210  0.00  0.00    +0.210 HD
ENDBRANCH   8  22
TORSDOF 2
ENDMDL
MODEL 7
REMARK VINA RESULT:      -6.7      2.786      6.584
REMARK  Name = NuBBE_2500
REMARK  7 active torsions:
REMARK  status: ('A' for Active; 'I' for Inactive)
REMARK    1  A    between atoms: C_1  and  C_2
REMARK    2  A    between atoms: C_2  and  C_3
REMARK    3  A    between atoms: C_4  and  C_5
REMARK    4  A    between atoms: C_10  and  O_12
REMARK    5  A    between atoms: C_16  and  C_17
REMARK    6  A    between atoms: C_16  and  C_18
REMARK    7  A    between atoms: C_23  and  C_24
REMARK                            x       y       z     vdW  Elec       q    Type
REMARK                         _______ _______ _______ _____ _____    ______ ____
ROOT
ATOM      1  C   LIG A   1      -5.383  -0.638 128.607  0.00  0.00    -0.039 A 
ATOM      2  C   LIG A   1      -5.247   0.687 129.085  0.00  0.00    -0.047 A 
ATOM      3  C   LIG A   1      -4.349   1.049 130.240  0.00  0.00    +0.044 C 
ATOM      4  C   LIG A   1      -5.949   1.717 128.458  0.00  0.00    +0.004 A 
ATOM      5  C   LIG A   1      -6.788   1.454 127.380  0.00  0.00    +0.005 A 
ATOM      6  C   LIG A   1      -6.956   0.153 126.870  0.00  0.00    -0.035 A 
ATOM      7  C   LIG A   1      -6.247  -0.903 127.495  0.00  0.00    -0.012 A 
ATOM      8  C   LIG A   1      -6.467  -2.316 127.000  0.00  0.00    +0.145 C 
ATOM      9  C   LIG A   1      -6.746  -2.343 125.505  0.00  0.00    +0.041 C 
ATOM     10  C   LIG A   1      -8.016  -1.550 125.157  0.00  0.00    +0.015 C 
ATOM     11  C   LIG A   1      -8.408  -1.731 123.637  0.00  0.00    +0.027 C 
ATOM     12  C   LIG A   1      -9.354  -2.948 123.517  0.00  0.00    +0.019 C 
ATOM     13  C   LIG A   1      -7.223  -1.982 122.679  0.00  0.00    +0.019 C 
ATOM     14  C   LIG A   1      -9.124  -0.488 123.107  0.00  0.00    +0.139 C 
ATOM     15  O   LIG A   1     -10.161  -0.554 122.443  0.00  0.00    -0.297 OA
ATOM     16  C   LIG A   1      -8.462   0.850 123.327  0.00  0.00    +0.076 C 
ATOM     17  C   LIG A   1      -7.486   0.845 124.495  0.00  0.00    +0.019 C 
ATOM     18  C   LIG A   1      -7.926  -0.061 125.675  0.00  0.00    -0.003 C 
ATOM     19  C   LIG A   1      -9.340   0.352 126.175  0.00  0.00    +0.016 C 
ENDROOT
BRANCH   1  21
ATOM     20  C   LIG A   1      -5.404  -2.375 130.455  0.00  0.00    +0.009 C 
ATOM     21  C   LIG A   1      -4.619  -1.754 129.309  0.00  0.00    +0.032 C 
ENDBRANCH   1  21
BRANCH   8  22
ATOM     22  O   LIG A   1      -7.557  -2.918 127.695  0.00  0.00    -0.387 OA
ATOM     23  H   LIG A   1      -7.226  -3.730 128.117  0.00  0.00    +0.210 HD
ENDBRANCH   8  22
TORSDOF 2
ENDMDL
MODEL 8
REMARK VINA RESULT:      -6.7      2.355      3.152
REMARK  Name = NuBBE_2500
REMARK  7 active torsions:
REMARK  status: ('A' for Active; 'I' for Inactive)
REMARK    1  A    between atoms: C_1  and  C_2
REMARK    2  A    between atoms: C_2  and  C_3
REMARK    3  A    between atoms: C_4  and  C_5
REMARK    4  A    between atoms: C_10  and  O_12
REMARK    5  A    between atoms: C_16  and  C_17
REMARK    6  A    between atoms: C_16  and  C_18
REMARK    7  A    between atoms: C_23  and  C_24
REMARK                            x       y       z     vdW  Elec       q    Type
REMARK                         _______ _______ _______ _____ _____    ______ ____
ROOT
ATOM      1  C   LIG A   1      -8.554  -0.923 123.943  0.00  0.00    -0.039 A 
ATOM      2  C   LIG A   1      -9.284   0.272 123.738  0.00  0.00    -0.047 A 
ATOM      3  C   LIG A   1     -10.165   0.494 122.536  0.00  0.00    +0.044 C 
ATOM      4  C   LIG A   1      -9.212   1.290 124.690  0.00  0.00    +0.004 A 
ATOM      5  C   LIG A   1      -8.425   1.148 125.828  0.00  0.00    +0.005 A 
ATOM      6  C   LIG A   1      -7.682  -0.022 126.075  0.00  0.00    -0.035 A 
ATOM      7  C   LIG A   1      -7.747  -1.066 125.118  0.00  0.00    -0.012 A 
ATOM      8  C   LIG A   1      -6.902  -2.303 125.336  0.00  0.00    +0.145 C 
ATOM      9  C   LIG A   1      -6.746  -2.613 126.817  0.00  0.00    +0.041 C 
ATOM     10  C   LIG A   1      -6.046  -1.463 127.560  0.00  0.00    +0.015 C 
ATOM     11  C   LIG A   1      -5.717  -1.860 129.054  0.00  0.00    +0.027 C 
ATOM     12  C   LIG A   1      -4.310  -2.499 129.092  0.00  0.00    +0.019 C 
ATOM     13  C   LIG A   1      -6.693  -2.871 129.694  0.00  0.00    +0.019 C 
ATOM     14  C   LIG A   1      -5.730  -0.628 129.960  0.00  0.00    +0.139 C 
ATOM     15  O   LIG A   1      -4.838  -0.400 130.780  0.00  0.00    -0.297 OA
ATOM     16  C   LIG A   1      -6.941   0.270 129.905  0.00  0.00    +0.076 C 
ATOM     17  C   LIG A   1      -7.712   0.149 128.598  0.00  0.00    +0.019 C 
ATOM     18  C   LIG A   1      -6.812  -0.097 127.359  0.00  0.00    -0.003 C 
ATOM     19  C   LIG A   1      -5.745   1.030 127.236  0.00  0.00    +0.016 C 
ENDROOT
BRANCH   1  21
ATOM     20  C   LIG A   1      -9.549  -3.166 123.300  0.00  0.00    +0.009 C 
ATOM     21  C   LIG A   1      -8.633  -2.022 122.889  0.00  0.00    +0.032 C 
ENDBRANCH   1  21
BRANCH   8  22
ATOM     22  O   LIG A   1      -5.614  -2.130 124.751  0.00  0.00    -0.387 OA
ATOM     23  H   LIG A   1      -5.312  -1.230 124.963  0.00  0.00    +0.210 HD
ENDBRANCH   8  22
TORSDOF 2
ENDMDL
MODEL 9
REMARK VINA RESULT:      -6.6      3.172      5.285
REMARK  Name = NuBBE_2500
REMARK  7 active torsions:
REMARK  status: ('A' for Active; 'I' for Inactive)
REMARK    1  A    between atoms: C_1  and  C_2
REMARK    2  A    between atoms: C_2  and  C_3
REMARK    3  A    between atoms: C_4  and  C_5
REMARK    4  A    between atoms: C_10  and  O_12
REMARK    5  A    between atoms: C_16  and  C_17
REMARK    6  A    between atoms: C_16  and  C_18
REMARK    7  A    between atoms: C_23  and  C_24
REMARK                            x       y       z     vdW  Elec       q    Type
REMARK                         _______ _______ _______ _____ _____    ______ ____
ROOT
ATOM      1  C   LIG A   1      -7.395  -2.409 128.812  0.00  0.00    -0.039 A 
ATOM      2  C   LIG A   1      -8.270  -3.011 127.876  0.00  0.00    -0.047 A 
ATOM      3  C   LIG A   1      -9.111  -4.217 128.205  0.00  0.00    +0.044 C 
ATOM      4  C   LIG A   1      -8.387  -2.464 126.598  0.00  0.00    +0.004 A 
ATOM      5  C   LIG A   1      -7.646  -1.345 126.230  0.00  0.00    +0.005 A 
ATOM      6  C   LIG A   1      -6.763  -0.713 127.126  0.00  0.00    -0.035 A 
ATOM      7  C   LIG A   1      -6.636  -1.255 128.429  0.00  0.00    -0.012 A 
ATOM      8  C   LIG A   1      -5.643  -0.627 129.383  0.00  0.00    +0.145 C 
ATOM      9  C   LIG A   1      -5.521   0.871 129.148  0.00  0.00    +0.041 C 
ATOM     10  C   LIG A   1      -5.023   1.177 127.725  0.00  0.00    +0.015 C 
ATOM     11  C   LIG A   1      -4.720   2.717 127.541  0.00  0.00    +0.027 C 
ATOM     12  C   LIG A   1      -3.242   2.973 127.917  0.00  0.00    +0.019 C 
ATOM     13  C   LIG A   1      -5.579   3.663 128.408  0.00  0.00    +0.019 C 
ATOM     14  C   LIG A   1      -4.947   3.148 126.092  0.00  0.00    +0.139 C 
ATOM     15  O   LIG A   1      -4.138   3.841 125.472  0.00  0.00    -0.297 OA
ATOM     16  C   LIG A   1      -6.265   2.788 125.452  0.00  0.00    +0.076 C 
ATOM     17  C   LIG A   1      -6.945   1.601 126.119  0.00  0.00    +0.019 C 
ATOM     18  C   LIG A   1      -5.957   0.521 126.635  0.00  0.00    -0.003 C 
ATOM     19  C   LIG A   1      -5.050   0.021 125.473  0.00  0.00    +0.016 C 
ENDROOT
BRANCH   1  21
ATOM     20  C   LIG A   1      -6.156  -4.058 130.288  0.00  0.00    +0.009 C 
ATOM     21  C   LIG A   1      -7.269  -3.024 130.200  0.00  0.00    +0.032 C 
ENDBRANCH   1  21
BRANCH   8  22
ATOM     22  O   LIG A   1      -4.362  -1.235 129.232  0.00  0.00    -0.387 OA
ATOM     23  H   LIG A   1      -3.764  -0.571 128.847  0.00  0.00    +0.210 HD
ENDBRANCH   8  22
TORSDOF 2
ENDMDL
