MODEL 1
REMARK VINA RESULT:      -7.4      0.000      0.000
REMARK  Name = NuBBE_139
REMARK  6 active torsions:
REMARK  status: ('A' for Active; 'I' for Inactive)
REMARK    1  A    between atoms: C_6  and  C_11
REMARK    2  A    between atoms: C_8  and  O_10
REMARK    3  A    between atoms: C_13  and  O_14
REMARK    4  A    between atoms: C_15  and  O_18
REMARK    5  A    between atoms: C_20  and  O_24
REMARK    6  A    between atoms: C_22  and  O_23
REMARK                            x       y       z     vdW  Elec       q    Type
REMARK                         _______ _______ _______ _____ _____    ______ ____
ROOT
ATOM      1  O   LIG A   1      -8.614   2.454 126.283  0.00  0.00    -0.289 OA
ATOM      2  C   LIG A   1      -7.982   2.053 125.308  0.00  0.00    +0.202 C 
ATOM      3  C   LIG A   1      -7.716   0.617 125.038  0.00  0.00    +0.103 A 
ATOM      4  C   LIG A   1      -7.085   0.285 123.833  0.00  0.00    +0.139 A 
ATOM      5  O   LIG A   1      -6.710   1.193 122.881  0.00  0.00    -0.480 OA
ATOM      6  C   LIG A   1      -7.452   2.423 122.926  0.00  0.00    +0.240 C 
ATOM      7  C   LIG A   1      -7.402   3.050 124.319  0.00  0.00    +0.230 C 
ATOM      8  C   LIG A   1      -6.766  -1.044 123.539  0.00  0.00    +0.092 A 
ATOM      9  C   LIG A   1      -7.107  -2.043 124.441  0.00  0.00    +0.124 A 
ATOM     10  C   LIG A   1      -7.749  -1.736 125.635  0.00  0.00    +0.091 A 
ATOM     11  C   LIG A   1      -8.048  -0.405 125.936  0.00  0.00    +0.134 A 
ENDROOT
BRANCH   6  12
ATOM     12  C   LIG A   1      -6.849   3.323 121.855  0.00  0.00    -0.001 A 
ATOM     13  C   LIG A   1      -7.572   3.597 120.680  0.00  0.00    +0.056 A 
ATOM     14  C   LIG A   1      -7.010   4.408 119.699  0.00  0.00    +0.159 A 
ATOM     15  C   LIG A   1      -5.741   4.954 119.874  0.00  0.00    +0.158 A 
ATOM     16  C   LIG A   1      -5.014   4.701 121.026  0.00  0.00    +0.049 A 
ATOM     17  C   LIG A   1      -5.567   3.885 122.016  0.00  0.00    +0.011 A 
BRANCH  14  18
ATOM     18  O   LIG A   1      -7.670   4.698 118.536  0.00  0.00    -0.503 OA
ATOM     19  H   LIG A   1      -8.563   4.319 118.594  0.00  0.00    +0.292 HD
ENDBRANCH  14  18
BRANCH  15  20
ATOM     20  O   LIG A   1      -5.199   5.746 118.902  0.00  0.00    -0.503 OA
ATOM     21  H   LIG A   1      -5.811   5.653 118.146  0.00  0.00    +0.292 HD
ENDBRANCH  15  20
ENDBRANCH   6  12
BRANCH   7  22
ATOM     22  O   LIG A   1      -8.185   4.248 124.378  0.00  0.00    -0.380 OA
ATOM     23  H   LIG A   1      -9.091   3.985 124.109  0.00  0.00    +0.210 HD
ENDBRANCH   7  22
BRANCH  11  24
ATOM     24  O   LIG A   1      -8.657  -0.125 127.125  0.00  0.00    -0.506 OA
ATOM     25  H   LIG A   1      -8.239  -0.624 127.845  0.00  0.00    +0.292 HD
ENDBRANCH  11  24
BRANCH   9  26
ATOM     26  O   LIG A   1      -6.830  -3.354 124.189  0.00  0.00    -0.506 OA
ATOM     27  H   LIG A   1      -6.727  -3.480 123.231  0.00  0.00    +0.292 HD
ENDBRANCH   9  26
TORSDOF 6
ENDMDL
MODEL 2
REMARK VINA RESULT:      -7.3      7.448      9.290
REMARK  Name = NuBBE_139
REMARK  6 active torsions:
REMARK  status: ('A' for Active; 'I' for Inactive)
REMARK    1  A    between atoms: C_6  and  C_11
REMARK    2  A    between atoms: C_8  and  O_10
REMARK    3  A    between atoms: C_13  and  O_14
REMARK    4  A    between atoms: C_15  and  O_18
REMARK    5  A    between atoms: C_20  and  O_24
REMARK    6  A    between atoms: C_22  and  O_23
REMARK                            x       y       z     vdW  Elec       q    Type
REMARK                         _______ _______ _______ _____ _____    ______ ____
ROOT
ATOM      1  O   LIG A   1      -8.583   4.421 134.101  0.00  0.00    -0.289 OA
ATOM      2  C   LIG A   1      -8.891   4.470 132.912  0.00  0.00    +0.202 C 
ATOM      3  C   LIG A   1      -8.682   3.345 131.965  0.00  0.00    +0.103 A 
ATOM      4  C   LIG A   1      -9.181   3.484 130.664  0.00  0.00    +0.139 A 
ATOM      5  O   LIG A   1      -9.860   4.582 130.212  0.00  0.00    -0.480 OA
ATOM      6  C   LIG A   1     -10.493   5.345 131.252  0.00  0.00    +0.240 C 
ATOM      7  C   LIG A   1      -9.492   5.741 132.336  0.00  0.00    +0.230 C 
ATOM      8  C   LIG A   1      -8.978   2.481 129.712  0.00  0.00    +0.092 A 
ATOM      9  C   LIG A   1      -8.301   1.324 130.074  0.00  0.00    +0.124 A 
ATOM     10  C   LIG A   1      -7.812   1.159 131.365  0.00  0.00    +0.091 A 
ATOM     11  C   LIG A   1      -7.998   2.172 132.309  0.00  0.00    +0.134 A 
ENDROOT
BRANCH   6  12
ATOM     12  C   LIG A   1     -11.127   6.551 130.570  0.00  0.00    -0.001 A 
ATOM     13  C   LIG A   1     -10.490   7.150 129.468  0.00  0.00    +0.056 A 
ATOM     14  C   LIG A   1     -11.066   8.261 128.859  0.00  0.00    +0.159 A 
ATOM     15  C   LIG A   1     -12.270   8.780 129.329  0.00  0.00    +0.158 A 
ATOM     16  C   LIG A   1     -12.917   8.201 130.409  0.00  0.00    +0.049 A 
ATOM     17  C   LIG A   1     -12.345   7.089 131.031  0.00  0.00    +0.011 A 
BRANCH  14  18
ATOM     18  O   LIG A   1     -10.481   8.882 127.790  0.00  0.00    -0.503 OA
ATOM     19  H   LIG A   1      -9.812   8.282 127.421  0.00  0.00    +0.292 HD
ENDBRANCH  14  18
BRANCH  15  20
ATOM     20  O   LIG A   1     -12.824   9.872 128.724  0.00  0.00    -0.503 OA
ATOM     21  H   LIG A   1     -12.060  10.357 128.355  0.00  0.00    +0.292 HD
ENDBRANCH  15  20
ENDBRANCH   6  12
BRANCH   7  22
ATOM     22  O   LIG A   1     -10.132   6.456 133.399  0.00  0.00    -0.380 OA
ATOM     23  H   LIG A   1      -9.772   6.074 134.228  0.00  0.00    +0.210 HD
ENDBRANCH   7  22
BRANCH  11  24
ATOM     24  O   LIG A   1      -7.488   1.998 133.563  0.00  0.00    -0.506 OA
ATOM     25  H   LIG A   1      -6.958   1.186 133.603  0.00  0.00    +0.292 HD
ENDBRANCH  11  24
BRANCH   9  26
ATOM     26  O   LIG A   1      -8.094   0.313 129.184  0.00  0.00    -0.506 OA
ATOM     27  H   LIG A   1      -8.363  -0.528 129.589  0.00  0.00    +0.292 HD
ENDBRANCH   9  26
TORSDOF 6
ENDMDL
MODEL 3
REMARK VINA RESULT:      -7.2      8.640     10.394
REMARK  Name = NuBBE_139
REMARK  6 active torsions:
REMARK  status: ('A' for Active; 'I' for Inactive)
REMARK    1  A    between atoms: C_6  and  C_11
REMARK    2  A    between atoms: C_8  and  O_10
REMARK    3  A    between atoms: C_13  and  O_14
REMARK    4  A    between atoms: C_15  and  O_18
REMARK    5  A    between atoms: C_20  and  O_24
REMARK    6  A    between atoms: C_22  and  O_23
REMARK                            x       y       z     vdW  Elec       q    Type
REMARK                         _______ _______ _______ _____ _____    ______ ____
ROOT
ATOM      1  O   LIG A   1      -9.263   2.265 131.435  0.00  0.00    -0.289 OA
ATOM      2  C   LIG A   1      -9.378   3.435 131.795  0.00  0.00    +0.202 C 
ATOM      3  C   LIG A   1      -8.633   4.018 132.939  0.00  0.00    +0.103 A 
ATOM      4  C   LIG A   1      -8.766   5.392 133.175  0.00  0.00    +0.139 A 
ATOM      5  O   LIG A   1      -9.524   6.235 132.411  0.00  0.00    -0.480 OA
ATOM      6  C   LIG A   1      -9.751   5.765 131.072  0.00  0.00    +0.240 C 
ATOM      7  C   LIG A   1     -10.345   4.357 131.073  0.00  0.00    +0.230 C 
ATOM      8  C   LIG A   1      -8.126   5.993 134.263  0.00  0.00    +0.092 A 
ATOM      9  C   LIG A   1      -7.330   5.221 135.097  0.00  0.00    +0.124 A 
ATOM     10  C   LIG A   1      -7.171   3.859 134.872  0.00  0.00    +0.091 A 
ATOM     11  C   LIG A   1      -7.827   3.256 133.796  0.00  0.00    +0.134 A 
ENDROOT
BRANCH   6  12
ATOM     12  C   LIG A   1     -10.665   6.788 130.410  0.00  0.00    -0.001 A 
ATOM     13  C   LIG A   1     -10.308   7.349 129.170  0.00  0.00    +0.056 A 
ATOM     14  C   LIG A   1     -11.140   8.294 128.577  0.00  0.00    +0.159 A 
ATOM     15  C   LIG A   1     -12.323   8.685 129.199  0.00  0.00    +0.158 A 
ATOM     16  C   LIG A   1     -12.695   8.140 130.417  0.00  0.00    +0.049 A 
ATOM     17  C   LIG A   1     -11.866   7.194 131.024  0.00  0.00    +0.011 A 
BRANCH  14  18
ATOM     18  O   LIG A   1     -10.833   8.874 127.376  0.00  0.00    -0.503 OA
ATOM     19  H   LIG A   1     -11.661   9.175 126.966  0.00  0.00    +0.292 HD
ENDBRANCH  14  18
BRANCH  15  20
ATOM     20  O   LIG A   1     -13.129   9.615 128.608  0.00  0.00    -0.503 OA
ATOM     21  H   LIG A   1     -12.532  10.108 128.012  0.00  0.00    +0.292 HD
ENDBRANCH  15  20
ENDBRANCH   6  12
BRANCH   7  22
ATOM     22  O   LIG A   1     -10.522   3.867 129.738  0.00  0.00    -0.380 OA
ATOM     23  H   LIG A   1     -10.558   2.890 129.820  0.00  0.00    +0.210 HD
ENDBRANCH   7  22
BRANCH  11  24
ATOM     24  O   LIG A   1      -7.677   1.912 133.608  0.00  0.00    -0.506 OA
ATOM     25  H   LIG A   1      -8.046   1.422 134.360  0.00  0.00    +0.292 HD
ENDBRANCH  11  24
BRANCH   9  26
ATOM     26  O   LIG A   1      -6.675   5.768 136.161  0.00  0.00    -0.506 OA
ATOM     27  H   LIG A   1      -7.253   5.737 136.941  0.00  0.00    +0.292 HD
ENDBRANCH   9  26
TORSDOF 6
ENDMDL
MODEL 4
REMARK VINA RESULT:      -7.2      3.732      8.235
REMARK  Name = NuBBE_139
REMARK  6 active torsions:
REMARK  status: ('A' for Active; 'I' for Inactive)
REMARK    1  A    between atoms: C_6  and  C_11
REMARK    2  A    between atoms: C_8  and  O_10
REMARK    3  A    between atoms: C_13  and  O_14
REMARK    4  A    between atoms: C_15  and  O_18
REMARK    5  A    between atoms: C_20  and  O_24
REMARK    6  A    between atoms: C_22  and  O_23
REMARK                            x       y       z     vdW  Elec       q    Type
REMARK                         _______ _______ _______ _____ _____    ______ ____
ROOT
ATOM      1  O   LIG A   1      -9.508  -2.486 123.631  0.00  0.00    -0.289 OA
ATOM      2  C   LIG A   1      -8.913  -1.835 124.487  0.00  0.00    +0.202 C 
ATOM      3  C   LIG A   1      -8.981  -0.354 124.583  0.00  0.00    +0.103 A 
ATOM      4  C   LIG A   1      -8.351   0.259 125.673  0.00  0.00    +0.139 A 
ATOM      5  O   LIG A   1      -7.690  -0.416 126.662  0.00  0.00    -0.480 OA
ATOM      6  C   LIG A   1      -8.114  -1.779 126.821  0.00  0.00    +0.240 C 
ATOM      7  C   LIG A   1      -8.030  -2.543 125.500  0.00  0.00    +0.230 C 
ATOM      8  C   LIG A   1      -8.339   1.652 125.797  0.00  0.00    +0.092 A 
ATOM      9  C   LIG A   1      -8.985   2.427 124.845  0.00  0.00    +0.124 A 
ATOM     10  C   LIG A   1      -9.630   1.838 123.764  0.00  0.00    +0.091 A 
ATOM     11  C   LIG A   1      -9.623   0.447 123.630  0.00  0.00    +0.134 A 
ENDROOT
BRANCH   6  12
ATOM     12  C   LIG A   1      -7.224  -2.379 127.902  0.00  0.00    -0.001 A 
ATOM     13  C   LIG A   1      -5.843  -2.114 127.903  0.00  0.00    +0.056 A 
ATOM     14  C   LIG A   1      -5.033  -2.677 128.885  0.00  0.00    +0.159 A 
ATOM     15  C   LIG A   1      -5.581  -3.496 129.869  0.00  0.00    +0.158 A 
ATOM     16  C   LIG A   1      -6.940  -3.765 129.890  0.00  0.00    +0.049 A 
ATOM     17  C   LIG A   1      -7.761  -3.209 128.906  0.00  0.00    +0.011 A 
BRANCH  14  18
ATOM     18  O   LIG A   1      -3.684  -2.454 128.923  0.00  0.00    -0.503 OA
ATOM     19  H   LIG A   1      -3.295  -3.066 129.570  0.00  0.00    +0.292 HD
ENDBRANCH  14  18
BRANCH  15  20
ATOM     20  O   LIG A   1      -4.775  -4.044 130.825  0.00  0.00    -0.503 OA
ATOM     21  H   LIG A   1      -3.874  -3.760 130.574  0.00  0.00    +0.292 HD
ENDBRANCH  15  20
ENDBRANCH   6  12
BRANCH   7  22
ATOM     22  O   LIG A   1      -8.501  -3.887 125.645  0.00  0.00    -0.380 OA
ATOM     23  H   LIG A   1      -8.413  -4.295 124.757  0.00  0.00    +0.210 HD
ENDBRANCH   7  22
BRANCH  11  24
ATOM     24  O   LIG A   1     -10.243  -0.109 122.548  0.00  0.00    -0.506 OA
ATOM     25  H   LIG A   1      -9.838   0.210 121.726  0.00  0.00    +0.292 HD
ENDBRANCH  11  24
BRANCH   9  26
ATOM     26  O   LIG A   1      -9.013   3.787 124.934  0.00  0.00    -0.506 OA
ATOM     27  H   LIG A   1      -9.901   4.104 124.699  0.00  0.00    +0.292 HD
ENDBRANCH   9  26
TORSDOF 6
ENDMDL
MODEL 5
REMARK VINA RESULT:      -6.8      5.088      8.672
REMARK  Name = NuBBE_139
REMARK  6 active torsions:
REMARK  status: ('A' for Active; 'I' for Inactive)
REMARK    1  A    between atoms: C_6  and  C_11
REMARK    2  A    between atoms: C_8  and  O_10
REMARK    3  A    between atoms: C_13  and  O_14
REMARK    4  A    between atoms: C_15  and  O_18
REMARK    5  A    between atoms: C_20  and  O_24
REMARK    6  A    between atoms: C_22  and  O_23
REMARK                            x       y       z     vdW  Elec       q    Type
REMARK                         _______ _______ _______ _____ _____    ______ ____
ROOT
ATOM      1  O   LIG A   1      -5.029  -0.690 125.469  0.00  0.00    -0.289 OA
ATOM      2  C   LIG A   1      -6.030  -1.139 126.024  0.00  0.00    +0.202 C 
ATOM      3  C   LIG A   1      -7.133  -1.820 125.298  0.00  0.00    +0.103 A 
ATOM      4  C   LIG A   1      -8.163  -2.388 126.058  0.00  0.00    +0.139 A 
ATOM      5  O   LIG A   1      -8.213  -2.370 127.425  0.00  0.00    -0.480 OA
ATOM      6  C   LIG A   1      -6.930  -2.216 128.053  0.00  0.00    +0.240 C 
ATOM      7  C   LIG A   1      -6.199  -0.983 127.525  0.00  0.00    +0.230 C 
ATOM      8  C   LIG A   1      -9.252  -3.003 125.434  0.00  0.00    +0.092 A 
ATOM      9  C   LIG A   1      -9.293  -3.075 124.049  0.00  0.00    +0.124 A 
ATOM     10  C   LIG A   1      -8.273  -2.532 123.276  0.00  0.00    +0.091 A 
ATOM     11  C   LIG A   1      -7.195  -1.899 123.900  0.00  0.00    +0.134 A 
ENDROOT
BRANCH   6  12
ATOM     12  C   LIG A   1      -7.196  -2.145 129.551  0.00  0.00    -0.001 A 
ATOM     13  C   LIG A   1      -7.839  -1.020 130.098  0.00  0.00    +0.056 A 
ATOM     14  C   LIG A   1      -8.065  -0.953 131.470  0.00  0.00    +0.159 A 
ATOM     15  C   LIG A   1      -7.664  -1.993 132.303  0.00  0.00    +0.158 A 
ATOM     16  C   LIG A   1      -7.034  -3.113 131.785  0.00  0.00    +0.049 A 
ATOM     17  C   LIG A   1      -6.797  -3.188 130.410  0.00  0.00    +0.011 A 
BRANCH  14  18
ATOM     18  O   LIG A   1      -8.680   0.123 132.049  0.00  0.00    -0.503 OA
ATOM     19  H   LIG A   1      -9.489   0.314 131.546  0.00  0.00    +0.292 HD
ENDBRANCH  14  18
BRANCH  15  20
ATOM     20  O   LIG A   1      -7.889  -1.915 133.648  0.00  0.00    -0.503 OA
ATOM     21  H   LIG A   1      -8.855  -1.793 133.724  0.00  0.00    +0.292 HD
ENDBRANCH  15  20
ENDBRANCH   6  12
BRANCH   7  22
ATOM     22  O   LIG A   1      -4.899  -0.858 128.113  0.00  0.00    -0.380 OA
ATOM     23  H   LIG A   1      -4.722  -1.719 128.548  0.00  0.00    +0.210 HD
ENDBRANCH   7  22
BRANCH  11  24
ATOM     24  O   LIG A   1      -6.217  -1.351 123.122  0.00  0.00    -0.506 OA
ATOM     25  H   LIG A   1      -5.757  -2.044 122.621  0.00  0.00    +0.292 HD
ENDBRANCH  11  24
BRANCH   9  26
ATOM     26  O   LIG A   1     -10.327  -3.679 123.398  0.00  0.00    -0.506 OA
ATOM     27  H   LIG A   1     -10.535  -3.176 122.593  0.00  0.00    +0.292 HD
ENDBRANCH   9  26
TORSDOF 6
ENDMDL
MODEL 6
REMARK VINA RESULT:      -6.4      8.266      9.366
REMARK  Name = NuBBE_139
REMARK  6 active torsions:
REMARK  status: ('A' for Active; 'I' for Inactive)
REMARK    1  A    between atoms: C_6  and  C_11
REMARK    2  A    between atoms: C_8  and  O_10
REMARK    3  A    between atoms: C_13  and  O_14
REMARK    4  A    between atoms: C_15  and  O_18
REMARK    5  A    between atoms: C_20  and  O_24
REMARK    6  A    between atoms: C_22  and  O_23
REMARK                            x       y       z     vdW  Elec       q    Type
REMARK                         _______ _______ _______ _____ _____    ______ ____
ROOT
ATOM      1  O   LIG A   1      -9.249   2.380 131.021  0.00  0.00    -0.289 OA
ATOM      2  C   LIG A   1      -8.952   3.562 130.861  0.00  0.00    +0.202 C 
ATOM      3  C   LIG A   1      -7.563   4.078 130.955  0.00  0.00    +0.103 A 
ATOM      4  C   LIG A   1      -7.342   5.424 130.638  0.00  0.00    +0.139 A 
ATOM      5  O   LIG A   1      -8.319   6.291 130.232  0.00  0.00    -0.480 OA
ATOM      6  C   LIG A   1      -9.462   5.648 129.645  0.00  0.00    +0.240 C 
ATOM      7  C   LIG A   1     -10.040   4.585 130.578  0.00  0.00    +0.230 C 
ATOM      8  C   LIG A   1      -6.066   5.982 130.750  0.00  0.00    +0.092 A 
ATOM      9  C   LIG A   1      -5.005   5.183 131.151  0.00  0.00    +0.124 A 
ATOM     10  C   LIG A   1      -5.199   3.840 131.456  0.00  0.00    +0.091 A 
ATOM     11  C   LIG A   1      -6.479   3.289 131.363  0.00  0.00    +0.134 A 
ENDROOT
BRANCH   6  12
ATOM     12  C   LIG A   1     -10.459   6.756 129.330  0.00  0.00    -0.001 A 
ATOM     13  C   LIG A   1     -11.338   7.215 130.328  0.00  0.00    +0.056 A 
ATOM     14  C   LIG A   1     -12.257   8.216 130.029  0.00  0.00    +0.159 A 
ATOM     15  C   LIG A   1     -12.309   8.771 128.753  0.00  0.00    +0.158 A 
ATOM     16  C   LIG A   1     -11.449   8.338 127.757  0.00  0.00    +0.049 A 
ATOM     17  C   LIG A   1     -10.526   7.329 128.045  0.00  0.00    +0.011 A 
BRANCH  14  18
ATOM     18  O   LIG A   1     -13.138   8.690 130.964  0.00  0.00    -0.503 OA
ATOM     19  H   LIG A   1     -13.828   9.192 130.500  0.00  0.00    +0.292 HD
ENDBRANCH  14  18
BRANCH  15  20
ATOM     20  O   LIG A   1     -13.218   9.751 128.473  0.00  0.00    -0.503 OA
ATOM     21  H   LIG A   1     -14.025   9.266 128.214  0.00  0.00    +0.292 HD
ENDBRANCH  15  20
ENDBRANCH   6  12
BRANCH   7  22
ATOM     22  O   LIG A   1     -11.147   3.907 129.973  0.00  0.00    -0.380 OA
ATOM     23  H   LIG A   1     -11.509   4.534 129.311  0.00  0.00    +0.210 HD
ENDBRANCH   7  22
BRANCH  11  24
ATOM     24  O   LIG A   1      -6.651   1.975 131.690  0.00  0.00    -0.506 OA
ATOM     25  H   LIG A   1      -7.070   1.497 130.957  0.00  0.00    +0.292 HD
ENDBRANCH  11  24
BRANCH   9  26
ATOM     26  O   LIG A   1      -3.740   5.680 131.260  0.00  0.00    -0.506 OA
ATOM     27  H   LIG A   1      -3.514   6.156 130.444  0.00  0.00    +0.292 HD
ENDBRANCH   9  26
TORSDOF 6
ENDMDL
MODEL 7
REMARK VINA RESULT:      -6.3      3.562      7.534
REMARK  Name = NuBBE_139
REMARK  6 active torsions:
REMARK  status: ('A' for Active; 'I' for Inactive)
REMARK    1  A    between atoms: C_6  and  C_11
REMARK    2  A    between atoms: C_8  and  O_10
REMARK    3  A    between atoms: C_13  and  O_14
REMARK    4  A    between atoms: C_15  and  O_18
REMARK    5  A    between atoms: C_20  and  O_24
REMARK    6  A    between atoms: C_22  and  O_23
REMARK                            x       y       z     vdW  Elec       q    Type
REMARK                         _______ _______ _______ _____ _____    ______ ____
ROOT
ATOM      1  O   LIG A   1      -6.632   4.529 124.945  0.00  0.00    -0.289 OA
ATOM      2  C   LIG A   1      -7.426   3.735 125.444  0.00  0.00    +0.202 C 
ATOM      3  C   LIG A   1      -8.302   2.840 124.646  0.00  0.00    +0.103 A 
ATOM      4  C   LIG A   1      -9.079   1.900 125.335  0.00  0.00    +0.139 A 
ATOM      5  O   LIG A   1      -9.073   1.742 126.694  0.00  0.00    -0.480 OA
ATOM      6  C   LIG A   1      -7.871   2.206 127.329  0.00  0.00    +0.240 C 
ATOM      7  C   LIG A   1      -7.570   3.656 126.955  0.00  0.00    +0.230 C 
ATOM      8  C   LIG A   1      -9.957   1.059 124.646  0.00  0.00    +0.092 A 
ATOM      9  C   LIG A   1     -10.034   1.140 123.262  0.00  0.00    +0.124 A 
ATOM     10  C   LIG A   1      -9.260   2.055 122.557  0.00  0.00    +0.091 A 
ATOM     11  C   LIG A   1      -8.398   2.909 123.250  0.00  0.00    +0.134 A 
ENDROOT
BRANCH   6  12
ATOM     12  C   LIG A   1      -8.081   2.018 128.826  0.00  0.00    -0.001 A 
ATOM     13  C   LIG A   1      -9.120   2.703 129.481  0.00  0.00    +0.056 A 
ATOM     14  C   LIG A   1      -9.297   2.539 130.852  0.00  0.00    +0.159 A 
ATOM     15  C   LIG A   1      -8.457   1.699 131.578  0.00  0.00    +0.158 A 
ATOM     16  C   LIG A   1      -7.431   1.010 130.951  0.00  0.00    +0.049 A 
ATOM     17  C   LIG A   1      -7.241   1.171 129.577  0.00  0.00    +0.011 A 
BRANCH  14  18
ATOM     18  O   LIG A   1     -10.289   3.189 131.535  0.00  0.00    -0.503 OA
ATOM     19  H   LIG A   1     -10.844   3.655 130.888  0.00  0.00    +0.292 HD
ENDBRANCH  14  18
BRANCH  15  20
ATOM     20  O   LIG A   1      -8.640   1.549 132.923  0.00  0.00    -0.503 OA
ATOM     21  H   LIG A   1      -8.841   2.450 133.242  0.00  0.00    +0.292 HD
ENDBRANCH  15  20
ENDBRANCH   6  12
BRANCH   7  22
ATOM     22  O   LIG A   1      -6.344   4.102 127.546  0.00  0.00    -0.380 OA
ATOM     23  H   LIG A   1      -6.221   5.024 127.234  0.00  0.00    +0.210 HD
ENDBRANCH   7  22
BRANCH  11  24
ATOM     24  O   LIG A   1      -7.665   3.815 122.540  0.00  0.00    -0.506 OA
ATOM     25  H   LIG A   1      -7.295   3.401 121.744  0.00  0.00    +0.292 HD
ENDBRANCH  11  24
BRANCH   9  26
ATOM     26  O   LIG A   1     -10.865   0.330 122.547  0.00  0.00    -0.506 OA
ATOM     27  H   LIG A   1     -10.331  -0.293 122.026  0.00  0.00    +0.292 HD
ENDBRANCH   9  26
TORSDOF 6
ENDMDL
MODEL 8
REMARK VINA RESULT:      -6.3      5.128      8.184
REMARK  Name = NuBBE_139
REMARK  6 active torsions:
REMARK  status: ('A' for Active; 'I' for Inactive)
REMARK    1  A    between atoms: C_6  and  C_11
REMARK    2  A    between atoms: C_8  and  O_10
REMARK    3  A    between atoms: C_13  and  O_14
REMARK    4  A    between atoms: C_15  and  O_18
REMARK    5  A    between atoms: C_20  and  O_24
REMARK    6  A    between atoms: C_22  and  O_23
REMARK                            x       y       z     vdW  Elec       q    Type
REMARK                         _______ _______ _______ _____ _____    ______ ____
ROOT
ATOM      1  O   LIG A   1      -6.049   5.372 129.286  0.00  0.00    -0.289 OA
ATOM      2  C   LIG A   1      -7.008   4.607 129.365  0.00  0.00    +0.202 C 
ATOM      3  C   LIG A   1      -8.300   4.976 129.996  0.00  0.00    +0.103 A 
ATOM      4  C   LIG A   1      -9.352   4.055 129.920  0.00  0.00    +0.139 A 
ATOM      5  O   LIG A   1      -9.272   2.844 129.289  0.00  0.00    -0.480 OA
ATOM      6  C   LIG A   1      -8.258   2.781 128.274  0.00  0.00    +0.240 C 
ATOM      7  C   LIG A   1      -6.894   3.191 128.827  0.00  0.00    +0.230 C 
ATOM      8  C   LIG A   1     -10.580   4.323 130.532  0.00  0.00    +0.092 A 
ATOM      9  C   LIG A   1     -10.762   5.528 131.196  0.00  0.00    +0.124 A 
ATOM     10  C   LIG A   1      -9.737   6.464 131.270  0.00  0.00    +0.091 A 
ATOM     11  C   LIG A   1      -8.504   6.186 130.675  0.00  0.00    +0.134 A 
ENDROOT
BRANCH   6  12
ATOM     12  C   LIG A   1      -8.271   1.352 127.746  0.00  0.00    -0.001 A 
ATOM     13  C   LIG A   1      -8.885   1.065 126.513  0.00  0.00    +0.056 A 
ATOM     14  C   LIG A   1      -8.908  -0.245 126.043  0.00  0.00    +0.159 A 
ATOM     15  C   LIG A   1      -8.323  -1.271 126.780  0.00  0.00    +0.158 A 
ATOM     16  C   LIG A   1      -7.708  -1.009 127.994  0.00  0.00    +0.049 A 
ATOM     17  C   LIG A   1      -7.684   0.302 128.478  0.00  0.00    +0.011 A 
BRANCH  14  18
ATOM     18  O   LIG A   1      -9.499  -0.575 124.854  0.00  0.00    -0.503 OA
ATOM     19  H   LIG A   1      -9.908   0.227 124.488  0.00  0.00    +0.292 HD
ENDBRANCH  14  18
BRANCH  15  20
ATOM     20  O   LIG A   1      -8.354  -2.552 126.309  0.00  0.00    -0.503 OA
ATOM     21  H   LIG A   1      -8.711  -2.468 125.403  0.00  0.00    +0.292 HD
ENDBRANCH  15  20
ENDBRANCH   6  12
BRANCH   7  22
ATOM     22  O   LIG A   1      -5.892   3.180 127.802  0.00  0.00    -0.380 OA
ATOM     23  H   LIG A   1      -5.051   3.406 128.254  0.00  0.00    +0.210 HD
ENDBRANCH   7  22
BRANCH  11  24
ATOM     24  O   LIG A   1      -7.503   7.108 130.780  0.00  0.00    -0.506 OA
ATOM     25  H   LIG A   1      -6.638   6.681 130.675  0.00  0.00    +0.292 HD
ENDBRANCH  11  24
BRANCH   9  26
ATOM     26  O   LIG A   1     -11.947   5.839 131.794  0.00  0.00    -0.506 OA
ATOM     27  H   LIG A   1     -12.144   6.778 131.642  0.00  0.00    +0.292 HD
ENDBRANCH   9  26
TORSDOF 6
ENDMDL
MODEL 9
REMARK VINA RESULT:      -6.2      7.746     11.156
REMARK  Name = NuBBE_139
REMARK  6 active torsions:
REMARK  status: ('A' for Active; 'I' for Inactive)
REMARK    1  A    between atoms: C_6  and  C_11
REMARK    2  A    between atoms: C_8  and  O_10
REMARK    3  A    between atoms: C_13  and  O_14
REMARK    4  A    between atoms: C_15  and  O_18
REMARK    5  A    between atoms: C_20  and  O_24
REMARK    6  A    between atoms: C_22  and  O_23
REMARK                            x       y       z     vdW  Elec       q    Type
REMARK                         _______ _______ _______ _____ _____    ______ ____
ROOT
ATOM      1  O   LIG A   1      -8.717   5.141 128.086  0.00  0.00    -0.289 OA
ATOM      2  C   LIG A   1      -8.897   5.216 129.300  0.00  0.00    +0.202 C 
ATOM      3  C   LIG A   1     -10.102   5.830 129.913  0.00  0.00    +0.103 A 
ATOM      4  C   LIG A   1     -10.241   5.749 131.304  0.00  0.00    +0.139 A 
ATOM      5  O   LIG A   1      -9.347   5.130 132.134  0.00  0.00    -0.480 OA
ATOM      6  C   LIG A   1      -8.549   4.127 131.486  0.00  0.00    +0.240 C 
ATOM      7  C   LIG A   1      -7.840   4.691 130.256  0.00  0.00    +0.230 C 
ATOM      8  C   LIG A   1     -11.330   6.345 131.947  0.00  0.00    +0.092 A 
ATOM      9  C   LIG A   1     -12.295   6.997 131.191  0.00  0.00    +0.124 A 
ATOM     10  C   LIG A   1     -12.185   7.074 129.807  0.00  0.00    +0.091 A 
ATOM     11  C   LIG A   1     -11.086   6.495 129.169  0.00  0.00    +0.134 A 
ENDROOT
BRANCH   6  12
ATOM     12  C   LIG A   1      -7.577   3.611 132.539  0.00  0.00    -0.001 A 
ATOM     13  C   LIG A   1      -7.567   2.245 132.877  0.00  0.00    +0.056 A 
ATOM     14  C   LIG A   1      -6.686   1.782 133.850  0.00  0.00    +0.159 A 
ATOM     15  C   LIG A   1      -5.813   2.659 134.488  0.00  0.00    +0.158 A 
ATOM     16  C   LIG A   1      -5.802   4.007 134.166  0.00  0.00    +0.049 A 
ATOM     17  C   LIG A   1      -6.685   4.483 133.194  0.00  0.00    +0.011 A 
BRANCH  14  18
ATOM     18  O   LIG A   1      -6.644   0.465 134.218  0.00  0.00    -0.503 OA
ATOM     19  H   LIG A   1      -7.124   0.371 135.058  0.00  0.00    +0.292 HD
ENDBRANCH  14  18
BRANCH  15  20
ATOM     20  O   LIG A   1      -4.956   2.193 135.444  0.00  0.00    -0.503 OA
ATOM     21  H   LIG A   1      -4.086   2.553 135.184  0.00  0.00    +0.292 HD
ENDBRANCH  15  20
ENDBRANCH   6  12
BRANCH   7  22
ATOM     22  O   LIG A   1      -7.086   3.678 129.580  0.00  0.00    -0.380 OA
ATOM     23  H   LIG A   1      -7.309   2.837 130.033  0.00  0.00    +0.210 HD
ENDBRANCH   7  22
BRANCH  11  24
ATOM     24  O   LIG A   1     -10.986   6.604 127.811  0.00  0.00    -0.506 OA
ATOM     25  H   LIG A   1     -11.735   7.109 127.457  0.00  0.00    +0.292 HD
ENDBRANCH  11  24
BRANCH   9  26
ATOM     26  O   LIG A   1     -13.382   7.579 131.773  0.00  0.00    -0.506 OA
ATOM     27  H   LIG A   1     -14.179   7.079 131.531  0.00  0.00    +0.292 HD
ENDBRANCH   9  26
TORSDOF 6
ENDMDL
