MODEL 1
REMARK VINA RESULT:      -7.4      0.000      0.000
REMARK  Name = NuBBE_645
REMARK  10 active torsions:
REMARK  status: ('A' for Active; 'I' for Inactive)
REMARK    1  A    between atoms: O_1  and  C_2
REMARK    2  A    between atoms: C_5  and  C_6
REMARK    3  A    between atoms: C_8  and  C_10
REMARK    4  A    between atoms: C_11  and  C_13
REMARK    5  A    between atoms: C_14  and  C_16
REMARK    6  A    between atoms: C_18  and  O_19
REMARK    7  A    between atoms: O_19  and  C_20
REMARK    8  A    between atoms: C_21  and  O_22
REMARK    9  A    between atoms: C_27  and  O_28
REMARK   10  A    between atoms: O_28  and  C_29
REMARK                            x       y       z     vdW  Elec       q    Type
REMARK                         _______ _______ _______ _____ _____    ______ ____
ROOT
ATOM      1  C   LIG A   1      -8.991  -2.037 125.484  0.00  0.00    +0.152 C 
ATOM      2  C   LIG A   1      -8.221  -2.720 124.339  0.00  0.00    +0.025 C 
ATOM      3  C   LIG A   1      -9.145  -3.032 123.157  0.00  0.00    +0.011 C 
ATOM      4  C   LIG A   1      -7.134  -1.686 124.045  0.00  0.00    +0.025 C 
ATOM      5  C   LIG A   1      -6.427  -1.843 122.708  0.00  0.00    +0.011 C 
ATOM      6  C   LIG A   1      -7.887  -0.366 124.224  0.00  0.00    +0.152 C 
ATOM      7  O   LIG A   1      -8.877  -0.619 125.251  0.00  0.00    -0.364 OA
ENDROOT
BRANCH   1  11
ATOM      8  C   LIG A   1      -7.662  -2.956 129.521  0.00  0.00    +0.159 A 
ATOM      9  C   LIG A   1      -8.389  -3.891 128.773  0.00  0.00    +0.049 A 
ATOM     10  C   LIG A   1      -8.823  -3.579 127.481  0.00  0.00    +0.010 A 
ATOM     11  C   LIG A   1      -8.533  -2.331 126.907  0.00  0.00    -0.015 A 
ATOM     12  C   LIG A   1      -7.812  -1.411 127.686  0.00  0.00    +0.055 A 
ATOM     13  C   LIG A   1      -7.379  -1.703 128.986  0.00  0.00    +0.162 A 
BRANCH   8  14
ATOM     14  O   LIG A   1      -7.239  -3.308 130.773  0.00  0.00    -0.503 OA
ATOM     15  H   LIG A   1      -6.450  -3.867 130.697  0.00  0.00    +0.292 HD
ENDBRANCH   8  14
BRANCH  13  16
ATOM     16  O   LIG A   1      -6.710  -0.650 129.554  0.00  0.00    -0.491 OA
ATOM     17  C   LIG A   1      -5.331  -0.490 129.262  0.00  0.00    +0.277 C 
ENDBRANCH  13  16
ENDBRANCH   1  11
BRANCH   6  18
ATOM     18  C   LIG A   1      -7.013   0.810 124.607  0.00  0.00    -0.015 A 
ATOM     19  C   LIG A   1      -6.975   1.969 123.812  0.00  0.00    +0.055 A 
ATOM     20  C   LIG A   1      -6.146   3.044 124.144  0.00  0.00    +0.162 A 
ATOM     21  C   LIG A   1      -5.349   2.946 125.287  0.00  0.00    +0.159 A 
ATOM     22  C   LIG A   1      -5.392   1.827 126.111  0.00  0.00    +0.049 A 
ATOM     23  C   LIG A   1      -6.226   0.760 125.770  0.00  0.00    +0.010 A 
BRANCH  20  24
ATOM     24  O   LIG A   1      -6.031   4.217 123.443  0.00  0.00    -0.491 OA
ATOM     25  C   LIG A   1      -5.630   4.107 122.081  0.00  0.00    +0.277 C 
ENDBRANCH  20  24
BRANCH  21  26
ATOM     26  O   LIG A   1      -4.486   3.956 125.617  0.00  0.00    -0.503 OA
ATOM     27  H   LIG A   1      -4.735   4.697 125.032  0.00  0.00    +0.292 HD
ENDBRANCH  21  26
ENDBRANCH   6  18
TORSDOF 6
ENDMDL
MODEL 2
REMARK VINA RESULT:      -7.4      7.286      9.347
REMARK  Name = NuBBE_645
REMARK  10 active torsions:
REMARK  status: ('A' for Active; 'I' for Inactive)
REMARK    1  A    between atoms: O_1  and  C_2
REMARK    2  A    between atoms: C_5  and  C_6
REMARK    3  A    between atoms: C_8  and  C_10
REMARK    4  A    between atoms: C_11  and  C_13
REMARK    5  A    between atoms: C_14  and  C_16
REMARK    6  A    between atoms: C_18  and  O_19
REMARK    7  A    between atoms: O_19  and  C_20
REMARK    8  A    between atoms: C_21  and  O_22
REMARK    9  A    between atoms: C_27  and  O_28
REMARK   10  A    between atoms: O_28  and  C_29
REMARK                            x       y       z     vdW  Elec       q    Type
REMARK                         _______ _______ _______ _____ _____    ______ ____
ROOT
ATOM      1  C   LIG A   1      -8.116   4.867 132.288  0.00  0.00    +0.152 C 
ATOM      2  C   LIG A   1      -8.805   3.584 131.789  0.00  0.00    +0.025 C 
ATOM      3  C   LIG A   1      -9.282   2.719 132.959  0.00  0.00    +0.011 C 
ATOM      4  C   LIG A   1      -9.926   4.160 130.921  0.00  0.00    +0.025 C 
ATOM      5  C   LIG A   1     -11.051   3.195 130.584  0.00  0.00    +0.011 C 
ATOM      6  C   LIG A   1     -10.352   5.392 131.721  0.00  0.00    +0.152 C 
ATOM      7  O   LIG A   1      -9.149   5.868 132.375  0.00  0.00    -0.364 OA
ENDROOT
BRANCH   1  11
ATOM      8  C   LIG A   1      -4.842   6.506 129.942  0.00  0.00    +0.159 A 
ATOM      9  C   LIG A   1      -5.675   7.342 130.695  0.00  0.00    +0.049 A 
ATOM     10  C   LIG A   1      -6.734   6.806 131.435  0.00  0.00    +0.010 A 
ATOM     11  C   LIG A   1      -6.976   5.422 131.443  0.00  0.00    -0.015 A 
ATOM     12  C   LIG A   1      -6.130   4.611 130.668  0.00  0.00    +0.055 A 
ATOM     13  C   LIG A   1      -5.072   5.134 129.913  0.00  0.00    +0.162 A 
BRANCH   8  14
ATOM     14  O   LIG A   1      -3.807   7.070 129.248  0.00  0.00    -0.503 OA
ATOM     15  H   LIG A   1      -3.008   6.533 129.376  0.00  0.00    +0.292 HD
ENDBRANCH   8  14
BRANCH  13  16
ATOM     16  O   LIG A   1      -4.395   4.157 129.230  0.00  0.00    -0.491 OA
ATOM     17  C   LIG A   1      -4.118   2.936 129.895  0.00  0.00    +0.277 C 
ENDBRANCH  13  16
ENDBRANCH   1  11
BRANCH   6  18
ATOM     18  C   LIG A   1     -10.977   6.495 130.893  0.00  0.00    -0.015 A 
ATOM     19  C   LIG A   1     -10.381   6.922 129.693  0.00  0.00    +0.055 A 
ATOM     20  C   LIG A   1     -10.937   7.961 128.942  0.00  0.00    +0.162 A 
ATOM     21  C   LIG A   1     -12.103   8.574 129.408  0.00  0.00    +0.159 A 
ATOM     22  C   LIG A   1     -12.733   8.150 130.571  0.00  0.00    +0.049 A 
ATOM     23  C   LIG A   1     -12.170   7.109 131.313  0.00  0.00    +0.010 A 
BRANCH  20  24
ATOM     24  O   LIG A   1     -10.441   8.455 127.763  0.00  0.00    -0.491 OA
ATOM     25  C   LIG A   1     -10.785   7.741 126.580  0.00  0.00    +0.277 C 
ENDBRANCH  20  24
BRANCH  21  26
ATOM     26  O   LIG A   1     -12.648   9.629 128.728  0.00  0.00    -0.503 OA
ATOM     27  H   LIG A   1     -12.024  10.367 128.871  0.00  0.00    +0.292 HD
ENDBRANCH  21  26
ENDBRANCH   6  18
TORSDOF 6
ENDMDL
MODEL 3
REMARK VINA RESULT:      -7.3      1.129      1.951
REMARK  Name = NuBBE_645
REMARK  10 active torsions:
REMARK  status: ('A' for Active; 'I' for Inactive)
REMARK    1  A    between atoms: O_1  and  C_2
REMARK    2  A    between atoms: C_5  and  C_6
REMARK    3  A    between atoms: C_8  and  C_10
REMARK    4  A    between atoms: C_11  and  C_13
REMARK    5  A    between atoms: C_14  and  C_16
REMARK    6  A    between atoms: C_18  and  O_19
REMARK    7  A    between atoms: O_19  and  C_20
REMARK    8  A    between atoms: C_21  and  O_22
REMARK    9  A    between atoms: C_27  and  O_28
REMARK   10  A    between atoms: O_28  and  C_29
REMARK                            x       y       z     vdW  Elec       q    Type
REMARK                         _______ _______ _______ _____ _____    ______ ____
ROOT
ATOM      1  C   LIG A   1      -9.272  -2.265 125.615  0.00  0.00    +0.152 C 
ATOM      2  C   LIG A   1      -8.522  -2.924 124.442  0.00  0.00    +0.025 C 
ATOM      3  C   LIG A   1      -9.494  -3.615 123.481  0.00  0.00    +0.011 C 
ATOM      4  C   LIG A   1      -7.776  -1.728 123.849  0.00  0.00    +0.025 C 
ATOM      5  C   LIG A   1      -7.244  -1.925 122.438  0.00  0.00    +0.011 C 
ATOM      6  C   LIG A   1      -8.801  -0.602 123.999  0.00  0.00    +0.152 C 
ATOM      7  O   LIG A   1      -9.546  -0.911 125.203  0.00  0.00    -0.364 OA
ENDROOT
BRANCH   1  11
ATOM      8  C   LIG A   1      -7.216  -2.229 129.446  0.00  0.00    +0.159 A 
ATOM      9  C   LIG A   1      -7.840  -3.392 128.976  0.00  0.00    +0.049 A 
ATOM     10  C   LIG A   1      -8.510  -3.388 127.749  0.00  0.00    +0.010 A 
ATOM     11  C   LIG A   1      -8.564  -2.225 126.963  0.00  0.00    -0.015 A 
ATOM     12  C   LIG A   1      -7.939  -1.072 127.467  0.00  0.00    +0.055 A 
ATOM     13  C   LIG A   1      -7.273  -1.056 128.700  0.00  0.00    +0.162 A 
BRANCH   8  14
ATOM     14  O   LIG A   1      -6.555  -2.281 130.643  0.00  0.00    -0.503 OA
ATOM     15  H   LIG A   1      -5.788  -1.689 130.608  0.00  0.00    +0.292 HD
ENDBRANCH   8  14
BRANCH  13  16
ATOM     16  O   LIG A   1      -6.755   0.179 128.989  0.00  0.00    -0.491 OA
ATOM     17  C   LIG A   1      -7.585   1.316 128.821  0.00  0.00    +0.277 C 
ENDBRANCH  13  16
ENDBRANCH   1  11
BRANCH   6  18
ATOM     18  C   LIG A   1      -8.201   0.786 124.088  0.00  0.00    -0.015 A 
ATOM     19  C   LIG A   1      -6.973   1.001 124.739  0.00  0.00    +0.055 A 
ATOM     20  C   LIG A   1      -6.433   2.284 124.851  0.00  0.00    +0.162 A 
ATOM     21  C   LIG A   1      -7.139   3.359 124.304  0.00  0.00    +0.159 A 
ATOM     22  C   LIG A   1      -8.337   3.172 123.625  0.00  0.00    +0.049 A 
ATOM     23  C   LIG A   1      -8.867   1.884 123.517  0.00  0.00    +0.010 A 
BRANCH  20  24
ATOM     24  O   LIG A   1      -5.247   2.607 125.461  0.00  0.00    -0.491 OA
ATOM     25  C   LIG A   1      -4.747   1.673 126.413  0.00  0.00    +0.277 C 
ENDBRANCH  20  24
BRANCH  21  26
ATOM     26  O   LIG A   1      -6.668   4.637 124.439  0.00  0.00    -0.503 OA
ATOM     27  H   LIG A   1      -5.772   4.614 124.049  0.00  0.00    +0.292 HD
ENDBRANCH  21  26
ENDBRANCH   6  18
TORSDOF 6
ENDMDL
MODEL 4
REMARK VINA RESULT:      -7.2      1.895      4.408
REMARK  Name = NuBBE_645
REMARK  10 active torsions:
REMARK  status: ('A' for Active; 'I' for Inactive)
REMARK    1  A    between atoms: O_1  and  C_2
REMARK    2  A    between atoms: C_5  and  C_6
REMARK    3  A    between atoms: C_8  and  C_10
REMARK    4  A    between atoms: C_11  and  C_13
REMARK    5  A    between atoms: C_14  and  C_16
REMARK    6  A    between atoms: C_18  and  O_19
REMARK    7  A    between atoms: O_19  and  C_20
REMARK    8  A    between atoms: C_21  and  O_22
REMARK    9  A    between atoms: C_27  and  O_28
REMARK   10  A    between atoms: O_28  and  C_29
REMARK                            x       y       z     vdW  Elec       q    Type
REMARK                         _______ _______ _______ _____ _____    ______ ____
ROOT
ATOM      1  C   LIG A   1      -6.775  -1.444 127.560  0.00  0.00    +0.152 C 
ATOM      2  C   LIG A   1      -7.514  -0.799 128.747  0.00  0.00    +0.025 C 
ATOM      3  C   LIG A   1      -6.760  -1.028 130.061  0.00  0.00    +0.011 C 
ATOM      4  C   LIG A   1      -7.589   0.661 128.299  0.00  0.00    +0.025 C 
ATOM      5  C   LIG A   1      -7.904   1.665 129.397  0.00  0.00    +0.011 C 
ATOM      6  C   LIG A   1      -6.236   0.859 127.613  0.00  0.00    +0.152 C 
ATOM      7  O   LIG A   1      -5.903  -0.425 127.031  0.00  0.00    -0.364 OA
ENDROOT
BRANCH   1  11
ATOM      8  C   LIG A   1      -9.273  -2.986 124.353  0.00  0.00    +0.159 A 
ATOM      9  C   LIG A   1      -9.579  -3.251 125.693  0.00  0.00    +0.049 A 
ATOM     10  C   LIG A   1      -8.761  -2.762 126.716  0.00  0.00    +0.010 A 
ATOM     11  C   LIG A   1      -7.625  -1.991 126.421  0.00  0.00    -0.015 A 
ATOM     12  C   LIG A   1      -7.338  -1.752 125.066  0.00  0.00    +0.055 A 
ATOM     13  C   LIG A   1      -8.141  -2.245 124.029  0.00  0.00    +0.162 A 
BRANCH   8  14
ATOM     14  O   LIG A   1     -10.110  -3.467 123.384  0.00  0.00    -0.503 OA
ATOM     15  H   LIG A   1     -10.953  -3.724 123.791  0.00  0.00    +0.292 HD
ENDBRANCH   8  14
BRANCH  13  16
ATOM     16  O   LIG A   1      -7.658  -1.897 122.795  0.00  0.00    -0.491 OA
ATOM     17  C   LIG A   1      -6.256  -1.925 122.585  0.00  0.00    +0.277 C 
ENDBRANCH  13  16
ENDBRANCH   1  11
BRANCH   6  18
ATOM     18  C   LIG A   1      -6.220   1.942 126.554  0.00  0.00    -0.015 A 
ATOM     19  C   LIG A   1      -7.360   2.207 125.776  0.00  0.00    +0.055 A 
ATOM     20  C   LIG A   1      -7.339   3.183 124.776  0.00  0.00    +0.162 A 
ATOM     21  C   LIG A   1      -6.157   3.895 124.561  0.00  0.00    +0.159 A 
ATOM     22  C   LIG A   1      -5.026   3.680 125.339  0.00  0.00    +0.049 A 
ATOM     23  C   LIG A   1      -5.059   2.703 126.336  0.00  0.00    +0.010 A 
BRANCH  20  24
ATOM     24  O   LIG A   1      -8.389   3.522 123.961  0.00  0.00    -0.491 OA
ATOM     25  C   LIG A   1      -8.757   2.569 122.969  0.00  0.00    +0.277 C 
ENDBRANCH  20  24
BRANCH  21  26
ATOM     26  O   LIG A   1      -6.082   4.823 123.557  0.00  0.00    -0.503 OA
ATOM     27  H   LIG A   1      -5.183   4.719 123.190  0.00  0.00    +0.292 HD
ENDBRANCH  21  26
ENDBRANCH   6  18
TORSDOF 6
ENDMDL
MODEL 5
REMARK VINA RESULT:      -7.1      3.290      7.007
REMARK  Name = NuBBE_645
REMARK  10 active torsions:
REMARK  status: ('A' for Active; 'I' for Inactive)
REMARK    1  A    between atoms: O_1  and  C_2
REMARK    2  A    between atoms: C_5  and  C_6
REMARK    3  A    between atoms: C_8  and  C_10
REMARK    4  A    between atoms: C_11  and  C_13
REMARK    5  A    between atoms: C_14  and  C_16
REMARK    6  A    between atoms: C_18  and  O_19
REMARK    7  A    between atoms: O_19  and  C_20
REMARK    8  A    between atoms: C_21  and  O_22
REMARK    9  A    between atoms: C_27  and  O_28
REMARK   10  A    between atoms: O_28  and  C_29
REMARK                            x       y       z     vdW  Elec       q    Type
REMARK                         _______ _______ _______ _____ _____    ______ ____
ROOT
ATOM      1  C   LIG A   1      -6.168  -2.778 129.750  0.00  0.00    +0.152 C 
ATOM      2  C   LIG A   1      -6.459  -3.728 130.926  0.00  0.00    +0.025 C 
ATOM      3  C   LIG A   1      -5.162  -4.270 131.536  0.00  0.00    +0.011 C 
ATOM      4  C   LIG A   1      -7.273  -2.824 131.852  0.00  0.00    +0.025 C 
ATOM      5  C   LIG A   1      -7.397  -3.305 133.289  0.00  0.00    +0.011 C 
ATOM      6  C   LIG A   1      -6.573  -1.474 131.682  0.00  0.00    +0.152 C 
ATOM      7  O   LIG A   1      -6.091  -1.455 130.316  0.00  0.00    -0.364 OA
ENDROOT
BRANCH   1  11
ATOM      8  C   LIG A   1      -9.095  -2.737 126.535  0.00  0.00    +0.159 A 
ATOM      9  C   LIG A   1      -9.095  -3.758 127.493  0.00  0.00    +0.049 A 
ATOM     10  C   LIG A   1      -8.140  -3.769 128.515  0.00  0.00    +0.010 A 
ATOM     11  C   LIG A   1      -7.171  -2.755 128.604  0.00  0.00    -0.015 A 
ATOM     12  C   LIG A   1      -7.191  -1.752 127.621  0.00  0.00    +0.055 A 
ATOM     13  C   LIG A   1      -8.133  -1.733 126.585  0.00  0.00    +0.162 A 
BRANCH   8  14
ATOM     14  O   LIG A   1     -10.058  -2.754 125.564  0.00  0.00    -0.503 OA
ATOM     15  H   LIG A   1      -9.640  -2.921 124.704  0.00  0.00    +0.292 HD
ENDBRANCH   8  14
BRANCH  13  16
ATOM     16  O   LIG A   1      -7.948  -0.669 125.740  0.00  0.00    -0.491 OA
ATOM     17  C   LIG A   1      -7.152  -0.856 124.582  0.00  0.00    +0.277 C 
ENDBRANCH  13  16
ENDBRANCH   1  11
BRANCH   6  18
ATOM     18  C   LIG A   1      -7.452  -0.271 131.953  0.00  0.00    -0.015 A 
ATOM     19  C   LIG A   1      -6.986   0.802 132.733  0.00  0.00    +0.055 A 
ATOM     20  C   LIG A   1      -7.805   1.899 133.012  0.00  0.00    +0.162 A 
ATOM     21  C   LIG A   1      -9.105   1.911 132.500  0.00  0.00    +0.159 A 
ATOM     22  C   LIG A   1      -9.580   0.882 131.696  0.00  0.00    +0.049 A 
ATOM     23  C   LIG A   1      -8.752  -0.209 131.422  0.00  0.00    +0.010 A 
BRANCH  20  24
ATOM     24  O   LIG A   1      -7.455   2.995 133.759  0.00  0.00    -0.491 OA
ATOM     25  C   LIG A   1      -6.432   3.828 133.223  0.00  0.00    +0.277 C 
ENDBRANCH  20  24
BRANCH  21  26
ATOM     26  O   LIG A   1      -9.955   2.943 132.794  0.00  0.00    -0.503 OA
ATOM     27  H   LIG A   1     -10.585   2.967 132.048  0.00  0.00    +0.292 HD
ENDBRANCH  21  26
ENDBRANCH   6  18
TORSDOF 6
ENDMDL
MODEL 6
REMARK VINA RESULT:      -7.0      3.418      5.534
REMARK  Name = NuBBE_645
REMARK  10 active torsions:
REMARK  status: ('A' for Active; 'I' for Inactive)
REMARK    1  A    between atoms: O_1  and  C_2
REMARK    2  A    between atoms: C_5  and  C_6
REMARK    3  A    between atoms: C_8  and  C_10
REMARK    4  A    between atoms: C_11  and  C_13
REMARK    5  A    between atoms: C_14  and  C_16
REMARK    6  A    between atoms: C_18  and  O_19
REMARK    7  A    between atoms: O_19  and  C_20
REMARK    8  A    between atoms: C_21  and  O_22
REMARK    9  A    between atoms: C_27  and  O_28
REMARK   10  A    between atoms: O_28  and  C_29
REMARK                            x       y       z     vdW  Elec       q    Type
REMARK                         _______ _______ _______ _____ _____    ______ ____
ROOT
ATOM      1  C   LIG A   1      -8.254   2.682 125.682  0.00  0.00    +0.152 C 
ATOM      2  C   LIG A   1      -8.383   1.186 125.345  0.00  0.00    +0.025 C 
ATOM      3  C   LIG A   1      -9.761   0.645 125.738  0.00  0.00    +0.011 C 
ATOM      4  C   LIG A   1      -8.102   1.189 123.841  0.00  0.00    +0.025 C 
ATOM      5  C   LIG A   1      -8.532  -0.064 123.095  0.00  0.00    +0.011 C 
ATOM      6  C   LIG A   1      -8.791   2.477 123.387  0.00  0.00    +0.152 C 
ATOM      7  O   LIG A   1      -8.673   3.395 124.502  0.00  0.00    -0.364 OA
ENDROOT
BRANCH   1  11
ATOM      8  C   LIG A   1      -4.356   4.215 126.850  0.00  0.00    +0.159 A 
ATOM      9  C   LIG A   1      -5.157   4.911 125.936  0.00  0.00    +0.049 A 
ATOM     10  C   LIG A   1      -6.403   4.402 125.557  0.00  0.00    +0.010 A 
ATOM     11  C   LIG A   1      -6.876   3.191 126.089  0.00  0.00    -0.015 A 
ATOM     12  C   LIG A   1      -6.044   2.511 126.994  0.00  0.00    +0.055 A 
ATOM     13  C   LIG A   1      -4.788   3.003 127.375  0.00  0.00    +0.162 A 
BRANCH   8  14
ATOM     14  O   LIG A   1      -3.153   4.759 127.208  0.00  0.00    -0.503 OA
ATOM     15  H   LIG A   1      -2.471   4.069 127.180  0.00  0.00    +0.292 HD
ENDBRANCH   8  14
BRANCH  13  16
ATOM     16  O   LIG A   1      -4.153   2.164 128.254  0.00  0.00    -0.491 OA
ATOM     17  C   LIG A   1      -4.288   2.414 129.644  0.00  0.00    +0.277 C 
ENDBRANCH  13  16
ENDBRANCH   1  11
BRANCH   6  18
ATOM     18  C   LIG A   1      -8.211   3.091 122.130  0.00  0.00    -0.015 A 
ATOM     19  C   LIG A   1      -6.834   3.358 122.027  0.00  0.00    +0.055 A 
ATOM     20  C   LIG A   1      -6.299   3.954 120.882  0.00  0.00    +0.162 A 
ATOM     21  C   LIG A   1      -7.163   4.285 119.834  0.00  0.00    +0.159 A 
ATOM     22  C   LIG A   1      -8.522   4.000 119.894  0.00  0.00    +0.049 A 
ATOM     23  C   LIG A   1      -9.044   3.402 121.042  0.00  0.00    +0.010 A 
BRANCH  20  24
ATOM     24  O   LIG A   1      -4.978   4.258 120.676  0.00  0.00    -0.491 OA
ATOM     25  C   LIG A   1      -4.299   4.905 121.748  0.00  0.00    +0.277 C 
ENDBRANCH  20  24
BRANCH  21  26
ATOM     26  O   LIG A   1      -6.685   4.917 118.718  0.00  0.00    -0.503 OA
ATOM     27  H   LIG A   1      -6.757   5.870 118.921  0.00  0.00    +0.292 HD
ENDBRANCH  21  26
ENDBRANCH   6  18
TORSDOF 6
ENDMDL
MODEL 7
REMARK VINA RESULT:      -6.9      2.021      6.474
REMARK  Name = NuBBE_645
REMARK  10 active torsions:
REMARK  status: ('A' for Active; 'I' for Inactive)
REMARK    1  A    between atoms: O_1  and  C_2
REMARK    2  A    between atoms: C_5  and  C_6
REMARK    3  A    between atoms: C_8  and  C_10
REMARK    4  A    between atoms: C_11  and  C_13
REMARK    5  A    between atoms: C_14  and  C_16
REMARK    6  A    between atoms: C_18  and  O_19
REMARK    7  A    between atoms: O_19  and  C_20
REMARK    8  A    between atoms: C_21  and  O_22
REMARK    9  A    between atoms: C_27  and  O_28
REMARK   10  A    between atoms: O_28  and  C_29
REMARK                            x       y       z     vdW  Elec       q    Type
REMARK                         _______ _______ _______ _____ _____    ______ ____
ROOT
ATOM      1  C   LIG A   1      -6.093  -0.456 124.213  0.00  0.00    +0.152 C 
ATOM      2  C   LIG A   1      -6.838  -1.662 123.613  0.00  0.00    +0.025 C 
ATOM      3  C   LIG A   1      -5.934  -2.460 122.668  0.00  0.00    +0.011 C 
ATOM      4  C   LIG A   1      -7.266  -2.413 124.875  0.00  0.00    +0.025 C 
ATOM      5  C   LIG A   1      -7.683  -3.859 124.664  0.00  0.00    +0.011 C 
ATOM      6  C   LIG A   1      -6.057  -2.218 125.791  0.00  0.00    +0.152 C 
ATOM      7  O   LIG A   1      -5.513  -0.919 125.448  0.00  0.00    -0.364 OA
ENDROOT
BRANCH   1  11
ATOM      8  C   LIG A   1      -8.358   3.151 125.090  0.00  0.00    +0.159 A 
ATOM      9  C   LIG A   1      -7.622   2.503 126.090  0.00  0.00    +0.049 A 
ATOM     10  C   LIG A   1      -6.909   1.336 125.800  0.00  0.00    +0.010 A 
ATOM     11  C   LIG A   1      -6.910   0.797 124.503  0.00  0.00    -0.015 A 
ATOM     12  C   LIG A   1      -7.666   1.463 123.525  0.00  0.00    +0.055 A 
ATOM     13  C   LIG A   1      -8.396   2.627 123.802  0.00  0.00    +0.162 A 
BRANCH   8  14
ATOM     14  O   LIG A   1      -9.026   4.300 125.412  0.00  0.00    -0.503 OA
ATOM     15  H   LIG A   1      -9.278   4.270 126.348  0.00  0.00    +0.292 HD
ENDBRANCH   8  14
BRANCH  13  16
ATOM     16  O   LIG A   1      -9.065   3.089 122.699  0.00  0.00    -0.491 OA
ATOM     17  C   LIG A   1      -8.315   3.420 121.542  0.00  0.00    +0.277 C 
ENDBRANCH  13  16
ENDBRANCH   1  11
BRANCH   6  18
ATOM     18  C   LIG A   1      -6.371  -2.287 127.271  0.00  0.00    -0.015 A 
ATOM     19  C   LIG A   1      -5.356  -2.533 128.213  0.00  0.00    +0.055 A 
ATOM     20  C   LIG A   1      -5.647  -2.630 129.576  0.00  0.00    +0.162 A 
ATOM     21  C   LIG A   1      -6.973  -2.479 129.991  0.00  0.00    +0.159 A 
ATOM     22  C   LIG A   1      -7.990  -2.200 129.086  0.00  0.00    +0.049 A 
ATOM     23  C   LIG A   1      -7.688  -2.103 127.726  0.00  0.00    +0.010 A 
BRANCH  20  24
ATOM     24  O   LIG A   1      -4.739  -2.866 130.577  0.00  0.00    -0.491 OA
ATOM     25  C   LIG A   1      -3.611  -1.998 130.630  0.00  0.00    +0.277 C 
ENDBRANCH  20  24
BRANCH  21  26
ATOM     26  O   LIG A   1      -7.305  -2.618 131.311  0.00  0.00    -0.503 OA
ATOM     27  H   LIG A   1      -8.199  -2.233 131.385  0.00  0.00    +0.292 HD
ENDBRANCH  21  26
ENDBRANCH   6  18
TORSDOF 6
ENDMDL
MODEL 8
REMARK VINA RESULT:      -6.8      2.364      4.923
REMARK  Name = NuBBE_645
REMARK  10 active torsions:
REMARK  status: ('A' for Active; 'I' for Inactive)
REMARK    1  A    between atoms: O_1  and  C_2
REMARK    2  A    between atoms: C_5  and  C_6
REMARK    3  A    between atoms: C_8  and  C_10
REMARK    4  A    between atoms: C_11  and  C_13
REMARK    5  A    between atoms: C_14  and  C_16
REMARK    6  A    between atoms: C_18  and  O_19
REMARK    7  A    between atoms: O_19  and  C_20
REMARK    8  A    between atoms: C_21  and  O_22
REMARK    9  A    between atoms: C_27  and  O_28
REMARK   10  A    between atoms: O_28  and  C_29
REMARK                            x       y       z     vdW  Elec       q    Type
REMARK                         _______ _______ _______ _____ _____    ______ ____
ROOT
ATOM      1  C   LIG A   1      -6.614  -2.357 128.074  0.00  0.00    +0.152 C 
ATOM      2  C   LIG A   1      -7.273  -2.577 129.448  0.00  0.00    +0.025 C 
ATOM      3  C   LIG A   1      -6.265  -3.119 130.466  0.00  0.00    +0.011 C 
ATOM      4  C   LIG A   1      -7.805  -1.177 129.757  0.00  0.00    +0.025 C 
ATOM      5  C   LIG A   1      -8.169  -0.924 131.211  0.00  0.00    +0.011 C 
ATOM      6  C   LIG A   1      -6.694  -0.281 129.206  0.00  0.00    +0.152 C 
ATOM      7  O   LIG A   1      -6.146  -0.994 128.069  0.00  0.00    -0.364 OA
ENDROOT
BRANCH   1  11
ATOM      8  C   LIG A   1      -9.158  -2.948 124.597  0.00  0.00    +0.159 A 
ATOM      9  C   LIG A   1      -9.590  -3.322 125.875  0.00  0.00    +0.049 A 
ATOM     10  C   LIG A   1      -8.759  -3.140 126.985  0.00  0.00    +0.010 A 
ATOM     11  C   LIG A   1      -7.481  -2.574 126.840  0.00  0.00    -0.015 A 
ATOM     12  C   LIG A   1      -7.072  -2.221 125.543  0.00  0.00    +0.055 A 
ATOM     13  C   LIG A   1      -7.889  -2.407 124.420  0.00  0.00    +0.162 A 
BRANCH   8  14
ATOM     14  O   LIG A   1     -10.010  -3.126 123.542  0.00  0.00    -0.503 OA
ATOM     15  H   LIG A   1      -9.552  -2.889 122.720  0.00  0.00    +0.292 HD
ENDBRANCH   8  14
BRANCH  13  16
ATOM     16  O   LIG A   1      -7.273  -2.002 123.264  0.00  0.00    -0.491 OA
ATOM     17  C   LIG A   1      -5.910  -2.342 123.069  0.00  0.00    +0.277 C 
ENDBRANCH  13  16
ENDBRANCH   1  11
BRANCH   6  18
ATOM     18  C   LIG A   1      -7.148   1.104 128.795  0.00  0.00    -0.015 A 
ATOM     19  C   LIG A   1      -7.750   1.324 127.544  0.00  0.00    +0.055 A 
ATOM     20  C   LIG A   1      -8.141   2.606 127.148  0.00  0.00    +0.162 A 
ATOM     21  C   LIG A   1      -7.920   3.673 128.022  0.00  0.00    +0.159 A 
ATOM     22  C   LIG A   1      -7.360   3.480 129.279  0.00  0.00    +0.049 A 
ATOM     23  C   LIG A   1      -6.975   2.194 129.665  0.00  0.00    +0.010 A 
BRANCH  20  24
ATOM     24  O   LIG A   1      -8.734   2.934 125.956  0.00  0.00    -0.491 OA
ATOM     25  C   LIG A   1      -7.945   2.758 124.783  0.00  0.00    +0.277 C 
ENDBRANCH  20  24
BRANCH  21  26
ATOM     26  O   LIG A   1      -8.242   4.950 127.650  0.00  0.00    -0.503 OA
ATOM     27  H   LIG A   1      -7.566   5.512 128.076  0.00  0.00    +0.292 HD
ENDBRANCH  21  26
ENDBRANCH   6  18
TORSDOF 6
ENDMDL
MODEL 9
REMARK VINA RESULT:      -6.8      1.953      6.047
REMARK  Name = NuBBE_645
REMARK  10 active torsions:
REMARK  status: ('A' for Active; 'I' for Inactive)
REMARK    1  A    between atoms: O_1  and  C_2
REMARK    2  A    between atoms: C_5  and  C_6
REMARK    3  A    between atoms: C_8  and  C_10
REMARK    4  A    between atoms: C_11  and  C_13
REMARK    5  A    between atoms: C_14  and  C_16
REMARK    6  A    between atoms: C_18  and  O_19
REMARK    7  A    between atoms: O_19  and  C_20
REMARK    8  A    between atoms: C_21  and  O_22
REMARK    9  A    between atoms: C_27  and  O_28
REMARK   10  A    between atoms: O_28  and  C_29
REMARK                            x       y       z     vdW  Elec       q    Type
REMARK                         _______ _______ _______ _____ _____    ______ ____
ROOT
ATOM      1  C   LIG A   1      -6.635  -0.431 123.880  0.00  0.00    +0.152 C 
ATOM      2  C   LIG A   1      -7.590  -1.463 123.254  0.00  0.00    +0.025 C 
ATOM      3  C   LIG A   1      -6.888  -2.278 122.163  0.00  0.00    +0.011 C 
ATOM      4  C   LIG A   1      -8.013  -2.269 124.483  0.00  0.00    +0.025 C 
ATOM      5  C   LIG A   1      -8.646  -3.620 124.191  0.00  0.00    +0.011 C 
ATOM      6  C   LIG A   1      -6.717  -2.326 125.293  0.00  0.00    +0.152 C 
ATOM      7  O   LIG A   1      -6.025  -1.085 125.011  0.00  0.00    -0.364 OA
ENDROOT
BRANCH   1  11
ATOM      8  C   LIG A   1      -8.405   3.332 125.152  0.00  0.00    +0.159 A 
ATOM      9  C   LIG A   1      -7.943   3.162 123.841  0.00  0.00    +0.049 A 
ATOM     10  C   LIG A   1      -7.363   1.952 123.447  0.00  0.00    +0.010 A 
ATOM     11  C   LIG A   1      -7.240   0.886 124.352  0.00  0.00    -0.015 A 
ATOM     12  C   LIG A   1      -7.702   1.091 125.663  0.00  0.00    +0.055 A 
ATOM     13  C   LIG A   1      -8.275   2.301 126.077  0.00  0.00    +0.162 A 
BRANCH   8  14
ATOM     14  O   LIG A   1      -8.983   4.524 125.491  0.00  0.00    -0.503 OA
ATOM     15  H   LIG A   1      -9.747   4.356 126.066  0.00  0.00    +0.292 HD
ENDBRANCH   8  14
BRANCH  13  16
ATOM     16  O   LIG A   1      -8.637   2.272 127.398  0.00  0.00    -0.491 OA
ATOM     17  C   LIG A   1      -8.206   1.181 128.194  0.00  0.00    +0.277 C 
ENDBRANCH  13  16
ENDBRANCH   1  11
BRANCH   6  18
ATOM     18  C   LIG A   1      -6.915  -2.497 126.785  0.00  0.00    -0.015 A 
ATOM     19  C   LIG A   1      -5.859  -2.261 127.684  0.00  0.00    +0.055 A 
ATOM     20  C   LIG A   1      -6.028  -2.448 129.058  0.00  0.00    +0.162 A 
ATOM     21  C   LIG A   1      -7.272  -2.878 129.528  0.00  0.00    +0.159 A 
ATOM     22  C   LIG A   1      -8.343  -3.085 128.666  0.00  0.00    +0.049 A 
ATOM     23  C   LIG A   1      -8.163  -2.892 127.295  0.00  0.00    +0.010 A 
BRANCH  20  24
ATOM     24  O   LIG A   1      -5.071  -2.248 130.021  0.00  0.00    -0.491 OA
ATOM     25  C   LIG A   1      -3.963  -3.143 130.010  0.00  0.00    +0.277 C 
ENDBRANCH  20  24
BRANCH  21  26
ATOM     26  O   LIG A   1      -7.461  -3.122 130.861  0.00  0.00    -0.503 OA
ATOM     27  H   LIG A   1      -8.365  -2.803 131.047  0.00  0.00    +0.292 HD
ENDBRANCH  21  26
ENDBRANCH   6  18
TORSDOF 6
ENDMDL
