MODEL 1
REMARK VINA RESULT:      -8.1      0.000      0.000
REMARK  Name = NuBBE_1757
REMARK  5 active torsions:
REMARK  status: ('A' for Active; 'I' for Inactive)
REMARK    1  A    between atoms: C_1  and  O_3
REMARK    2  A    between atoms: C_1  and  C_5
REMARK    3  A    between atoms: O_3  and  C_4
REMARK    4  A    between atoms: C_14  and  C_16
REMARK    5  A    between atoms: C_16  and  C_17
REMARK                            x       y       z     vdW  Elec       q    Type
REMARK                         _______ _______ _______ _____ _____    ______ ____
ROOT
ATOM      1  C   LIG A   1      -7.387   1.051 124.648  0.00  0.00    +0.123 C 
ATOM      2  C   LIG A   1      -8.221  -0.157 123.951  0.00  0.00    +0.082 C 
ATOM      3  N   LIG A   1      -9.417  -0.315 124.735  0.00  0.00    -0.297 NA
ATOM      4  C   LIG A   1      -8.934  -0.631 126.112  0.00  0.00    +0.088 C 
ATOM      5  C   LIG A   1      -7.335  -0.890 126.146  0.00  0.00    +0.005 C 
ATOM      6  C   LIG A   1      -6.450   0.306 125.569  0.00  0.00    +0.030 C 
ATOM      7  C   LIG A   1      -7.083  -2.053 125.184  0.00  0.00    +0.010 C 
ATOM      8  C   LIG A   1      -7.502  -1.548 123.799  0.00  0.00    +0.008 C 
ATOM      9  C   LIG A   1     -10.261   0.899 124.497  0.00  0.00    +0.089 C 
ATOM     10  C   LIG A   1      -9.957   1.945 123.284  0.00  0.00    +0.053 C 
ATOM     11  C   LIG A   1      -8.507   2.354 122.861  0.00  0.00    -0.017 A 
ATOM     12  C   LIG A   1      -7.318   1.927 123.462  0.00  0.00    +0.039 A 
ATOM     13  N   LIG A   1      -6.247   2.416 122.788  0.00  0.00    -0.357 N 
ATOM     14  H   LIG A   1      -5.273   2.273 123.020  0.00  0.00    +0.166 HD
ATOM     15  C   LIG A   1      -6.697   3.106 121.682  0.00  0.00    +0.047 A 
ATOM     16  C   LIG A   1      -8.100   3.093 121.707  0.00  0.00    +0.003 A 
ATOM     17  C   LIG A   1      -8.797   3.720 120.656  0.00  0.00    +0.010 A 
ATOM     18  C   LIG A   1      -8.080   4.327 119.618  0.00  0.00    +0.001 A 
ATOM     19  C   LIG A   1      -6.688   4.324 119.620  0.00  0.00    +0.002 A 
ATOM     20  C   LIG A   1      -5.969   3.719 120.654  0.00  0.00    +0.026 A 
ENDROOT
BRANCH   1  21
ATOM     21  C   LIG A   1      -7.823   2.207 125.720  0.00  0.00    +0.321 C 
ATOM     22  O   LIG A   1      -8.549   2.128 126.695  0.00  0.00    -0.250 OA
BRANCH  21  23
ATOM     23  O   LIG A   1      -7.092   3.357 125.464  0.00  0.00    -0.467 OA
ATOM     24  C   LIG A   1      -7.741   4.565 125.860  0.00  0.00    +0.280 C 
ENDBRANCH  21  23
ENDBRANCH   1  21
BRANCH   8  25
ATOM     25  C   LIG A   1      -6.323  -1.568 122.801  0.00  0.00    +0.002 C 
ATOM     26  C   LIG A   1      -5.287  -2.652 123.068  0.00  0.00    +0.004 C 
ENDBRANCH   8  25
TORSDOF 3
ENDMDL
MODEL 2
REMARK VINA RESULT:      -7.5      3.452      7.246
REMARK  Name = NuBBE_1757
REMARK  5 active torsions:
REMARK  status: ('A' for Active; 'I' for Inactive)
REMARK    1  A    between atoms: C_1  and  O_3
REMARK    2  A    between atoms: C_1  and  C_5
REMARK    3  A    between atoms: O_3  and  C_4
REMARK    4  A    between atoms: C_14  and  C_16
REMARK    5  A    between atoms: C_16  and  C_17
REMARK                            x       y       z     vdW  Elec       q    Type
REMARK                         _______ _______ _______ _____ _____    ______ ____
ROOT
ATOM      1  C   LIG A   1      -6.922  -1.445 125.527  0.00  0.00    +0.123 C 
ATOM      2  C   LIG A   1      -8.314  -0.781 126.041  0.00  0.00    +0.082 C 
ATOM      3  N   LIG A   1      -9.365  -1.482 125.354  0.00  0.00    -0.297 NA
ATOM      4  C   LIG A   1      -9.089  -1.261 123.904  0.00  0.00    +0.088 C 
ATOM      5  C   LIG A   1      -7.906  -0.178 123.672  0.00  0.00    +0.005 C 
ATOM      6  C   LIG A   1      -6.527  -0.529 124.393  0.00  0.00    +0.030 C 
ATOM      7  C   LIG A   1      -8.381   1.106 124.354  0.00  0.00    +0.010 C 
ATOM      8  C   LIG A   1      -8.498   0.770 125.845  0.00  0.00    +0.008 C 
ATOM      9  C   LIG A   1      -9.396  -2.873 125.907  0.00  0.00    +0.089 C 
ATOM     10  C   LIG A   1      -8.605  -3.285 127.272  0.00  0.00    +0.053 C 
ATOM     11  C   LIG A   1      -7.191  -2.724 127.634  0.00  0.00    -0.017 A 
ATOM     12  C   LIG A   1      -6.420  -1.855 126.853  0.00  0.00    +0.039 A 
ATOM     13  N   LIG A   1      -5.284  -1.512 127.511  0.00  0.00    -0.357 N 
ATOM     14  H   LIG A   1      -4.548  -0.910 127.166  0.00  0.00    +0.166 HD
ATOM     15  C   LIG A   1      -5.313  -2.076 128.769  0.00  0.00    +0.047 A 
ATOM     16  C   LIG A   1      -6.483  -2.844 128.870  0.00  0.00    +0.003 A 
ATOM     17  C   LIG A   1      -6.750  -3.504 130.085  0.00  0.00    +0.010 A 
ATOM     18  C   LIG A   1      -5.855  -3.373 131.154  0.00  0.00    +0.001 A 
ATOM     19  C   LIG A   1      -4.702  -2.603 131.024  0.00  0.00    +0.002 A 
ATOM     20  C   LIG A   1      -4.406  -1.945 129.828  0.00  0.00    +0.026 A 
ENDROOT
BRANCH   1  21
ATOM     21  C   LIG A   1      -6.601  -2.849 124.753  0.00  0.00    +0.321 C 
ATOM     22  O   LIG A   1      -7.327  -3.539 124.060  0.00  0.00    -0.250 OA
BRANCH  21  23
ATOM     23  O   LIG A   1      -5.244  -3.119 124.856  0.00  0.00    -0.467 OA
ATOM     24  C   LIG A   1      -4.689  -3.781 123.719  0.00  0.00    +0.280 C 
ENDBRANCH  21  23
ENDBRANCH   1  21
BRANCH   8  25
ATOM     25  C   LIG A   1      -7.568   1.653 126.706  0.00  0.00    +0.002 C 
ATOM     26  C   LIG A   1      -7.596   1.336 128.196  0.00  0.00    +0.004 C 
ENDBRANCH   8  25
TORSDOF 3
ENDMDL
MODEL 3
REMARK VINA RESULT:      -7.3      2.630      6.452
REMARK  Name = NuBBE_1757
REMARK  5 active torsions:
REMARK  status: ('A' for Active; 'I' for Inactive)
REMARK    1  A    between atoms: C_1  and  O_3
REMARK    2  A    between atoms: C_1  and  C_5
REMARK    3  A    between atoms: O_3  and  C_4
REMARK    4  A    between atoms: C_14  and  C_16
REMARK    5  A    between atoms: C_16  and  C_17
REMARK                            x       y       z     vdW  Elec       q    Type
REMARK                         _______ _______ _______ _____ _____    ______ ____
ROOT
ATOM      1  C   LIG A   1      -8.356  -0.292 125.990  0.00  0.00    +0.123 C 
ATOM      2  C   LIG A   1      -7.509  -0.872 124.730  0.00  0.00    +0.082 C 
ATOM      3  N   LIG A   1      -6.857   0.263 124.135  0.00  0.00    -0.297 NA
ATOM      4  C   LIG A   1      -7.968   1.182 123.744  0.00  0.00    +0.088 C 
ATOM      5  C   LIG A   1      -9.419   0.484 123.920  0.00  0.00    +0.005 C 
ATOM      6  C   LIG A   1      -9.722  -0.071 125.385  0.00  0.00    +0.030 C 
ATOM      7  C   LIG A   1      -9.388  -0.764 123.035  0.00  0.00    +0.010 C 
ATOM      8  C   LIG A   1      -8.298  -1.667 123.625  0.00  0.00    +0.008 C 
ATOM      9  C   LIG A   1      -5.810   0.722 125.101  0.00  0.00    +0.089 C 
ATOM     10  C   LIG A   1      -5.339  -0.186 126.370  0.00  0.00    +0.053 C 
ATOM     11  C   LIG A   1      -6.336  -1.047 127.213  0.00  0.00    -0.017 A 
ATOM     12  C   LIG A   1      -7.722  -1.125 127.030  0.00  0.00    +0.039 A 
ATOM     13  N   LIG A   1      -8.260  -2.027 127.888  0.00  0.00    -0.357 N 
ATOM     14  H   LIG A   1      -9.240  -2.264 127.975  0.00  0.00    +0.166 HD
ATOM     15  C   LIG A   1      -7.241  -2.625 128.600  0.00  0.00    +0.047 A 
ATOM     16  C   LIG A   1      -6.034  -2.027 128.209  0.00  0.00    +0.003 A 
ATOM     17  C   LIG A   1      -4.836  -2.492 128.785  0.00  0.00    +0.010 A 
ATOM     18  C   LIG A   1      -4.878  -3.533 129.720  0.00  0.00    +0.001 A 
ATOM     19  C   LIG A   1      -6.092  -4.108 130.088  0.00  0.00    +0.002 A 
ATOM     20  C   LIG A   1      -7.298  -3.661 129.541  0.00  0.00    +0.026 A 
ENDROOT
BRANCH   1  21
ATOM     21  C   LIG A   1      -8.279   1.126 126.800  0.00  0.00    +0.321 C 
ATOM     22  O   LIG A   1      -8.359   2.267 126.381  0.00  0.00    -0.250 OA
BRANCH  21  23
ATOM     23  O   LIG A   1      -8.261   0.866 128.162  0.00  0.00    -0.467 OA
ATOM     24  C   LIG A   1      -8.591   1.988 128.979  0.00  0.00    +0.280 C 
ENDBRANCH  21  23
ENDBRANCH   1  21
BRANCH   8  25
ATOM     25  C   LIG A   1      -8.867  -3.030 124.080  0.00  0.00    +0.002 C 
ATOM     26  C   LIG A   1      -7.844  -3.959 124.722  0.00  0.00    +0.004 C 
ENDBRANCH   8  25
TORSDOF 3
ENDMDL
MODEL 4
REMARK VINA RESULT:      -6.8      7.603     10.550
REMARK  Name = NuBBE_1757
REMARK  5 active torsions:
REMARK  status: ('A' for Active; 'I' for Inactive)
REMARK    1  A    between atoms: C_1  and  O_3
REMARK    2  A    between atoms: C_1  and  C_5
REMARK    3  A    between atoms: O_3  and  C_4
REMARK    4  A    between atoms: C_14  and  C_16
REMARK    5  A    between atoms: C_16  and  C_17
REMARK                            x       y       z     vdW  Elec       q    Type
REMARK                         _______ _______ _______ _____ _____    ______ ____
ROOT
ATOM      1  C   LIG A   1      -7.762   4.235 132.931  0.00  0.00    +0.123 C 
ATOM      2  C   LIG A   1      -6.884   5.510 133.428  0.00  0.00    +0.082 C 
ATOM      3  N   LIG A   1      -5.566   5.317 132.887  0.00  0.00    -0.297 NA
ATOM      4  C   LIG A   1      -5.108   4.012 133.450  0.00  0.00    +0.088 C 
ATOM      5  C   LIG A   1      -6.125   3.452 134.580  0.00  0.00    +0.005 C 
ATOM      6  C   LIG A   1      -7.636   3.284 134.097  0.00  0.00    +0.030 C 
ATOM      7  C   LIG A   1      -6.184   4.537 135.658  0.00  0.00    +0.010 C 
ATOM      8  C   LIG A   1      -6.787   5.770 134.976  0.00  0.00    +0.008 C 
ATOM      9  C   LIG A   1      -5.670   5.498 131.404  0.00  0.00    +0.089 C 
ATOM     10  C   LIG A   1      -6.986   6.151 130.698  0.00  0.00    +0.053 C 
ATOM     11  C   LIG A   1      -8.443   5.860 131.186  0.00  0.00    -0.017 A 
ATOM     12  C   LIG A   1      -8.810   5.003 132.230  0.00  0.00    +0.039 A 
ATOM     13  N   LIG A   1     -10.151   5.052 132.431  0.00  0.00    -0.357 N 
ATOM     14  H   LIG A   1     -10.677   4.521 133.112  0.00  0.00    +0.166 HD
ATOM     15  C   LIG A   1     -10.691   5.999 131.586  0.00  0.00    +0.047 A 
ATOM     16  C   LIG A   1      -9.653   6.510 130.792  0.00  0.00    +0.003 A 
ATOM     17  C   LIG A   1      -9.956   7.520 129.858  0.00  0.00    +0.010 A 
ATOM     18  C   LIG A   1     -11.271   7.990 129.751  0.00  0.00    +0.001 A 
ATOM     19  C   LIG A   1     -12.280   7.463 130.553  0.00  0.00    +0.002 A 
ATOM     20  C   LIG A   1     -12.011   6.454 131.481  0.00  0.00    +0.026 A 
ENDROOT
BRANCH   1  21
ATOM     21  C   LIG A   1      -7.513   3.126 131.756  0.00  0.00    +0.321 C 
ATOM     22  O   LIG A   1      -6.491   2.540 131.443  0.00  0.00    -0.250 OA
BRANCH  21  23
ATOM     23  O   LIG A   1      -8.734   2.778 131.199  0.00  0.00    -0.467 OA
ATOM     24  C   LIG A   1      -8.638   1.925 130.059  0.00  0.00    +0.280 C 
ENDBRANCH  21  23
ENDBRANCH   1  21
BRANCH   8  25
ATOM     25  C   LIG A   1      -8.106   6.210 135.649  0.00  0.00    +0.002 C 
ATOM     26  C   LIG A   1      -7.955   6.677 137.091  0.00  0.00    +0.004 C 
ENDBRANCH   8  25
TORSDOF 3
ENDMDL
MODEL 5
REMARK VINA RESULT:      -6.8      5.916      8.612
REMARK  Name = NuBBE_1757
REMARK  5 active torsions:
REMARK  status: ('A' for Active; 'I' for Inactive)
REMARK    1  A    between atoms: C_1  and  O_3
REMARK    2  A    between atoms: C_1  and  C_5
REMARK    3  A    between atoms: O_3  and  C_4
REMARK    4  A    between atoms: C_14  and  C_16
REMARK    5  A    between atoms: C_16  and  C_17
REMARK                            x       y       z     vdW  Elec       q    Type
REMARK                         _______ _______ _______ _____ _____    ______ ____
ROOT
ATOM      1  C   LIG A   1      -5.825  -0.833 131.536  0.00  0.00    +0.123 C 
ATOM      2  C   LIG A   1      -5.037  -2.212 131.883  0.00  0.00    +0.082 C 
ATOM      3  N   LIG A   1      -5.367  -2.524 133.247  0.00  0.00    -0.297 NA
ATOM      4  C   LIG A   1      -4.897  -1.346 134.034  0.00  0.00    +0.088 C 
ATOM      5  C   LIG A   1      -4.030  -0.320 133.127  0.00  0.00    +0.005 C 
ATOM      6  C   LIG A   1      -4.778   0.217 131.824  0.00  0.00    +0.030 C 
ATOM      7  C   LIG A   1      -2.855  -1.138 132.587  0.00  0.00    +0.010 C 
ATOM      8  C   LIG A   1      -3.475  -2.225 131.701  0.00  0.00    +0.008 C 
ATOM      9  C   LIG A   1      -6.813  -2.912 133.270  0.00  0.00    +0.089 C 
ATOM     10  C   LIG A   1      -7.647  -3.242 131.909  0.00  0.00    +0.053 C 
ATOM     11  C   LIG A   1      -7.450  -2.442 130.579  0.00  0.00    -0.017 A 
ATOM     12  C   LIG A   1      -6.595  -1.351 130.388  0.00  0.00    +0.039 A 
ATOM     13  N   LIG A   1      -6.619  -0.955 129.091  0.00  0.00    -0.357 N 
ATOM     14  H   LIG A   1      -6.105  -0.181 128.689  0.00  0.00    +0.166 HD
ATOM     15  C   LIG A   1      -7.422  -1.820 128.378  0.00  0.00    +0.047 A 
ATOM     16  C   LIG A   1      -7.962  -2.749 129.280  0.00  0.00    +0.003 A 
ATOM     17  C   LIG A   1      -8.804  -3.760 128.779  0.00  0.00    +0.010 A 
ATOM     18  C   LIG A   1      -9.074  -3.818 127.407  0.00  0.00    +0.001 A 
ATOM     19  C   LIG A   1      -8.523  -2.881 126.535  0.00  0.00    +0.002 A 
ATOM     20  C   LIG A   1      -7.692  -1.861 127.004  0.00  0.00    +0.026 A 
ENDROOT
BRANCH   1  21
ATOM     21  C   LIG A   1      -7.066  -0.067 132.275  0.00  0.00    +0.321 C 
ATOM     22  O   LIG A   1      -7.247   0.159 133.459  0.00  0.00    -0.250 OA
BRANCH  21  23
ATOM     23  O   LIG A   1      -7.896   0.482 131.308  0.00  0.00    -0.467 OA
ATOM     24  C   LIG A   1      -9.158   0.928 131.802  0.00  0.00    +0.280 C 
ENDBRANCH  21  23
ENDBRANCH   1  21
BRANCH   8  25
ATOM     25  C   LIG A   1      -2.985  -2.121 130.239  0.00  0.00    +0.002 C 
ATOM     26  C   LIG A   1      -3.537  -3.195 129.310  0.00  0.00    +0.004 C 
ENDBRANCH   8  25
TORSDOF 3
ENDMDL
MODEL 6
REMARK VINA RESULT:      -6.8      4.704      6.712
REMARK  Name = NuBBE_1757
REMARK  5 active torsions:
REMARK  status: ('A' for Active; 'I' for Inactive)
REMARK    1  A    between atoms: C_1  and  O_3
REMARK    2  A    between atoms: C_1  and  C_5
REMARK    3  A    between atoms: O_3  and  C_4
REMARK    4  A    between atoms: C_14  and  C_16
REMARK    5  A    between atoms: C_16  and  C_17
REMARK                            x       y       z     vdW  Elec       q    Type
REMARK                         _______ _______ _______ _____ _____    ______ ____
ROOT
ATOM      1  C   LIG A   1      -5.487  -0.521 129.484  0.00  0.00    +0.123 C 
ATOM      2  C   LIG A   1      -5.382  -1.943 130.265  0.00  0.00    +0.082 C 
ATOM      3  N   LIG A   1      -6.325  -1.869 131.348  0.00  0.00    -0.297 NA
ATOM      4  C   LIG A   1      -5.883  -0.699 132.163  0.00  0.00    +0.088 C 
ATOM      5  C   LIG A   1      -4.448  -0.128 131.671  0.00  0.00    +0.005 C 
ATOM      6  C   LIG A   1      -4.384   0.283 130.130  0.00  0.00    +0.030 C 
ATOM      7  C   LIG A   1      -3.471  -1.299 131.797  0.00  0.00    +0.010 C 
ATOM      8  C   LIG A   1      -3.973  -2.369 130.820  0.00  0.00    +0.008 C 
ATOM      9  C   LIG A   1      -7.693  -1.884 130.740  0.00  0.00    +0.089 C 
ATOM     10  C   LIG A   1      -7.947  -2.286 129.181  0.00  0.00    +0.053 C 
ATOM     11  C   LIG A   1      -6.981  -1.859 128.027  0.00  0.00    -0.017 A 
ATOM     12  C   LIG A   1      -5.832  -1.071 128.158  0.00  0.00    +0.039 A 
ATOM     13  N   LIG A   1      -5.194  -0.966 126.966  0.00  0.00    -0.357 N 
ATOM     14  H   LIG A   1      -4.348  -0.442 126.781  0.00  0.00    +0.166 HD
ATOM     15  C   LIG A   1      -5.855  -1.744 126.039  0.00  0.00    +0.047 A 
ATOM     16  C   LIG A   1      -6.978  -2.303 126.668  0.00  0.00    +0.003 A 
ATOM     17  C   LIG A   1      -7.805  -3.165 125.923  0.00  0.00    +0.010 A 
ATOM     18  C   LIG A   1      -7.487  -3.446 124.589  0.00  0.00    +0.001 A 
ATOM     19  C   LIG A   1      -6.366  -2.877 123.992  0.00  0.00    +0.002 A 
ATOM     20  C   LIG A   1      -5.531  -2.010 124.703  0.00  0.00    +0.026 A 
ENDROOT
BRANCH   1  21
ATOM     21  C   LIG A   1      -6.618   0.660 129.507  0.00  0.00    +0.321 C 
ATOM     22  O   LIG A   1      -7.194   1.166 130.453  0.00  0.00    -0.250 OA
BRANCH  21  23
ATOM     23  O   LIG A   1      -6.754   1.177 128.227  0.00  0.00    -0.467 OA
ATOM     24  C   LIG A   1      -8.005   1.820 127.985  0.00  0.00    +0.280 C 
ENDBRANCH  21  23
ENDBRANCH   1  21
BRANCH   8  25
ATOM     25  C   LIG A   1      -2.918  -2.698 129.740  0.00  0.00    +0.002 C 
ATOM     26  C   LIG A   1      -3.291  -3.856 128.823  0.00  0.00    +0.004 C 
ENDBRANCH   8  25
TORSDOF 3
ENDMDL
MODEL 7
REMARK VINA RESULT:      -6.7      3.591      5.281
REMARK  Name = NuBBE_1757
REMARK  5 active torsions:
REMARK  status: ('A' for Active; 'I' for Inactive)
REMARK    1  A    between atoms: C_1  and  O_3
REMARK    2  A    between atoms: C_1  and  C_5
REMARK    3  A    between atoms: O_3  and  C_4
REMARK    4  A    between atoms: C_14  and  C_16
REMARK    5  A    between atoms: C_16  and  C_17
REMARK                            x       y       z     vdW  Elec       q    Type
REMARK                         _______ _______ _______ _____ _____    ______ ____
ROOT
ATOM      1  C   LIG A   1      -6.273  -0.795 128.266  0.00  0.00    +0.123 C 
ATOM      2  C   LIG A   1      -7.695  -1.037 129.016  0.00  0.00    +0.082 C 
ATOM      3  N   LIG A   1      -7.942   0.152 129.787  0.00  0.00    -0.297 NA
ATOM      4  C   LIG A   1      -6.779   0.254 130.718  0.00  0.00    +0.088 C 
ATOM      5  C   LIG A   1      -5.846  -1.070 130.665  0.00  0.00    +0.005 C 
ATOM      6  C   LIG A   1      -5.294  -1.443 129.216  0.00  0.00    +0.030 C 
ATOM      7  C   LIG A   1      -6.762  -2.237 131.041  0.00  0.00    +0.010 C 
ATOM      8  C   LIG A   1      -7.827  -2.303 129.940  0.00  0.00    +0.008 C 
ATOM      9  C   LIG A   1      -8.223   1.255 128.815  0.00  0.00    +0.089 C 
ATOM     10  C   LIG A   1      -8.531   0.968 127.240  0.00  0.00    +0.053 C 
ATOM     11  C   LIG A   1      -7.787  -0.135 126.417  0.00  0.00    -0.017 A 
ATOM     12  C   LIG A   1      -6.767  -0.971 126.886  0.00  0.00    +0.039 A 
ATOM     13  N   LIG A   1      -6.408  -1.860 125.927  0.00  0.00    -0.357 N 
ATOM     14  H   LIG A   1      -5.686  -2.565 126.000  0.00  0.00    +0.166 HD
ATOM     15  C   LIG A   1      -7.233  -1.691 124.835  0.00  0.00    +0.047 A 
ATOM     16  C   LIG A   1      -8.094  -0.617 125.107  0.00  0.00    +0.003 A 
ATOM     17  C   LIG A   1      -9.055  -0.265 124.140  0.00  0.00    +0.010 A 
ATOM     18  C   LIG A   1      -9.133  -0.992 122.947  0.00  0.00    +0.001 A 
ATOM     19  C   LIG A   1      -8.265  -2.054 122.704  0.00  0.00    +0.002 A 
ATOM     20  C   LIG A   1      -7.294  -2.420 123.641  0.00  0.00    +0.026 A 
ENDROOT
BRANCH   1  21
ATOM     21  C   LIG A   1      -5.397   0.558 127.990  0.00  0.00    +0.321 C 
ATOM     22  O   LIG A   1      -4.941   1.364 128.782  0.00  0.00    -0.250 OA
BRANCH  21  23
ATOM     23  O   LIG A   1      -5.071   0.616 126.644  0.00  0.00    -0.467 OA
ATOM     24  C   LIG A   1      -4.625   1.899 126.202  0.00  0.00    +0.280 C 
ENDBRANCH  21  23
ENDBRANCH   1  21
BRANCH   8  25
ATOM     25  C   LIG A   1      -7.801  -3.658 129.199  0.00  0.00    +0.002 C 
ATOM     26  C   LIG A   1      -8.792  -3.768 128.047  0.00  0.00    +0.004 C 
ENDBRANCH   8  25
TORSDOF 3
ENDMDL
MODEL 8
REMARK VINA RESULT:      -6.7      4.039      6.382
REMARK  Name = NuBBE_1757
REMARK  5 active torsions:
REMARK  status: ('A' for Active; 'I' for Inactive)
REMARK    1  A    between atoms: C_1  and  O_3
REMARK    2  A    between atoms: C_1  and  C_5
REMARK    3  A    between atoms: O_3  and  C_4
REMARK    4  A    between atoms: C_14  and  C_16
REMARK    5  A    between atoms: C_16  and  C_17
REMARK                            x       y       z     vdW  Elec       q    Type
REMARK                         _______ _______ _______ _____ _____    ______ ____
ROOT
ATOM      1  C   LIG A   1      -6.929  -0.625 128.408  0.00  0.00    +0.123 C 
ATOM      2  C   LIG A   1      -5.406  -0.114 128.657  0.00  0.00    +0.082 C 
ATOM      3  N   LIG A   1      -4.930  -0.837 129.806  0.00  0.00    -0.297 NA
ATOM      4  C   LIG A   1      -5.874  -0.477 130.905  0.00  0.00    +0.088 C 
ATOM      5  C   LIG A   1      -6.887   0.710 130.466  0.00  0.00    +0.005 C 
ATOM      6  C   LIG A   1      -7.741   0.409 129.152  0.00  0.00    +0.030 C 
ATOM      7  C   LIG A   1      -5.996   1.894 130.083  0.00  0.00    +0.010 C 
ATOM      8  C   LIG A   1      -5.179   1.428 128.872  0.00  0.00    +0.008 C 
ATOM      9  C   LIG A   1      -4.774  -2.267 129.390  0.00  0.00    +0.089 C 
ATOM     10  C   LIG A   1      -4.806  -2.726 127.826  0.00  0.00    +0.053 C 
ATOM     11  C   LIG A   1      -5.773  -2.088 126.775  0.00  0.00    -0.017 A 
ATOM     12  C   LIG A   1      -6.733  -1.101 127.025  0.00  0.00    +0.039 A 
ATOM     13  N   LIG A   1      -7.336  -0.726 125.869  0.00  0.00    -0.357 N 
ATOM     14  H   LIG A   1      -8.075  -0.043 125.770  0.00  0.00    +0.166 HD
ATOM     15  C   LIG A   1      -6.736  -1.391 124.820  0.00  0.00    +0.047 A 
ATOM     16  C   LIG A   1      -5.767  -2.254 125.355  0.00  0.00    +0.003 A 
ATOM     17  C   LIG A   1      -4.996  -3.030 124.469  0.00  0.00    +0.010 A 
ATOM     18  C   LIG A   1      -5.208  -2.918 123.089  0.00  0.00    +0.001 A 
ATOM     19  C   LIG A   1      -6.177  -2.053 122.588  0.00  0.00    +0.002 A 
ATOM     20  C   LIG A   1      -6.964  -1.277 123.443  0.00  0.00    +0.026 A 
ENDROOT
BRANCH   1  21
ATOM     21  C   LIG A   1      -7.748  -1.931 128.952  0.00  0.00    +0.321 C 
ATOM     22  O   LIG A   1      -7.943  -2.307 130.094  0.00  0.00    -0.250 OA
BRANCH  21  23
ATOM     23  O   LIG A   1      -8.385  -2.541 127.881  0.00  0.00    -0.467 OA
ATOM     24  C   LIG A   1      -8.901  -3.840 128.167  0.00  0.00    +0.280 C 
ENDBRANCH  21  23
ENDBRANCH   1  21
BRANCH   8  25
ATOM     25  C   LIG A   1      -5.444   2.307 127.630  0.00  0.00    +0.002 C 
ATOM     26  C   LIG A   1      -4.723   1.851 126.367  0.00  0.00    +0.004 C 
ENDBRANCH   8  25
TORSDOF 3
ENDMDL
MODEL 9
REMARK VINA RESULT:      -6.7      2.644      6.505
REMARK  Name = NuBBE_1757
REMARK  5 active torsions:
REMARK  status: ('A' for Active; 'I' for Inactive)
REMARK    1  A    between atoms: C_1  and  O_3
REMARK    2  A    between atoms: C_1  and  C_5
REMARK    3  A    between atoms: O_3  and  C_4
REMARK    4  A    between atoms: C_14  and  C_16
REMARK    5  A    between atoms: C_16  and  C_17
REMARK                            x       y       z     vdW  Elec       q    Type
REMARK                         _______ _______ _______ _____ _____    ______ ____
ROOT
ATOM      1  C   LIG A   1      -6.933   1.208 125.550  0.00  0.00    +0.123 C 
ATOM      2  C   LIG A   1      -8.120   1.976 126.353  0.00  0.00    +0.082 C 
ATOM      3  N   LIG A   1      -9.181   2.169 125.401  0.00  0.00    -0.297 NA
ATOM      4  C   LIG A   1      -8.571   2.980 124.306  0.00  0.00    +0.088 C 
ATOM      5  C   LIG A   1      -7.088   3.503 124.696  0.00  0.00    +0.005 C 
ATOM      6  C   LIG A   1      -6.057   2.353 125.099  0.00  0.00    +0.030 C 
ATOM      7  C   LIG A   1      -7.262   4.328 125.973  0.00  0.00    +0.010 C 
ATOM      8  C   LIG A   1      -7.769   3.348 127.038  0.00  0.00    +0.008 C 
ATOM      9  C   LIG A   1      -9.753   0.818 125.104  0.00  0.00    +0.089 C 
ATOM     10  C   LIG A   1      -9.415  -0.490 126.016  0.00  0.00    +0.053 C 
ATOM     11  C   LIG A   1      -7.996  -0.761 126.617  0.00  0.00    -0.017 A 
ATOM     12  C   LIG A   1      -6.855   0.028 126.433  0.00  0.00    +0.039 A 
ATOM     13  N   LIG A   1      -5.821  -0.460 127.163  0.00  0.00    -0.357 N 
ATOM     14  H   LIG A   1      -4.882  -0.088 127.199  0.00  0.00    +0.166 HD
ATOM     15  C   LIG A   1      -6.272  -1.529 127.909  0.00  0.00    +0.047 A 
ATOM     16  C   LIG A   1      -7.619  -1.747 127.581  0.00  0.00    +0.003 A 
ATOM     17  C   LIG A   1      -8.312  -2.781 128.239  0.00  0.00    +0.010 A 
ATOM     18  C   LIG A   1      -7.649  -3.554 129.199  0.00  0.00    +0.001 A 
ATOM     19  C   LIG A   1      -6.312  -3.315 129.504  0.00  0.00    +0.002 A 
ATOM     20  C   LIG A   1      -5.595  -2.303 128.860  0.00  0.00    +0.026 A 
ENDROOT
BRANCH   1  21
ATOM     21  C   LIG A   1      -6.921   0.394 124.132  0.00  0.00    +0.321 C 
ATOM     22  O   LIG A   1      -7.327   0.736 123.035  0.00  0.00    -0.250 OA
BRANCH  21  23
ATOM     23  O   LIG A   1      -6.196  -0.777 124.292  0.00  0.00    -0.467 OA
ATOM     24  C   LIG A   1      -6.327  -1.702 123.212  0.00  0.00    +0.280 C 
ENDBRANCH  21  23
ENDBRANCH   1  21
BRANCH   8  25
ATOM     25  C   LIG A   1      -6.798   3.251 128.236  0.00  0.00    +0.002 C 
ATOM     26  C   LIG A   1      -7.192   2.222 129.288  0.00  0.00    +0.004 C 
ENDBRANCH   8  25
TORSDOF 3
ENDMDL
