MODEL 1
REMARK VINA RESULT:      -5.8      0.000      0.000
REMARK  Name = NuBBE_925
REMARK  4 active torsions:
REMARK  status: ('A' for Active; 'I' for Inactive)
REMARK    1  A    between atoms: C_1  and  C_2
REMARK    2  A    between atoms: C_3  and  C_4
REMARK    3  A    between atoms: C_3  and  C_5
REMARK    4  A    between atoms: C_9  and  O_11
REMARK                            x       y       z     vdW  Elec       q    Type
REMARK                         _______ _______ _______ _____ _____    ______ ____
ROOT
ATOM      1  C   LIG A   1     -10.283   8.784 128.467  0.00  0.00    +0.014 C 
ATOM      2  C   LIG A   1     -11.463   7.830 128.466  0.00  0.00    -0.001 C 
ATOM      3  C   LIG A   1     -12.770   8.321 129.162  0.00  0.00    -0.024 C 
ATOM      4  C   LIG A   1     -12.650   8.613 130.672  0.00  0.00    +0.012 C 
ATOM      5  C   LIG A   1     -13.435   9.565 128.541  0.00  0.00    +0.012 C 
ATOM      6  C   LIG A   1     -13.491   6.986 128.831  0.00  0.00    -0.002 C 
ATOM      7  C   LIG A   1     -13.351   6.861 127.294  0.00  0.00    +0.036 C 
ATOM      8  C   LIG A   1     -11.964   7.479 127.031  0.00  0.00    +0.121 C 
ATOM      9  C   LIG A   1     -12.560   5.912 129.441  0.00  0.00    +0.005 C 
ATOM     10  C   LIG A   1     -11.158   6.504 129.214  0.00  0.00    +0.010 C 
ENDROOT
BRANCH   8  11
ATOM     11  O   LIG A   1     -11.102   6.600 126.328  0.00  0.00    -0.391 OA
ATOM     12  H   LIG A   1     -10.385   6.324 126.922  0.00  0.00    +0.210 HD
ENDBRANCH   8  11
TORSDOF 1
ENDMDL
MODEL 2
REMARK VINA RESULT:      -5.3     10.341     11.593
REMARK  Name = NuBBE_925
REMARK  4 active torsions:
REMARK  status: ('A' for Active; 'I' for Inactive)
REMARK    1  A    between atoms: C_1  and  C_2
REMARK    2  A    between atoms: C_3  and  C_4
REMARK    3  A    between atoms: C_3  and  C_5
REMARK    4  A    between atoms: C_9  and  O_11
REMARK                            x       y       z     vdW  Elec       q    Type
REMARK                         _______ _______ _______ _____ _____    ______ ____
ROOT
ATOM      1  C   LIG A   1      -6.850  -0.526 123.260  0.00  0.00    +0.014 C 
ATOM      2  C   LIG A   1      -7.743  -1.513 123.988  0.00  0.00    -0.001 C 
ATOM      3  C   LIG A   1      -7.037  -2.615 124.836  0.00  0.00    -0.024 C 
ATOM      4  C   LIG A   1      -6.136  -3.587 124.047  0.00  0.00    +0.012 C 
ATOM      5  C   LIG A   1      -6.184  -2.110 126.017  0.00  0.00    +0.012 C 
ATOM      6  C   LIG A   1      -8.405  -3.220 125.256  0.00  0.00    -0.002 C 
ATOM      7  C   LIG A   1      -9.160  -2.026 125.888  0.00  0.00    +0.036 C 
ATOM      8  C   LIG A   1      -8.676  -0.835 125.038  0.00  0.00    +0.121 C 
ATOM      9  C   LIG A   1      -9.101  -3.509 123.906  0.00  0.00    +0.005 C 
ATOM     10  C   LIG A   1      -8.626  -2.346 123.017  0.00  0.00    +0.010 C 
ENDROOT
BRANCH   8  11
ATOM     11  O   LIG A   1      -9.748  -0.110 124.460  0.00  0.00    -0.391 OA
ATOM     12  H   LIG A   1      -9.398   0.459 123.755  0.00  0.00    +0.210 HD
ENDBRANCH   8  11
TORSDOF 1
ENDMDL
MODEL 3
REMARK VINA RESULT:      -5.2     10.595     11.878
REMARK  Name = NuBBE_925
REMARK  4 active torsions:
REMARK  status: ('A' for Active; 'I' for Inactive)
REMARK    1  A    between atoms: C_1  and  C_2
REMARK    2  A    between atoms: C_3  and  C_4
REMARK    3  A    between atoms: C_3  and  C_5
REMARK    4  A    between atoms: C_9  and  O_11
REMARK                            x       y       z     vdW  Elec       q    Type
REMARK                         _______ _______ _______ _____ _____    ______ ____
ROOT
ATOM      1  C   LIG A   1      -8.267  -3.309 126.070  0.00  0.00    +0.014 C 
ATOM      2  C   LIG A   1      -8.076  -2.427 124.850  0.00  0.00    -0.001 C 
ATOM      3  C   LIG A   1      -6.608  -2.104 124.432  0.00  0.00    -0.024 C 
ATOM      4  C   LIG A   1      -5.778  -1.324 125.472  0.00  0.00    +0.012 C 
ATOM      5  C   LIG A   1      -5.745  -3.314 124.023  0.00  0.00    +0.012 C 
ATOM      6  C   LIG A   1      -7.098  -1.242 123.238  0.00  0.00    -0.002 C 
ATOM      7  C   LIG A   1      -8.009  -2.203 122.436  0.00  0.00    +0.036 C 
ATOM      8  C   LIG A   1      -8.660  -3.052 123.545  0.00  0.00    +0.121 C 
ATOM      9  C   LIG A   1      -8.036  -0.207 123.901  0.00  0.00    +0.005 C 
ATOM     10  C   LIG A   1      -8.695  -1.014 125.033  0.00  0.00    +0.010 C 
ENDROOT
BRANCH   8  11
ATOM     11  O   LIG A   1     -10.076  -3.026 123.489  0.00  0.00    -0.391 OA
ATOM     12  H   LIG A   1     -10.420  -2.763 124.357  0.00  0.00    +0.210 HD
ENDBRANCH   8  11
TORSDOF 1
ENDMDL
MODEL 4
REMARK VINA RESULT:      -5.0     10.792     12.095
REMARK  Name = NuBBE_925
REMARK  4 active torsions:
REMARK  status: ('A' for Active; 'I' for Inactive)
REMARK    1  A    between atoms: C_1  and  C_2
REMARK    2  A    between atoms: C_3  and  C_4
REMARK    3  A    between atoms: C_3  and  C_5
REMARK    4  A    between atoms: C_9  and  O_11
REMARK                            x       y       z     vdW  Elec       q    Type
REMARK                         _______ _______ _______ _____ _____    ______ ____
ROOT
ATOM      1  C   LIG A   1      -6.021  -0.738 125.508  0.00  0.00    +0.014 C 
ATOM      2  C   LIG A   1      -7.074  -1.692 124.975  0.00  0.00    -0.001 C 
ATOM      3  C   LIG A   1      -6.658  -2.616 123.790  0.00  0.00    -0.024 C 
ATOM      4  C   LIG A   1      -6.257  -1.889 122.489  0.00  0.00    +0.012 C 
ATOM      5  C   LIG A   1      -5.521  -3.615 124.085  0.00  0.00    +0.012 C 
ATOM      6  C   LIG A   1      -8.071  -3.258 123.746  0.00  0.00    -0.002 C 
ATOM      7  C   LIG A   1      -8.284  -3.783 125.187  0.00  0.00    +0.036 C 
ATOM      8  C   LIG A   1      -7.563  -2.721 126.041  0.00  0.00    +0.121 C 
ATOM      9  C   LIG A   1      -9.014  -2.045 123.581  0.00  0.00    +0.005 C 
ATOM     10  C   LIG A   1      -8.316  -0.951 124.408  0.00  0.00    +0.010 C 
ENDROOT
BRANCH   8  11
ATOM     11  O   LIG A   1      -8.406  -2.156 127.031  0.00  0.00    -0.391 OA
ATOM     12  H   LIG A   1      -8.932  -1.448 126.627  0.00  0.00    +0.210 HD
ENDBRANCH   8  11
TORSDOF 1
ENDMDL
MODEL 5
REMARK VINA RESULT:      -4.9     10.453     11.715
REMARK  Name = NuBBE_925
REMARK  4 active torsions:
REMARK  status: ('A' for Active; 'I' for Inactive)
REMARK    1  A    between atoms: C_1  and  C_2
REMARK    2  A    between atoms: C_3  and  C_4
REMARK    3  A    between atoms: C_3  and  C_5
REMARK    4  A    between atoms: C_9  and  O_11
REMARK                            x       y       z     vdW  Elec       q    Type
REMARK                         _______ _______ _______ _____ _____    ______ ____
ROOT
ATOM      1  C   LIG A   1      -9.022  -0.356 125.026  0.00  0.00    +0.014 C 
ATOM      2  C   LIG A   1      -8.189  -1.547 124.590  0.00  0.00    -0.001 C 
ATOM      3  C   LIG A   1      -6.935  -1.888 125.451  0.00  0.00    -0.024 C 
ATOM      4  C   LIG A   1      -5.848  -0.794 125.506  0.00  0.00    +0.012 C 
ATOM      5  C   LIG A   1      -7.214  -2.282 126.915  0.00  0.00    +0.012 C 
ATOM      6  C   LIG A   1      -6.581  -3.086 124.529  0.00  0.00    -0.002 C 
ATOM      7  C   LIG A   1      -7.866  -3.949 124.534  0.00  0.00    +0.036 C 
ATOM      8  C   LIG A   1      -8.982  -2.890 124.614  0.00  0.00    +0.121 C 
ATOM      9  C   LIG A   1      -6.493  -2.446 123.124  0.00  0.00    +0.005 C 
ATOM     10  C   LIG A   1      -7.586  -1.363 123.170  0.00  0.00    +0.010 C 
ENDROOT
BRANCH   8  11
ATOM     11  O   LIG A   1      -9.924  -3.012 123.562  0.00  0.00    -0.391 OA
ATOM     12  H   LIG A   1      -9.494  -2.767 122.727  0.00  0.00    +0.210 HD
ENDBRANCH   8  11
TORSDOF 1
ENDMDL
MODEL 6
REMARK VINA RESULT:      -4.8     10.697     11.769
REMARK  Name = NuBBE_925
REMARK  4 active torsions:
REMARK  status: ('A' for Active; 'I' for Inactive)
REMARK    1  A    between atoms: C_1  and  C_2
REMARK    2  A    between atoms: C_3  and  C_4
REMARK    3  A    between atoms: C_3  and  C_5
REMARK    4  A    between atoms: C_9  and  O_11
REMARK                            x       y       z     vdW  Elec       q    Type
REMARK                         _______ _______ _______ _____ _____    ______ ____
ROOT
ATOM      1  C   LIG A   1      -6.211  -2.235 126.301  0.00  0.00    +0.014 C 
ATOM      2  C   LIG A   1      -6.810  -2.239 124.907  0.00  0.00    -0.001 C 
ATOM      3  C   LIG A   1      -7.649  -0.992 124.493  0.00  0.00    -0.024 C 
ATOM      4  C   LIG A   1      -8.913  -0.730 125.338  0.00  0.00    +0.012 C 
ATOM      5  C   LIG A   1      -6.884   0.346 124.449  0.00  0.00    +0.012 C 
ATOM      6  C   LIG A   1      -7.937  -1.603 123.095  0.00  0.00    -0.002 C 
ATOM      7  C   LIG A   1      -6.529  -1.899 122.523  0.00  0.00    +0.036 C 
ATOM      8  C   LIG A   1      -5.734  -2.303 123.780  0.00  0.00    +0.121 C 
ATOM      9  C   LIG A   1      -8.569  -2.975 123.425  0.00  0.00    +0.005 C 
ATOM     10  C   LIG A   1      -7.811  -3.408 124.693  0.00  0.00    +0.010 C 
ENDROOT
BRANCH   8  11
ATOM     11  O   LIG A   1      -5.123  -3.576 123.649  0.00  0.00    -0.391 OA
ATOM     12  H   LIG A   1      -4.232  -3.460 123.281  0.00  0.00    +0.210 HD
ENDBRANCH   8  11
TORSDOF 1
ENDMDL
MODEL 7
REMARK VINA RESULT:      -4.8     10.386     11.648
REMARK  Name = NuBBE_925
REMARK  4 active torsions:
REMARK  status: ('A' for Active; 'I' for Inactive)
REMARK    1  A    between atoms: C_1  and  C_2
REMARK    2  A    between atoms: C_3  and  C_4
REMARK    3  A    between atoms: C_3  and  C_5
REMARK    4  A    between atoms: C_9  and  O_11
REMARK                            x       y       z     vdW  Elec       q    Type
REMARK                         _______ _______ _______ _____ _____    ______ ____
ROOT
ATOM      1  C   LIG A   1      -8.998  -0.507 125.820  0.00  0.00    +0.014 C 
ATOM      2  C   LIG A   1      -8.151  -1.676 125.354  0.00  0.00    -0.001 C 
ATOM      3  C   LIG A   1      -7.797  -1.734 123.837  0.00  0.00    -0.024 C 
ATOM      4  C   LIG A   1      -8.998  -1.863 122.878  0.00  0.00    +0.012 C 
ATOM      5  C   LIG A   1      -6.950  -0.563 123.300  0.00  0.00    +0.012 C 
ATOM      6  C   LIG A   1      -7.001  -3.053 124.035  0.00  0.00    -0.002 C 
ATOM      7  C   LIG A   1      -5.964  -2.699 125.128  0.00  0.00    +0.036 C 
ATOM      8  C   LIG A   1      -6.742  -1.716 126.024  0.00  0.00    +0.121 C 
ATOM      9  C   LIG A   1      -8.029  -3.998 124.700  0.00  0.00    +0.005 C 
ATOM     10  C   LIG A   1      -8.843  -3.046 125.594  0.00  0.00    +0.010 C 
ENDROOT
BRANCH   8  11
ATOM     11  O   LIG A   1      -6.770  -2.123 127.381  0.00  0.00    -0.391 OA
ATOM     12  H   LIG A   1      -5.894  -1.977 127.771  0.00  0.00    +0.210 HD
ENDBRANCH   8  11
TORSDOF 1
ENDMDL
MODEL 8
REMARK VINA RESULT:      -4.7     10.380     11.695
REMARK  Name = NuBBE_925
REMARK  4 active torsions:
REMARK  status: ('A' for Active; 'I' for Inactive)
REMARK    1  A    between atoms: C_1  and  C_2
REMARK    2  A    between atoms: C_3  and  C_4
REMARK    3  A    between atoms: C_3  and  C_5
REMARK    4  A    between atoms: C_9  and  O_11
REMARK                            x       y       z     vdW  Elec       q    Type
REMARK                         _______ _______ _______ _____ _____    ______ ____
ROOT
ATOM      1  C   LIG A   1      -6.249  -2.162 122.958  0.00  0.00    +0.014 C 
ATOM      2  C   LIG A   1      -7.110  -1.893 124.178  0.00  0.00    -0.001 C 
ATOM      3  C   LIG A   1      -8.287  -2.879 124.446  0.00  0.00    -0.024 C 
ATOM      4  C   LIG A   1      -9.371  -2.935 123.349  0.00  0.00    +0.012 C 
ATOM      5  C   LIG A   1      -7.888  -4.342 124.722  0.00  0.00    +0.012 C 
ATOM      6  C   LIG A   1      -8.711  -2.088 125.713  0.00  0.00    -0.002 C 
ATOM      7  C   LIG A   1      -7.426  -2.056 126.577  0.00  0.00    +0.036 C 
ATOM      8  C   LIG A   1      -6.311  -1.959 125.516  0.00  0.00    +0.121 C 
ATOM      9  C   LIG A   1      -8.917  -0.648 125.188  0.00  0.00    +0.005 C 
ATOM     10  C   LIG A   1      -7.829  -0.517 124.107  0.00  0.00    +0.010 C 
ENDROOT
BRANCH   8  11
ATOM     11  O   LIG A   1      -5.459  -0.846 125.725  0.00  0.00    -0.391 OA
ATOM     12  H   LIG A   1      -5.083  -0.902 126.618  0.00  0.00    +0.210 HD
ENDBRANCH   8  11
TORSDOF 1
ENDMDL
MODEL 9
REMARK VINA RESULT:      -4.4      1.461      2.369
REMARK  Name = NuBBE_925
REMARK  4 active torsions:
REMARK  status: ('A' for Active; 'I' for Inactive)
REMARK    1  A    between atoms: C_1  and  C_2
REMARK    2  A    between atoms: C_3  and  C_4
REMARK    3  A    between atoms: C_3  and  C_5
REMARK    4  A    between atoms: C_9  and  O_11
REMARK                            x       y       z     vdW  Elec       q    Type
REMARK                         _______ _______ _______ _____ _____    ______ ____
ROOT
ATOM      1  C   LIG A   1     -10.375   8.807 128.391  0.00  0.00    +0.014 C 
ATOM      2  C   LIG A   1     -11.357   7.829 129.010  0.00  0.00    -0.001 C 
ATOM      3  C   LIG A   1     -12.683   7.568 128.232  0.00  0.00    -0.024 C 
ATOM      4  C   LIG A   1     -13.596   8.796 128.044  0.00  0.00    +0.012 C 
ATOM      5  C   LIG A   1     -12.527   6.937 126.834  0.00  0.00    +0.012 C 
ATOM      6  C   LIG A   1     -13.171   6.577 129.323  0.00  0.00    -0.002 C 
ATOM      7  C   LIG A   1     -12.030   5.535 129.415  0.00  0.00    +0.036 C 
ATOM      8  C   LIG A   1     -10.773   6.391 129.161  0.00  0.00    +0.121 C 
ATOM      9  C   LIG A   1     -13.105   7.411 130.623  0.00  0.00    +0.005 C 
ATOM     10  C   LIG A   1     -11.866   8.298 130.401  0.00  0.00    +0.010 C 
ENDROOT
BRANCH   8  11
ATOM     11  O   LIG A   1      -9.817   6.272 130.201  0.00  0.00    -0.391 OA
ATOM     12  H   LIG A   1      -9.181   7.002 130.127  0.00  0.00    +0.210 HD
ENDBRANCH   8  11
TORSDOF 1
ENDMDL
