MODEL 1
REMARK VINA RESULT:      -7.4      0.000      0.000
REMARK  Name = NuBBE_2024
REMARK  8 active torsions:
REMARK  status: ('A' for Active; 'I' for Inactive)
REMARK    1  A    between atoms: C_4  and  O_5
REMARK    2  A    between atoms: C_7  and  O_8
REMARK    3  A    between atoms: C_9  and  O_10
REMARK    4  A    between atoms: O_10  and  C_11
REMARK    5  A    between atoms: C_15  and  C_16
REMARK    6  A    between atoms: C_18  and  O_19
REMARK    7  A    between atoms: C_20  and  O_21
REMARK    8  A    between atoms: O_21  and  C_22
REMARK                            x       y       z     vdW  Elec       q    Type
REMARK                         _______ _______ _______ _____ _____    ______ ____
ROOT
ATOM      1  O   LIG A   1      -9.343   6.438 132.845  0.00  0.00    -0.286 OA
ATOM      2  C   LIG A   1      -9.585   5.418 132.195  0.00  0.00    +0.204 A 
ATOM      3  C   LIG A   1      -8.923   4.161 132.585  0.00  0.00    +0.110 A 
ATOM      4  C   LIG A   1      -8.035   4.112 133.665  0.00  0.00    +0.135 A 
ATOM      5  C   LIG A   1      -7.413   2.920 134.016  0.00  0.00    +0.095 A 
ATOM      6  C   LIG A   1      -7.678   1.757 133.288  0.00  0.00    +0.166 A 
ATOM      7  C   LIG A   1      -8.566   1.781 132.201  0.00  0.00    +0.205 A 
ATOM      8  C   LIG A   1      -9.191   3.001 131.863  0.00  0.00    +0.187 A 
ATOM      9  O   LIG A   1     -10.060   3.007 130.796  0.00  0.00    -0.458 OA
ATOM     10  C   LIG A   1     -10.662   4.191 130.443  0.00  0.00    +0.208 A 
ATOM     11  C   LIG A   1     -10.512   5.395 131.025  0.00  0.00    +0.065 A 
ENDROOT
BRANCH  11  12
ATOM     12  C   LIG A   1     -11.241   6.600 130.533  0.00  0.00    -0.008 A 
ATOM     13  C   LIG A   1     -10.856   7.258 129.352  0.00  0.00    +0.058 A 
ATOM     14  C   LIG A   1     -11.547   8.387 128.874  0.00  0.00    +0.159 A 
ATOM     15  C   LIG A   1     -12.640   8.897 129.575  0.00  0.00    +0.161 A 
ATOM     16  C   LIG A   1     -13.040   8.243 130.742  0.00  0.00    +0.050 A 
ATOM     17  C   LIG A   1     -12.354   7.116 131.217  0.00  0.00    +0.012 A 
BRANCH  14  18
ATOM     18  O   LIG A   1     -11.136   8.953 127.699  0.00  0.00    -0.503 OA
ATOM     19  H   LIG A   1     -11.592   8.518 126.960  0.00  0.00    +0.292 HD
ENDBRANCH  14  18
BRANCH  15  20
ATOM     20  O   LIG A   1     -13.430   9.960 129.234  0.00  0.00    -0.491 OA
ATOM     21  C   LIG A   1     -13.461  11.056 130.140  0.00  0.00    +0.277 C 
ENDBRANCH  15  20
ENDBRANCH  11  12
BRANCH   4  22
ATOM     22  O   LIG A   1      -7.725   5.204 134.433  0.00  0.00    -0.506 OA
ATOM     23  H   LIG A   1      -8.307   5.947 134.153  0.00  0.00    +0.292 HD
ENDBRANCH   4  22
BRANCH   6  24
ATOM     24  O   LIG A   1      -7.070   0.598 133.687  0.00  0.00    -0.503 OA
ATOM     25  H   LIG A   1      -6.358   0.805 134.315  0.00  0.00    +0.292 HD
ENDBRANCH   6  24
BRANCH   7  26
ATOM     26  O   LIG A   1      -8.952   0.696 131.454  0.00  0.00    -0.488 OA
ATOM     27  C   LIG A   1      -8.067   0.263 130.428  0.00  0.00    +0.277 C 
ENDBRANCH   7  26
TORSDOF 6
ENDMDL
MODEL 2
REMARK VINA RESULT:      -7.1      7.540      9.563
REMARK  Name = NuBBE_2024
REMARK  8 active torsions:
REMARK  status: ('A' for Active; 'I' for Inactive)
REMARK    1  A    between atoms: C_4  and  O_5
REMARK    2  A    between atoms: C_7  and  O_8
REMARK    3  A    between atoms: C_9  and  O_10
REMARK    4  A    between atoms: O_10  and  C_11
REMARK    5  A    between atoms: C_15  and  C_16
REMARK    6  A    between atoms: C_18  and  O_19
REMARK    7  A    between atoms: C_20  and  O_21
REMARK    8  A    between atoms: O_21  and  C_22
REMARK                            x       y       z     vdW  Elec       q    Type
REMARK                         _______ _______ _______ _____ _____    ______ ____
ROOT
ATOM      1  O   LIG A   1      -6.465   4.222 123.965  0.00  0.00    -0.286 OA
ATOM      2  C   LIG A   1      -6.772   3.191 124.568  0.00  0.00    +0.204 A 
ATOM      3  C   LIG A   1      -7.853   2.352 124.022  0.00  0.00    +0.110 A 
ATOM      4  C   LIG A   1      -8.528   2.708 122.850  0.00  0.00    +0.135 A 
ATOM      5  C   LIG A   1      -9.551   1.909 122.352  0.00  0.00    +0.095 A 
ATOM      6  C   LIG A   1      -9.908   0.738 123.025  0.00  0.00    +0.166 A 
ATOM      7  C   LIG A   1      -9.246   0.360 124.204  0.00  0.00    +0.205 A 
ATOM      8  C   LIG A   1      -8.207   1.182 124.690  0.00  0.00    +0.187 A 
ATOM      9  O   LIG A   1      -7.566   0.797 125.846  0.00  0.00    -0.458 OA
ATOM     10  C   LIG A   1      -6.565   1.597 126.343  0.00  0.00    +0.208 A 
ATOM     11  C   LIG A   1      -6.105   2.753 125.830  0.00  0.00    +0.065 A 
ENDROOT
BRANCH  11  12
ATOM     12  C   LIG A   1      -4.999   3.514 126.479  0.00  0.00    -0.008 A 
ATOM     13  C   LIG A   1      -3.656   3.127 126.328  0.00  0.00    +0.058 A 
ATOM     14  C   LIG A   1      -2.606   3.847 126.925  0.00  0.00    +0.159 A 
ATOM     15  C   LIG A   1      -2.873   4.973 127.705  0.00  0.00    +0.161 A 
ATOM     16  C   LIG A   1      -4.202   5.375 127.851  0.00  0.00    +0.050 A 
ATOM     17  C   LIG A   1      -5.249   4.659 127.252  0.00  0.00    +0.012 A 
BRANCH  14  18
ATOM     18  O   LIG A   1      -1.321   3.431 126.704  0.00  0.00    -0.503 OA
ATOM     19  H   LIG A   1      -0.707   4.085 127.077  0.00  0.00    +0.292 HD
ENDBRANCH  14  18
BRANCH  15  20
ATOM     20  O   LIG A   1      -1.972   5.793 128.327  0.00  0.00    -0.491 OA
ATOM     21  C   LIG A   1      -2.413   6.458 129.504  0.00  0.00    +0.277 C 
ENDBRANCH  15  20
ENDBRANCH  11  12
BRANCH   4  22
ATOM     22  O   LIG A   1      -8.235   3.834 122.127  0.00  0.00    -0.506 OA
ATOM     23  H   LIG A   1      -8.278   4.606 122.736  0.00  0.00    +0.292 HD
ENDBRANCH   4  22
BRANCH   6  24
ATOM     24  O   LIG A   1     -10.899  -0.035 122.484  0.00  0.00    -0.503 OA
ATOM     25  H   LIG A   1     -10.575  -0.944 122.369  0.00  0.00    +0.292 HD
ENDBRANCH   6  24
BRANCH   7  26
ATOM     26  O   LIG A   1      -9.464  -0.794 124.914  0.00  0.00    -0.488 OA
ATOM     27  C   LIG A   1      -8.850  -1.982 124.431  0.00  0.00    +0.277 C 
ENDBRANCH   7  26
TORSDOF 6
ENDMDL
MODEL 3
REMARK VINA RESULT:      -7.1      0.960      2.623
REMARK  Name = NuBBE_2024
REMARK  8 active torsions:
REMARK  status: ('A' for Active; 'I' for Inactive)
REMARK    1  A    between atoms: C_4  and  O_5
REMARK    2  A    between atoms: C_7  and  O_8
REMARK    3  A    between atoms: C_9  and  O_10
REMARK    4  A    between atoms: O_10  and  C_11
REMARK    5  A    between atoms: C_15  and  C_16
REMARK    6  A    between atoms: C_18  and  O_19
REMARK    7  A    between atoms: C_20  and  O_21
REMARK    8  A    between atoms: O_21  and  C_22
REMARK                            x       y       z     vdW  Elec       q    Type
REMARK                         _______ _______ _______ _____ _____    ______ ____
ROOT
ATOM      1  O   LIG A   1     -10.167   4.139 129.657  0.00  0.00    -0.286 OA
ATOM      2  C   LIG A   1      -9.797   4.509 130.774  0.00  0.00    +0.204 A 
ATOM      3  C   LIG A   1      -8.988   3.586 131.589  0.00  0.00    +0.110 A 
ATOM      4  C   LIG A   1      -8.644   2.313 131.120  0.00  0.00    +0.135 A 
ATOM      5  C   LIG A   1      -7.887   1.452 131.904  0.00  0.00    +0.095 A 
ATOM      6  C   LIG A   1      -7.460   1.858 133.171  0.00  0.00    +0.166 A 
ATOM      7  C   LIG A   1      -7.793   3.130 133.663  0.00  0.00    +0.205 A 
ATOM      8  C   LIG A   1      -8.559   3.992 132.849  0.00  0.00    +0.187 A 
ATOM      9  O   LIG A   1      -8.875   5.237 133.346  0.00  0.00    -0.458 OA
ATOM     10  C   LIG A   1      -9.637   6.081 132.573  0.00  0.00    +0.208 A 
ATOM     11  C   LIG A   1     -10.134   5.847 131.345  0.00  0.00    +0.065 A 
ENDROOT
BRANCH  11  12
ATOM     12  C   LIG A   1     -10.943   6.867 130.619  0.00  0.00    -0.008 A 
ATOM     13  C   LIG A   1     -10.485   7.452 129.425  0.00  0.00    +0.058 A 
ATOM     14  C   LIG A   1     -11.248   8.405 128.726  0.00  0.00    +0.159 A 
ATOM     15  C   LIG A   1     -12.491   8.811 129.212  0.00  0.00    +0.161 A 
ATOM     16  C   LIG A   1     -12.963   8.228 130.390  0.00  0.00    +0.050 A 
ATOM     17  C   LIG A   1     -12.204   7.274 131.085  0.00  0.00    +0.012 A 
BRANCH  14  18
ATOM     18  O   LIG A   1     -10.753   8.904 127.553  0.00  0.00    -0.503 OA
ATOM     19  H   LIG A   1     -10.550   8.166 126.955  0.00  0.00    +0.292 HD
ENDBRANCH  14  18
BRANCH  15  20
ATOM     20  O   LIG A   1     -13.363   9.699 128.644  0.00  0.00    -0.491 OA
ATOM     21  C   LIG A   1     -13.695  10.852 129.408  0.00  0.00    +0.277 C 
ENDBRANCH  15  20
ENDBRANCH  11  12
BRANCH   4  22
ATOM     22  O   LIG A   1      -9.016   1.841 129.889  0.00  0.00    -0.506 OA
ATOM     23  H   LIG A   1      -9.236   2.614 129.320  0.00  0.00    +0.292 HD
ENDBRANCH   4  22
BRANCH   6  24
ATOM     24  O   LIG A   1      -6.690   0.991 133.896  0.00  0.00    -0.503 OA
ATOM     25  H   LIG A   1      -6.589   0.158 133.407  0.00  0.00    +0.292 HD
ENDBRANCH   6  24
BRANCH   7  26
ATOM     26  O   LIG A   1      -7.381   3.662 134.859  0.00  0.00    -0.488 OA
ATOM     27  C   LIG A   1      -6.048   4.156 134.928  0.00  0.00    +0.277 C 
ENDBRANCH   7  26
TORSDOF 6
ENDMDL
MODEL 4
REMARK VINA RESULT:      -6.7      1.600      7.931
REMARK  Name = NuBBE_2024
REMARK  8 active torsions:
REMARK  status: ('A' for Active; 'I' for Inactive)
REMARK    1  A    between atoms: C_4  and  O_5
REMARK    2  A    between atoms: C_7  and  O_8
REMARK    3  A    between atoms: C_9  and  O_10
REMARK    4  A    between atoms: O_10  and  C_11
REMARK    5  A    between atoms: C_15  and  C_16
REMARK    6  A    between atoms: C_18  and  O_19
REMARK    7  A    between atoms: C_20  and  O_21
REMARK    8  A    between atoms: O_21  and  C_22
REMARK                            x       y       z     vdW  Elec       q    Type
REMARK                         _______ _______ _______ _____ _____    ______ ____
ROOT
ATOM      1  O   LIG A   1      -9.346   4.949 129.083  0.00  0.00    -0.286 OA
ATOM      2  C   LIG A   1     -10.065   5.519 129.907  0.00  0.00    +0.204 A 
ATOM      3  C   LIG A   1     -10.854   6.682 129.466  0.00  0.00    +0.110 A 
ATOM      4  C   LIG A   1     -10.795   7.143 128.147  0.00  0.00    +0.135 A 
ATOM      5  C   LIG A   1     -11.541   8.246 127.749  0.00  0.00    +0.095 A 
ATOM      6  C   LIG A   1     -12.361   8.901 128.671  0.00  0.00    +0.166 A 
ATOM      7  C   LIG A   1     -12.436   8.457 130.001  0.00  0.00    +0.205 A 
ATOM      8  C   LIG A   1     -11.675   7.332 130.385  0.00  0.00    +0.187 A 
ATOM      9  O   LIG A   1     -11.762   6.909 131.692  0.00  0.00    -0.458 OA
ATOM     10  C   LIG A   1     -11.011   5.826 132.085  0.00  0.00    +0.208 A 
ATOM     11  C   LIG A   1     -10.171   5.092 131.334  0.00  0.00    +0.065 A 
ENDROOT
BRANCH  11  12
ATOM     12  C   LIG A   1      -9.424   3.931 131.899  0.00  0.00    -0.008 A 
ATOM     13  C   LIG A   1      -9.842   2.608 131.668  0.00  0.00    +0.058 A 
ATOM     14  C   LIG A   1      -9.135   1.508 132.186  0.00  0.00    +0.159 A 
ATOM     15  C   LIG A   1      -7.993   1.701 132.963  0.00  0.00    +0.161 A 
ATOM     16  C   LIG A   1      -7.561   3.010 133.188  0.00  0.00    +0.050 A 
ATOM     17  C   LIG A   1      -8.263   4.107 132.669  0.00  0.00    +0.012 A 
BRANCH  14  18
ATOM     18  O   LIG A   1      -9.581   0.249 131.890  0.00  0.00    -0.503 OA
ATOM     19  H   LIG A   1      -8.981  -0.157 131.243  0.00  0.00    +0.292 HD
ENDBRANCH  14  18
BRANCH  15  20
ATOM     20  O   LIG A   1      -7.183   0.746 133.514  0.00  0.00    -0.491 OA
ATOM     21  C   LIG A   1      -6.065   0.328 132.741  0.00  0.00    +0.277 C 
ENDBRANCH  15  20
ENDBRANCH  11  12
BRANCH   4  22
ATOM     22  O   LIG A   1     -10.024   6.554 127.180  0.00  0.00    -0.506 OA
ATOM     23  H   LIG A   1     -10.399   6.797 126.302  0.00  0.00    +0.292 HD
ENDBRANCH   4  22
BRANCH   6  24
ATOM     24  O   LIG A   1     -13.102   9.963 128.231  0.00  0.00    -0.503 OA
ATOM     25  H   LIG A   1     -12.563  10.510 127.635  0.00  0.00    +0.292 HD
ENDBRANCH   6  24
BRANCH   7  26
ATOM     26  O   LIG A   1     -13.249   8.977 130.977  0.00  0.00    -0.488 OA
ATOM     27  C   LIG A   1     -13.236  10.389 131.153  0.00  0.00    +0.277 C 
ENDBRANCH   7  26
TORSDOF 6
ENDMDL
MODEL 5
REMARK VINA RESULT:      -6.7      8.946     11.420
REMARK  Name = NuBBE_2024
REMARK  8 active torsions:
REMARK  status: ('A' for Active; 'I' for Inactive)
REMARK    1  A    between atoms: C_4  and  O_5
REMARK    2  A    between atoms: C_7  and  O_8
REMARK    3  A    between atoms: C_9  and  O_10
REMARK    4  A    between atoms: O_10  and  C_11
REMARK    5  A    between atoms: C_15  and  C_16
REMARK    6  A    between atoms: C_18  and  O_19
REMARK    7  A    between atoms: C_20  and  O_21
REMARK    8  A    between atoms: O_21  and  C_22
REMARK                            x       y       z     vdW  Elec       q    Type
REMARK                         _______ _______ _______ _____ _____    ______ ____
ROOT
ATOM      1  O   LIG A   1      -5.193  -1.526 128.686  0.00  0.00    -0.286 OA
ATOM      2  C   LIG A   1      -6.249  -2.007 128.267  0.00  0.00    +0.204 A 
ATOM      3  C   LIG A   1      -6.748  -1.568 126.952  0.00  0.00    +0.110 A 
ATOM      4  C   LIG A   1      -6.053  -0.625 126.188  0.00  0.00    +0.135 A 
ATOM      5  C   LIG A   1      -6.542  -0.217 124.953  0.00  0.00    +0.095 A 
ATOM      6  C   LIG A   1      -7.736  -0.753 124.465  0.00  0.00    +0.166 A 
ATOM      7  C   LIG A   1      -8.452  -1.701 125.214  0.00  0.00    +0.205 A 
ATOM      8  C   LIG A   1      -7.936  -2.106 126.464  0.00  0.00    +0.187 A 
ATOM      9  O   LIG A   1      -8.649  -3.037 127.185  0.00  0.00    -0.458 OA
ATOM     10  C   LIG A   1      -8.170  -3.428 128.413  0.00  0.00    +0.208 A 
ATOM     11  C   LIG A   1      -7.051  -3.008 129.030  0.00  0.00    +0.065 A 
ENDROOT
BRANCH  11  12
ATOM     12  C   LIG A   1      -6.651  -3.530 130.368  0.00  0.00    -0.008 A 
ATOM     13  C   LIG A   1      -7.173  -2.983 131.554  0.00  0.00    +0.058 A 
ATOM     14  C   LIG A   1      -6.811  -3.479 132.820  0.00  0.00    +0.159 A 
ATOM     15  C   LIG A   1      -5.904  -4.533 132.936  0.00  0.00    +0.161 A 
ATOM     16  C   LIG A   1      -5.390  -5.093 131.765  0.00  0.00    +0.050 A 
ATOM     17  C   LIG A   1      -5.753  -4.602 130.502  0.00  0.00    +0.012 A 
BRANCH  14  18
ATOM     18  O   LIG A   1      -7.387  -2.920 133.928  0.00  0.00    -0.503 OA
ATOM     19  H   LIG A   1      -8.323  -2.738 133.742  0.00  0.00    +0.292 HD
ENDBRANCH  14  18
BRANCH  15  20
ATOM     20  O   LIG A   1      -5.473  -5.144 134.081  0.00  0.00    -0.491 OA
ATOM     21  C   LIG A   1      -4.253  -5.870 134.002  0.00  0.00    +0.277 C 
ENDBRANCH  15  20
ENDBRANCH  11  12
BRANCH   4  22
ATOM     22  O   LIG A   1      -4.873  -0.056 126.589  0.00  0.00    -0.506 OA
ATOM     23  H   LIG A   1      -4.667   0.683 125.972  0.00  0.00    +0.292 HD
ENDBRANCH   4  22
BRANCH   6  24
ATOM     24  O   LIG A   1      -8.165  -0.347 123.231  0.00  0.00    -0.503 OA
ATOM     25  H   LIG A   1      -7.766   0.512 123.015  0.00  0.00    +0.292 HD
ENDBRANCH   6  24
BRANCH   7  26
ATOM     26  O   LIG A   1      -9.597  -2.342 124.814  0.00  0.00    -0.488 OA
ATOM     27  C   LIG A   1      -9.464  -3.359 123.828  0.00  0.00    +0.277 C 
ENDBRANCH   7  26
TORSDOF 6
ENDMDL
MODEL 6
REMARK VINA RESULT:      -6.7      2.810      3.852
REMARK  Name = NuBBE_2024
REMARK  8 active torsions:
REMARK  status: ('A' for Active; 'I' for Inactive)
REMARK    1  A    between atoms: C_4  and  O_5
REMARK    2  A    between atoms: C_7  and  O_8
REMARK    3  A    between atoms: C_9  and  O_10
REMARK    4  A    between atoms: O_10  and  C_11
REMARK    5  A    between atoms: C_15  and  C_16
REMARK    6  A    between atoms: C_18  and  O_19
REMARK    7  A    between atoms: C_20  and  O_21
REMARK    8  A    between atoms: O_21  and  C_22
REMARK                            x       y       z     vdW  Elec       q    Type
REMARK                         _______ _______ _______ _____ _____    ______ ____
ROOT
ATOM      1  O   LIG A   1      -6.940   7.501 130.590  0.00  0.00    -0.286 OA
ATOM      2  C   LIG A   1      -7.198   6.675 131.469  0.00  0.00    +0.204 A 
ATOM      3  C   LIG A   1      -6.086   6.123 132.263  0.00  0.00    +0.110 A 
ATOM      4  C   LIG A   1      -4.763   6.514 132.030  0.00  0.00    +0.135 A 
ATOM      5  C   LIG A   1      -3.725   5.978 132.783  0.00  0.00    +0.095 A 
ATOM      6  C   LIG A   1      -4.001   5.043 133.783  0.00  0.00    +0.166 A 
ATOM      7  C   LIG A   1      -5.321   4.634 134.034  0.00  0.00    +0.205 A 
ATOM      8  C   LIG A   1      -6.362   5.194 133.262  0.00  0.00    +0.187 A 
ATOM      9  O   LIG A   1      -7.650   4.784 133.522  0.00  0.00    -0.458 OA
ATOM     10  C   LIG A   1      -8.673   5.306 132.766  0.00  0.00    +0.208 A 
ATOM     11  C   LIG A   1      -8.582   6.202 131.766  0.00  0.00    +0.065 A 
ENDROOT
BRANCH  11  12
ATOM     12  C   LIG A   1      -9.788   6.686 131.035  0.00  0.00    -0.008 A 
ATOM     13  C   LIG A   1     -11.063   6.664 131.629  0.00  0.00    +0.058 A 
ATOM     14  C   LIG A   1     -12.204   7.132 130.952  0.00  0.00    +0.159 A 
ATOM     15  C   LIG A   1     -12.102   7.625 129.651  0.00  0.00    +0.161 A 
ATOM     16  C   LIG A   1     -10.840   7.664 129.055  0.00  0.00    +0.050 A 
ATOM     17  C   LIG A   1      -9.702   7.201 129.732  0.00  0.00    +0.012 A 
BRANCH  14  18
ATOM     18  O   LIG A   1     -13.404   7.113 131.607  0.00  0.00    -0.503 OA
ATOM     19  H   LIG A   1     -13.837   7.976 131.502  0.00  0.00    +0.292 HD
ENDBRANCH  14  18
BRANCH  15  20
ATOM     20  O   LIG A   1     -13.101   8.138 128.870  0.00  0.00    -0.491 OA
ATOM     21  C   LIG A   1     -13.242   9.553 128.854  0.00  0.00    +0.277 C 
ENDBRANCH  15  20
ENDBRANCH  11  12
BRANCH   4  22
ATOM     22  O   LIG A   1      -4.407   7.430 131.076  0.00  0.00    -0.506 OA
ATOM     23  H   LIG A   1      -4.542   7.016 130.193  0.00  0.00    +0.292 HD
ENDBRANCH   4  22
BRANCH   6  24
ATOM     24  O   LIG A   1      -2.954   4.564 134.521  0.00  0.00    -0.503 OA
ATOM     25  H   LIG A   1      -2.590   5.278 135.070  0.00  0.00    +0.292 HD
ENDBRANCH   6  24
BRANCH   7  26
ATOM     26  O   LIG A   1      -5.722   3.774 135.026  0.00  0.00    -0.488 OA
ATOM     27  C   LIG A   1      -5.612   2.380 134.763  0.00  0.00    +0.277 C 
ENDBRANCH   7  26
TORSDOF 6
ENDMDL
MODEL 7
REMARK VINA RESULT:      -6.7      2.040      7.798
REMARK  Name = NuBBE_2024
REMARK  8 active torsions:
REMARK  status: ('A' for Active; 'I' for Inactive)
REMARK    1  A    between atoms: C_4  and  O_5
REMARK    2  A    between atoms: C_7  and  O_8
REMARK    3  A    between atoms: C_9  and  O_10
REMARK    4  A    between atoms: O_10  and  C_11
REMARK    5  A    between atoms: C_15  and  C_16
REMARK    6  A    between atoms: C_18  and  O_19
REMARK    7  A    between atoms: C_20  and  O_21
REMARK    8  A    between atoms: O_21  and  C_22
REMARK                            x       y       z     vdW  Elec       q    Type
REMARK                         _______ _______ _______ _____ _____    ______ ____
ROOT
ATOM      1  O   LIG A   1     -10.318   4.248 131.836  0.00  0.00    -0.286 OA
ATOM      2  C   LIG A   1      -9.949   4.715 130.756  0.00  0.00    +0.204 A 
ATOM      3  C   LIG A   1     -10.613   5.929 130.250  0.00  0.00    +0.110 A 
ATOM      4  C   LIG A   1     -11.642   6.547 130.969  0.00  0.00    +0.135 A 
ATOM      5  C   LIG A   1     -12.262   7.689 130.475  0.00  0.00    +0.095 A 
ATOM      6  C   LIG A   1     -11.855   8.229 129.252  0.00  0.00    +0.166 A 
ATOM      7  C   LIG A   1     -10.824   7.625 128.513  0.00  0.00    +0.205 A 
ATOM      8  C   LIG A   1     -10.204   6.470 129.034  0.00  0.00    +0.187 A 
ATOM      9  O   LIG A   1      -9.194   5.892 128.299  0.00  0.00    -0.458 OA
ATOM     10  C   LIG A   1      -8.592   4.755 128.783  0.00  0.00    +0.208 A 
ATOM     11  C   LIG A   1      -8.867   4.104 129.929  0.00  0.00    +0.065 A 
ENDROOT
BRANCH  11  12
ATOM     12  C   LIG A   1      -8.121   2.878 130.331  0.00  0.00    -0.008 A 
ATOM     13  C   LIG A   1      -6.967   2.951 131.133  0.00  0.00    +0.058 A 
ATOM     14  C   LIG A   1      -6.266   1.798 131.529  0.00  0.00    +0.159 A 
ATOM     15  C   LIG A   1      -6.694   0.534 131.122  0.00  0.00    +0.161 A 
ATOM     16  C   LIG A   1      -7.845   0.447 130.338  0.00  0.00    +0.050 A 
ATOM     17  C   LIG A   1      -8.547   1.596 129.946  0.00  0.00    +0.012 A 
BRANCH  14  18
ATOM     18  O   LIG A   1      -5.173   1.946 132.339  0.00  0.00    -0.503 OA
ATOM     19  H   LIG A   1      -4.663   1.120 132.337  0.00  0.00    +0.292 HD
ENDBRANCH  14  18
BRANCH  15  20
ATOM     20  O   LIG A   1      -6.144  -0.678 131.441  0.00  0.00    -0.491 OA
ATOM     21  C   LIG A   1      -6.700  -1.362 132.556  0.00  0.00    +0.277 C 
ENDBRANCH  15  20
ENDBRANCH  11  12
BRANCH   4  22
ATOM     22  O   LIG A   1     -12.096   6.087 132.176  0.00  0.00    -0.506 OA
ATOM     23  H   LIG A   1     -11.477   5.389 132.488  0.00  0.00    +0.292 HD
ENDBRANCH   4  22
BRANCH   6  24
ATOM     24  O   LIG A   1     -12.470   9.370 128.818  0.00  0.00    -0.503 OA
ATOM     25  H   LIG A   1     -13.082   9.155 128.095  0.00  0.00    +0.292 HD
ENDBRANCH   6  24
BRANCH   7  26
ATOM     26  O   LIG A   1     -10.297   8.096 127.337  0.00  0.00    -0.488 OA
ATOM     27  C   LIG A   1     -10.994   7.781 126.138  0.00  0.00    +0.277 C 
ENDBRANCH   7  26
TORSDOF 6
ENDMDL
MODEL 8
REMARK VINA RESULT:      -6.6      7.498     11.554
REMARK  Name = NuBBE_2024
REMARK  8 active torsions:
REMARK  status: ('A' for Active; 'I' for Inactive)
REMARK    1  A    between atoms: C_4  and  O_5
REMARK    2  A    between atoms: C_7  and  O_8
REMARK    3  A    between atoms: C_9  and  O_10
REMARK    4  A    between atoms: O_10  and  C_11
REMARK    5  A    between atoms: C_15  and  C_16
REMARK    6  A    between atoms: C_18  and  O_19
REMARK    7  A    between atoms: C_20  and  O_21
REMARK    8  A    between atoms: O_21  and  C_22
REMARK                            x       y       z     vdW  Elec       q    Type
REMARK                         _______ _______ _______ _____ _____    ______ ____
ROOT
ATOM      1  O   LIG A   1      -7.507  -3.398 125.606  0.00  0.00    -0.286 OA
ATOM      2  C   LIG A   1      -7.707  -2.220 125.910  0.00  0.00    +0.204 A 
ATOM      3  C   LIG A   1      -8.401  -1.352 124.944  0.00  0.00    +0.110 A 
ATOM      4  C   LIG A   1      -8.826  -1.839 123.704  0.00  0.00    +0.135 A 
ATOM      5  C   LIG A   1      -9.474  -1.005 122.800  0.00  0.00    +0.095 A 
ATOM      6  C   LIG A   1      -9.707   0.332 123.131  0.00  0.00    +0.166 A 
ATOM      7  C   LIG A   1      -9.289   0.844 124.370  0.00  0.00    +0.205 A 
ATOM      8  C   LIG A   1      -8.638  -0.020 125.276  0.00  0.00    +0.187 A 
ATOM      9  O   LIG A   1      -8.236   0.497 126.487  0.00  0.00    -0.458 OA
ATOM     10  C   LIG A   1      -7.583  -0.328 127.372  0.00  0.00    +0.208 A 
ATOM     11  C   LIG A   1      -7.272  -1.626 127.209  0.00  0.00    +0.065 A 
ENDROOT
BRANCH  11  12
ATOM     12  C   LIG A   1      -6.563  -2.401 128.268  0.00  0.00    -0.008 A 
ATOM     13  C   LIG A   1      -5.159  -2.481 128.301  0.00  0.00    +0.058 A 
ATOM     14  C   LIG A   1      -4.482  -3.198 129.304  0.00  0.00    +0.159 A 
ATOM     15  C   LIG A   1      -5.194  -3.868 130.299  0.00  0.00    +0.161 A 
ATOM     16  C   LIG A   1      -6.587  -3.785 130.285  0.00  0.00    +0.050 A 
ATOM     17  C   LIG A   1      -7.263  -3.067 129.287  0.00  0.00    +0.012 A 
BRANCH  14  18
ATOM     18  O   LIG A   1      -3.114  -3.201 129.292  0.00  0.00    -0.503 OA
ATOM     19  H   LIG A   1      -2.788  -3.029 130.191  0.00  0.00    +0.292 HD
ENDBRANCH  14  18
BRANCH  15  20
ATOM     20  O   LIG A   1      -4.690  -4.581 131.353  0.00  0.00    -0.491 OA
ATOM     21  C   LIG A   1      -5.576  -4.843 132.434  0.00  0.00    +0.277 C 
ENDBRANCH  15  20
ENDBRANCH  11  12
BRANCH   4  22
ATOM     22  O   LIG A   1      -8.643  -3.137 123.304  0.00  0.00    -0.506 OA
ATOM     23  H   LIG A   1      -9.505  -3.606 123.389  0.00  0.00    +0.292 HD
ENDBRANCH   4  22
BRANCH   6  24
ATOM     24  O   LIG A   1     -10.376   1.110 122.226  0.00  0.00    -0.503 OA
ATOM     25  H   LIG A   1     -10.785   0.544 121.551  0.00  0.00    +0.292 HD
ENDBRANCH   6  24
BRANCH   7  26
ATOM     26  O   LIG A   1      -9.517   2.116 124.832  0.00  0.00    -0.488 OA
ATOM     27  C   LIG A   1      -8.583   3.122 124.458  0.00  0.00    +0.277 C 
ENDBRANCH   7  26
TORSDOF 6
ENDMDL
MODEL 9
REMARK VINA RESULT:      -6.4      7.376      8.928
REMARK  Name = NuBBE_2024
REMARK  8 active torsions:
REMARK  status: ('A' for Active; 'I' for Inactive)
REMARK    1  A    between atoms: C_4  and  O_5
REMARK    2  A    between atoms: C_7  and  O_8
REMARK    3  A    between atoms: C_9  and  O_10
REMARK    4  A    between atoms: O_10  and  C_11
REMARK    5  A    between atoms: C_15  and  C_16
REMARK    6  A    between atoms: C_18  and  O_19
REMARK    7  A    between atoms: C_20  and  O_21
REMARK    8  A    between atoms: O_21  and  C_22
REMARK                            x       y       z     vdW  Elec       q    Type
REMARK                         _______ _______ _______ _____ _____    ______ ____
ROOT
ATOM      1  O   LIG A   1      -5.525  -0.059 128.547  0.00  0.00    -0.286 OA
ATOM      2  C   LIG A   1      -6.139   0.294 127.537  0.00  0.00    +0.204 A 
ATOM      3  C   LIG A   1      -7.169  -0.606 126.990  0.00  0.00    +0.110 A 
ATOM      4  C   LIG A   1      -7.452  -1.837 127.591  0.00  0.00    +0.135 A 
ATOM      5  C   LIG A   1      -8.423  -2.677 127.058  0.00  0.00    +0.095 A 
ATOM      6  C   LIG A   1      -9.126  -2.290 125.915  0.00  0.00    +0.166 A 
ATOM      7  C   LIG A   1      -8.859  -1.059 125.294  0.00  0.00    +0.205 A 
ATOM      8  C   LIG A   1      -7.873  -0.218 125.853  0.00  0.00    +0.187 A 
ATOM      9  O   LIG A   1      -7.626   0.986 125.234  0.00  0.00    -0.458 OA
ATOM     10  C   LIG A   1      -6.655   1.808 125.755  0.00  0.00    +0.208 A 
ATOM     11  C   LIG A   1      -5.884   1.587 126.835  0.00  0.00    +0.065 A 
ENDROOT
BRANCH  11  12
ATOM     12  C   LIG A   1      -4.869   2.580 127.291  0.00  0.00    -0.008 A 
ATOM     13  C   LIG A   1      -3.604   2.668 126.683  0.00  0.00    +0.058 A 
ATOM     14  C   LIG A   1      -2.647   3.611 127.097  0.00  0.00    +0.159 A 
ATOM     15  C   LIG A   1      -2.925   4.490 128.145  0.00  0.00    +0.161 A 
ATOM     16  C   LIG A   1      -4.183   4.422 128.747  0.00  0.00    +0.050 A 
ATOM     17  C   LIG A   1      -5.139   3.484 128.332  0.00  0.00    +0.012 A 
BRANCH  14  18
ATOM     18  O   LIG A   1      -1.451   3.661 126.434  0.00  0.00    -0.503 OA
ATOM     19  H   LIG A   1      -1.390   4.502 125.953  0.00  0.00    +0.292 HD
ENDBRANCH  14  18
BRANCH  15  20
ATOM     20  O   LIG A   1      -2.121   5.476 128.646  0.00  0.00    -0.491 OA
ATOM     21  C   LIG A   1      -2.308   6.786 128.125  0.00  0.00    +0.277 C 
ENDBRANCH  15  20
ENDBRANCH  11  12
BRANCH   4  22
ATOM     22  O   LIG A   1      -6.814  -2.288 128.716  0.00  0.00    -0.506 OA
ATOM     23  H   LIG A   1      -7.259  -3.117 129.006  0.00  0.00    +0.292 HD
ENDBRANCH   4  22
BRANCH   6  24
ATOM     24  O   LIG A   1     -10.095  -3.133 125.442  0.00  0.00    -0.503 OA
ATOM     25  H   LIG A   1     -10.635  -3.455 126.182  0.00  0.00    +0.292 HD
ENDBRANCH   6  24
BRANCH   7  26
ATOM     26  O   LIG A   1      -9.525  -0.545 124.210  0.00  0.00    -0.488 OA
ATOM     27  C   LIG A   1      -9.175  -1.054 122.928  0.00  0.00    +0.277 C 
ENDBRANCH   7  26
TORSDOF 6
ENDMDL
