MODEL 1
REMARK VINA RESULT:      -6.4      0.000      0.000
REMARK  Name = NuBBE_2337
REMARK  4 active torsions:
REMARK  status: ('A' for Active; 'I' for Inactive)
REMARK    1  A    between atoms: C_1  and  C_2
REMARK    2  A    between atoms: C_8  and  C_10
REMARK    3  A    between atoms: C_15  and  C_16
REMARK    4  A    between atoms: C_15  and  C_17
REMARK                            x       y       z     vdW  Elec       q    Type
REMARK                         _______ _______ _______ _____ _____    ______ ____
ROOT
ATOM      1  C   LIG A   1      -4.877  -2.544 126.414  0.00  0.00    +0.012 C 
ATOM      2  C   LIG A   1      -5.375  -1.783 125.188  0.00  0.00    +0.012 C 
ATOM      3  C   LIG A   1      -4.808  -2.398 123.896  0.00  0.00    +0.012 C 
ATOM      4  C   LIG A   1      -5.987  -2.698 122.974  0.00  0.00    +0.031 C 
ATOM      5  C   LIG A   1      -6.866  -1.840 124.986  0.00  0.00    -0.063 C 
ATOM      6  C   LIG A   1      -7.189  -2.312 123.775  0.00  0.00    -0.067 C 
ATOM      7  C   LIG A   1      -8.568  -2.564 123.232  0.00  0.00    +0.012 C 
ATOM      8  C   LIG A   1      -9.310  -1.271 122.877  0.00  0.00    +0.012 C 
ATOM      9  C   LIG A   1      -9.371  -3.482 124.173  0.00  0.00    +0.012 C 
ATOM     10  C   LIG A   1      -9.836  -2.861 125.496  0.00  0.00    +0.031 C 
ATOM     11  C   LIG A   1      -8.741  -2.531 126.508  0.00  0.00    -0.067 C 
ATOM     12  C   LIG A   1      -7.834  -1.394 126.048  0.00  0.00    +0.061 C 
ATOM     13  C   LIG A   1      -8.635  -3.139 127.719  0.00  0.00    -0.076 C 
ATOM     14  C   LIG A   1      -7.681  -2.721 128.816  0.00  0.00    +0.038 C 
ATOM     15  C   LIG A   1      -9.456  -4.333 128.159  0.00  0.00    +0.038 C 
ENDROOT
TORSDOF 0
ENDMDL
MODEL 2
REMARK VINA RESULT:      -6.4      1.813      2.175
REMARK  Name = NuBBE_2337
REMARK  4 active torsions:
REMARK  status: ('A' for Active; 'I' for Inactive)
REMARK    1  A    between atoms: C_1  and  C_2
REMARK    2  A    between atoms: C_8  and  C_10
REMARK    3  A    between atoms: C_15  and  C_16
REMARK    4  A    between atoms: C_15  and  C_17
REMARK                            x       y       z     vdW  Elec       q    Type
REMARK                         _______ _______ _______ _____ _____    ______ ____
ROOT
ATOM      1  C   LIG A   1      -6.541   0.994 125.685  0.00  0.00    +0.012 C 
ATOM      2  C   LIG A   1      -7.447   0.516 124.555  0.00  0.00    +0.012 C 
ATOM      3  C   LIG A   1      -6.639   0.294 123.263  0.00  0.00    +0.012 C 
ATOM      4  C   LIG A   1      -6.928  -1.124 122.779  0.00  0.00    +0.031 C 
ATOM      5  C   LIG A   1      -8.096  -0.821 124.804  0.00  0.00    -0.063 C 
ATOM      6  C   LIG A   1      -7.831  -1.694 123.825  0.00  0.00    -0.067 C 
ATOM      7  C   LIG A   1      -8.255  -3.135 123.748  0.00  0.00    +0.012 C 
ATOM      8  C   LIG A   1      -9.745  -3.298 123.431  0.00  0.00    +0.012 C 
ATOM      9  C   LIG A   1      -7.819  -3.905 125.009  0.00  0.00    +0.012 C 
ATOM     10  C   LIG A   1      -8.584  -3.586 126.300  0.00  0.00    +0.031 C 
ATOM     11  C   LIG A   1      -8.362  -2.195 126.890  0.00  0.00    -0.067 C 
ATOM     12  C   LIG A   1      -8.942  -1.084 126.020  0.00  0.00    +0.061 C 
ATOM     13  C   LIG A   1      -7.773  -1.980 128.096  0.00  0.00    -0.076 C 
ATOM     14  C   LIG A   1      -7.695  -0.640 128.794  0.00  0.00    +0.038 C 
ATOM     15  C   LIG A   1      -7.102  -3.051 128.930  0.00  0.00    +0.038 C 
ENDROOT
TORSDOF 0
ENDMDL
MODEL 3
REMARK VINA RESULT:      -6.2      1.680      4.292
REMARK  Name = NuBBE_2337
REMARK  4 active torsions:
REMARK  status: ('A' for Active; 'I' for Inactive)
REMARK    1  A    between atoms: C_1  and  C_2
REMARK    2  A    between atoms: C_8  and  C_10
REMARK    3  A    between atoms: C_15  and  C_16
REMARK    4  A    between atoms: C_15  and  C_17
REMARK                            x       y       z     vdW  Elec       q    Type
REMARK                         _______ _______ _______ _____ _____    ______ ____
ROOT
ATOM      1  C   LIG A   1      -8.327   0.707 127.250  0.00  0.00    +0.012 C 
ATOM      2  C   LIG A   1      -7.417  -0.514 127.165  0.00  0.00    +0.012 C 
ATOM      3  C   LIG A   1      -7.857  -1.596 128.168  0.00  0.00    +0.012 C 
ATOM      4  C   LIG A   1      -8.040  -2.897 127.390  0.00  0.00    +0.031 C 
ATOM      5  C   LIG A   1      -7.453  -1.224 125.836  0.00  0.00    -0.063 C 
ATOM      6  C   LIG A   1      -7.766  -2.519 125.970  0.00  0.00    -0.067 C 
ATOM      7  C   LIG A   1      -7.951  -3.531 124.874  0.00  0.00    +0.012 C 
ATOM      8  C   LIG A   1      -6.626  -3.962 124.235  0.00  0.00    +0.012 C 
ATOM      9  C   LIG A   1      -8.987  -3.042 123.843  0.00  0.00    +0.012 C 
ATOM     10  C   LIG A   1      -8.544  -1.896 122.924  0.00  0.00    +0.031 C 
ATOM     11  C   LIG A   1      -8.343  -0.536 123.590  0.00  0.00    -0.067 C 
ATOM     12  C   LIG A   1      -7.152  -0.515 124.544  0.00  0.00    +0.061 C 
ATOM     13  C   LIG A   1      -9.102   0.555 123.306  0.00  0.00    -0.076 C 
ATOM     14  C   LIG A   1      -8.825   1.955 123.806  0.00  0.00    +0.038 C 
ATOM     15  C   LIG A   1     -10.346   0.538 122.443  0.00  0.00    +0.038 C 
ENDROOT
TORSDOF 0
ENDMDL
MODEL 4
REMARK VINA RESULT:      -6.1      1.850      4.176
REMARK  Name = NuBBE_2337
REMARK  4 active torsions:
REMARK  status: ('A' for Active; 'I' for Inactive)
REMARK    1  A    between atoms: C_1  and  C_2
REMARK    2  A    between atoms: C_8  and  C_10
REMARK    3  A    between atoms: C_15  and  C_16
REMARK    4  A    between atoms: C_15  and  C_17
REMARK                            x       y       z     vdW  Elec       q    Type
REMARK                         _______ _______ _______ _____ _____    ______ ____
ROOT
ATOM      1  C   LIG A   1      -6.022  -1.101 129.064  0.00  0.00    +0.012 C 
ATOM      2  C   LIG A   1      -6.385  -2.453 128.456  0.00  0.00    +0.012 C 
ATOM      3  C   LIG A   1      -7.594  -3.071 129.181  0.00  0.00    +0.012 C 
ATOM      4  C   LIG A   1      -8.637  -3.416 128.121  0.00  0.00    +0.031 C 
ATOM      5  C   LIG A   1      -6.825  -2.389 127.018  0.00  0.00    -0.063 C 
ATOM      6  C   LIG A   1      -8.034  -2.936 126.840  0.00  0.00    -0.067 C 
ATOM      7  C   LIG A   1      -8.825  -3.008 125.563  0.00  0.00    +0.012 C 
ATOM      8  C   LIG A   1      -8.263  -4.038 124.577  0.00  0.00    +0.012 C 
ATOM      9  C   LIG A   1      -8.997  -1.609 124.942  0.00  0.00    +0.012 C 
ATOM     10  C   LIG A   1      -7.744  -0.984 124.315  0.00  0.00    +0.031 C 
ATOM     11  C   LIG A   1      -6.634  -0.582 125.283  0.00  0.00    -0.067 C 
ATOM     12  C   LIG A   1      -5.963  -1.782 125.944  0.00  0.00    +0.061 C 
ATOM     13  C   LIG A   1      -6.240   0.705 125.476  0.00  0.00    -0.076 C 
ATOM     14  C   LIG A   1      -5.034   1.128 126.285  0.00  0.00    +0.038 C 
ATOM     15  C   LIG A   1      -6.951   1.917 124.912  0.00  0.00    +0.038 C 
ENDROOT
TORSDOF 0
ENDMDL
MODEL 5
REMARK VINA RESULT:      -5.9      1.989      3.533
REMARK  Name = NuBBE_2337
REMARK  4 active torsions:
REMARK  status: ('A' for Active; 'I' for Inactive)
REMARK    1  A    between atoms: C_1  and  C_2
REMARK    2  A    between atoms: C_8  and  C_10
REMARK    3  A    between atoms: C_15  and  C_16
REMARK    4  A    between atoms: C_15  and  C_17
REMARK                            x       y       z     vdW  Elec       q    Type
REMARK                         _______ _______ _______ _____ _____    ______ ____
ROOT
ATOM      1  C   LIG A   1      -8.779   1.338 127.210  0.00  0.00    +0.012 C 
ATOM      2  C   LIG A   1      -9.306   0.906 125.845  0.00  0.00    +0.012 C 
ATOM      3  C   LIG A   1      -9.020   1.982 124.782  0.00  0.00    +0.012 C 
ATOM      4  C   LIG A   1      -8.290   1.302 123.625  0.00  0.00    +0.031 C 
ATOM      5  C   LIG A   1      -8.647  -0.329 125.289  0.00  0.00    -0.063 C 
ATOM      6  C   LIG A   1      -8.123  -0.113 124.076  0.00  0.00    -0.067 C 
ATOM      7  C   LIG A   1      -7.343  -1.083 123.233  0.00  0.00    +0.012 C 
ATOM      8  C   LIG A   1      -8.227  -2.169 122.609  0.00  0.00    +0.012 C 
ATOM      9  C   LIG A   1      -6.147  -1.656 124.016  0.00  0.00    +0.012 C 
ATOM     10  C   LIG A   1      -6.479  -2.653 125.134  0.00  0.00    +0.031 C 
ATOM     11  C   LIG A   1      -7.199  -2.083 126.354  0.00  0.00    -0.067 C 
ATOM     12  C   LIG A   1      -8.622  -1.630 126.044  0.00  0.00    +0.061 C 
ATOM     13  C   LIG A   1      -6.650  -2.052 127.598  0.00  0.00    -0.076 C 
ATOM     14  C   LIG A   1      -7.389  -1.664 128.859  0.00  0.00    +0.038 C 
ATOM     15  C   LIG A   1      -5.211  -2.401 127.914  0.00  0.00    +0.038 C 
ENDROOT
TORSDOF 0
ENDMDL
MODEL 6
REMARK VINA RESULT:      -5.9      1.446      4.203
REMARK  Name = NuBBE_2337
REMARK  4 active torsions:
REMARK  status: ('A' for Active; 'I' for Inactive)
REMARK    1  A    between atoms: C_1  and  C_2
REMARK    2  A    between atoms: C_8  and  C_10
REMARK    3  A    between atoms: C_15  and  C_16
REMARK    4  A    between atoms: C_15  and  C_17
REMARK                            x       y       z     vdW  Elec       q    Type
REMARK                         _______ _______ _______ _____ _____    ______ ____
ROOT
ATOM      1  C   LIG A   1      -5.328   0.047 125.808  0.00  0.00    +0.012 C 
ATOM      2  C   LIG A   1      -5.583  -0.910 126.968  0.00  0.00    +0.012 C 
ATOM      3  C   LIG A   1      -6.220  -0.169 128.158  0.00  0.00    +0.012 C 
ATOM      4  C   LIG A   1      -7.492  -0.922 128.540  0.00  0.00    +0.031 C 
ATOM      5  C   LIG A   1      -6.569  -2.007 126.662  0.00  0.00    -0.063 C 
ATOM      6  C   LIG A   1      -7.585  -2.023 127.533  0.00  0.00    -0.067 C 
ATOM      7  C   LIG A   1      -8.784  -2.930 127.521  0.00  0.00    +0.012 C 
ATOM      8  C   LIG A   1      -8.448  -4.361 127.954  0.00  0.00    +0.012 C 
ATOM      9  C   LIG A   1      -9.509  -2.866 126.162  0.00  0.00    +0.012 C 
ATOM     10  C   LIG A   1      -8.796  -3.532 124.979  0.00  0.00    +0.031 C 
ATOM     11  C   LIG A   1      -7.514  -2.857 124.496  0.00  0.00    -0.067 C 
ATOM     12  C   LIG A   1      -6.377  -2.954 125.509  0.00  0.00    +0.061 C 
ATOM     13  C   LIG A   1      -7.383  -2.295 123.265  0.00  0.00    -0.076 C 
ATOM     14  C   LIG A   1      -6.087  -1.778 122.684  0.00  0.00    +0.038 C 
ATOM     15  C   LIG A   1      -8.519  -2.097 122.283  0.00  0.00    +0.038 C 
ENDROOT
TORSDOF 0
ENDMDL
MODEL 7
REMARK VINA RESULT:      -5.8      2.201      4.871
REMARK  Name = NuBBE_2337
REMARK  4 active torsions:
REMARK  status: ('A' for Active; 'I' for Inactive)
REMARK    1  A    between atoms: C_1  and  C_2
REMARK    2  A    between atoms: C_8  and  C_10
REMARK    3  A    between atoms: C_15  and  C_16
REMARK    4  A    between atoms: C_15  and  C_17
REMARK                            x       y       z     vdW  Elec       q    Type
REMARK                         _______ _______ _______ _____ _____    ______ ____
ROOT
ATOM      1  C   LIG A   1      -8.785  -2.617 122.970  0.00  0.00    +0.012 C 
ATOM      2  C   LIG A   1      -8.248  -2.778 124.388  0.00  0.00    +0.012 C 
ATOM      3  C   LIG A   1      -6.896  -3.514 124.381  0.00  0.00    +0.012 C 
ATOM      4  C   LIG A   1      -5.898  -2.652 125.149  0.00  0.00    +0.031 C 
ATOM      5  C   LIG A   1      -7.942  -1.479 125.087  0.00  0.00    -0.063 C 
ATOM      6  C   LIG A   1      -6.675  -1.429 125.519  0.00  0.00    -0.067 C 
ATOM      7  C   LIG A   1      -5.990  -0.282 126.206  0.00  0.00    +0.012 C 
ATOM      8  C   LIG A   1      -6.445  -0.104 127.659  0.00  0.00    +0.012 C 
ATOM      9  C   LIG A   1      -6.109   1.010 125.374  0.00  0.00    +0.012 C 
ATOM     10  C   LIG A   1      -7.496   1.663 125.327  0.00  0.00    +0.031 C 
ATOM     11  C   LIG A   1      -8.578   0.896 124.569  0.00  0.00    -0.067 C 
ATOM     12  C   LIG A   1      -8.979  -0.403 125.262  0.00  0.00    +0.061 C 
ATOM     13  C   LIG A   1      -9.168   1.360 123.435  0.00  0.00    -0.076 C 
ATOM     14  C   LIG A   1     -10.359   0.721 122.757  0.00  0.00    +0.038 C 
ATOM     15  C   LIG A   1      -8.722   2.591 122.674  0.00  0.00    +0.038 C 
ENDROOT
TORSDOF 0
ENDMDL
MODEL 8
REMARK VINA RESULT:      -5.7      2.106      5.328
REMARK  Name = NuBBE_2337
REMARK  4 active torsions:
REMARK  status: ('A' for Active; 'I' for Inactive)
REMARK    1  A    between atoms: C_1  and  C_2
REMARK    2  A    between atoms: C_8  and  C_10
REMARK    3  A    between atoms: C_15  and  C_16
REMARK    4  A    between atoms: C_15  and  C_17
REMARK                            x       y       z     vdW  Elec       q    Type
REMARK                         _______ _______ _______ _____ _____    ______ ____
ROOT
ATOM      1  C   LIG A   1      -8.363   1.283 127.751  0.00  0.00    +0.012 C 
ATOM      2  C   LIG A   1      -7.549   0.618 128.857  0.00  0.00    +0.012 C 
ATOM      3  C   LIG A   1      -8.232   0.800 130.224  0.00  0.00    +0.012 C 
ATOM      4  C   LIG A   1      -8.385  -0.584 130.850  0.00  0.00    +0.031 C 
ATOM      5  C   LIG A   1      -7.421  -0.877 128.718  0.00  0.00    -0.063 C 
ATOM      6  C   LIG A   1      -7.851  -1.518 129.812  0.00  0.00    -0.067 C 
ATOM      7  C   LIG A   1      -7.932  -3.004 130.026  0.00  0.00    +0.012 C 
ATOM      8  C   LIG A   1      -6.558  -3.647 130.243  0.00  0.00    +0.012 C 
ATOM      9  C   LIG A   1      -8.742  -3.679 128.902  0.00  0.00    +0.012 C 
ATOM     10  C   LIG A   1      -8.066  -3.756 127.528  0.00  0.00    +0.031 C 
ATOM     11  C   LIG A   1      -7.872  -2.430 126.796  0.00  0.00    -0.067 C 
ATOM     12  C   LIG A   1      -6.857  -1.519 127.481  0.00  0.00    +0.061 C 
ATOM     13  C   LIG A   1      -8.487  -2.127 125.622  0.00  0.00    -0.076 C 
ATOM     14  C   LIG A   1      -8.188  -0.907 124.779  0.00  0.00    +0.038 C 
ATOM     15  C   LIG A   1      -9.569  -2.965 124.975  0.00  0.00    +0.038 C 
ENDROOT
TORSDOF 0
ENDMDL
MODEL 9
REMARK VINA RESULT:      -5.7      2.351      4.963
REMARK  Name = NuBBE_2337
REMARK  4 active torsions:
REMARK  status: ('A' for Active; 'I' for Inactive)
REMARK    1  A    between atoms: C_1  and  C_2
REMARK    2  A    between atoms: C_8  and  C_10
REMARK    3  A    between atoms: C_15  and  C_16
REMARK    4  A    between atoms: C_15  and  C_17
REMARK                            x       y       z     vdW  Elec       q    Type
REMARK                         _______ _______ _______ _____ _____    ______ ____
ROOT
ATOM      1  C   LIG A   1      -9.401  -1.064 122.829  0.00  0.00    +0.012 C 
ATOM      2  C   LIG A   1      -9.134  -1.930 124.056  0.00  0.00    +0.012 C 
ATOM      3  C   LIG A   1      -8.462  -3.256 123.653  0.00  0.00    +0.012 C 
ATOM      4  C   LIG A   1      -7.192  -3.400 124.487  0.00  0.00    +0.031 C 
ATOM      5  C   LIG A   1      -8.168  -1.327 125.042  0.00  0.00    -0.063 C 
ATOM      6  C   LIG A   1      -7.134  -2.140 125.290  0.00  0.00    -0.067 C 
ATOM      7  C   LIG A   1      -5.947  -1.865 126.171  0.00  0.00    +0.012 C 
ATOM      8  C   LIG A   1      -6.292  -1.921 127.663  0.00  0.00    +0.012 C 
ATOM      9  C   LIG A   1      -5.251  -0.553 125.762  0.00  0.00    +0.012 C 
ATOM     10  C   LIG A   1      -5.996   0.746 126.094  0.00  0.00    +0.031 C 
ATOM     11  C   LIG A   1      -7.279   1.007 125.308  0.00  0.00    -0.067 C 
ATOM     12  C   LIG A   1      -8.396   0.027 125.657  0.00  0.00    +0.061 C 
ATOM     13  C   LIG A   1      -7.430   2.047 124.445  0.00  0.00    -0.076 C 
ATOM     14  C   LIG A   1      -8.732   2.443 123.787  0.00  0.00    +0.038 C 
ATOM     15  C   LIG A   1      -6.312   2.971 124.008  0.00  0.00    +0.038 C 
ENDROOT
TORSDOF 0
ENDMDL
