MODEL 1
REMARK VINA RESULT:      -7.3      0.000      0.000
REMARK  Name = NuBBE_2419
REMARK  5 active torsions:
REMARK  status: ('A' for Active; 'I' for Inactive)
REMARK    1  A    between atoms: O_1  and  C_2
REMARK    2  A    between atoms: O_1  and  C_3
REMARK    3  A    between atoms: N_17  and  C_18
REMARK    4  A    between atoms: C_23  and  O_24
REMARK    5  A    between atoms: O_24  and  C_25
REMARK                            x       y       z     vdW  Elec       q    Type
REMARK                         _______ _______ _______ _____ _____    ______ ____
ROOT
ATOM      1  C   LIG A   1      -8.071   0.182 124.733  0.00  0.00    +0.170 A 
ATOM      2  C   LIG A   1      -7.155   1.247 125.067  0.00  0.00    +0.037 A 
ATOM      3  C   LIG A   1      -6.837   1.385 126.456  0.00  0.00    +0.011 A 
ATOM      4  C   LIG A   1      -5.977   2.422 126.925  0.00  0.00    +0.038 A 
ATOM      5  C   LIG A   1      -5.547   3.384 126.010  0.00  0.00    +0.032 A 
ATOM      6  C   LIG A   1      -5.814   3.299 124.649  0.00  0.00    -0.012 A 
ATOM      7  C   LIG A   1      -6.568   2.201 124.130  0.00  0.00    -0.003 A 
ATOM      8  C   LIG A   1      -6.696   2.168 122.713  0.00  0.00    +0.058 A 
ATOM      9  C   LIG A   1      -6.187   3.183 121.925  0.00  0.00    +0.167 A 
ATOM     10  C   LIG A   1      -5.521   4.241 122.469  0.00  0.00    +0.167 A 
ATOM     11  C   LIG A   1      -5.310   4.319 123.820  0.00  0.00    +0.058 A 
ATOM     12  O   LIG A   1      -5.108   5.139 121.539  0.00  0.00    -0.453 OA
ATOM     13  C   LIG A   1      -5.605   4.521 120.334  0.00  0.00    +0.466 C 
ATOM     14  O   LIG A   1      -6.278   3.267 120.571  0.00  0.00    -0.453 OA
ATOM     15  N   LIG A   1      -5.617   2.512 128.295  0.00  0.00    -0.332 N 
ATOM     16  C   LIG A   1      -4.548   3.420 128.699  0.00  0.00    +0.129 C 
ATOM     17  C   LIG A   1      -5.617   1.208 128.965  0.00  0.00    +0.109 C 
ATOM     18  C   LIG A   1      -6.994   0.571 128.850  0.00  0.00    +0.055 C 
ATOM     19  C   LIG A   1      -7.390   0.479 127.396  0.00  0.00    -0.033 A 
ATOM     20  C   LIG A   1      -8.331  -0.487 127.031  0.00  0.00    +0.053 A 
ATOM     21  C   LIG A   1      -8.692  -0.631 125.703  0.00  0.00    +0.162 A 
ENDROOT
BRANCH   1  22
ATOM     22  O   LIG A   1      -8.300  -0.125 123.407  0.00  0.00    -0.491 OA
ATOM     23  C   LIG A   1      -7.519  -1.235 122.964  0.00  0.00    +0.277 C 
ENDBRANCH   1  22
BRANCH  21  24
ATOM     24  O   LIG A   1      -9.596  -1.576 125.280  0.00  0.00    -0.491 OA
ATOM     25  C   LIG A   1      -9.422  -2.877 125.841  0.00  0.00    +0.277 C 
ENDBRANCH  21  24
TORSDOF 2
ENDMDL
MODEL 2
REMARK VINA RESULT:      -7.2      1.454      5.405
REMARK  Name = NuBBE_2419
REMARK  5 active torsions:
REMARK  status: ('A' for Active; 'I' for Inactive)
REMARK    1  A    between atoms: O_1  and  C_2
REMARK    2  A    between atoms: O_1  and  C_3
REMARK    3  A    between atoms: N_17  and  C_18
REMARK    4  A    between atoms: C_23  and  O_24
REMARK    5  A    between atoms: O_24  and  C_25
REMARK                            x       y       z     vdW  Elec       q    Type
REMARK                         _______ _______ _______ _____ _____    ______ ____
ROOT
ATOM      1  C   LIG A   1      -6.649   2.531 123.428  0.00  0.00    +0.170 A 
ATOM      2  C   LIG A   1      -6.546   1.688 124.595  0.00  0.00    +0.037 A 
ATOM      3  C   LIG A   1      -5.714   2.181 125.650  0.00  0.00    +0.011 A 
ATOM      4  C   LIG A   1      -5.494   1.427 126.841  0.00  0.00    +0.038 A 
ATOM      5  C   LIG A   1      -6.012   0.132 126.906  0.00  0.00    +0.032 A 
ATOM      6  C   LIG A   1      -6.835  -0.397 125.919  0.00  0.00    -0.012 A 
ATOM      7  C   LIG A   1      -7.176   0.382 124.771  0.00  0.00    -0.003 A 
ATOM      8  C   LIG A   1      -8.101  -0.227 123.876  0.00  0.00    +0.058 A 
ATOM      9  C   LIG A   1      -8.556  -1.515 124.086  0.00  0.00    +0.167 A 
ATOM     10  C   LIG A   1      -8.160  -2.243 125.168  0.00  0.00    +0.167 A 
ATOM     11  C   LIG A   1      -7.314  -1.708 126.103  0.00  0.00    +0.058 A 
ATOM     12  O   LIG A   1      -8.702  -3.487 125.195  0.00  0.00    -0.453 OA
ATOM     13  C   LIG A   1      -9.488  -3.459 123.986  0.00  0.00    +0.466 C 
ATOM     14  O   LIG A   1      -9.413  -2.201 123.284  0.00  0.00    -0.453 OA
ATOM     15  N   LIG A   1      -4.719   1.952 127.908  0.00  0.00    -0.332 N 
ATOM     16  C   LIG A   1      -4.721   1.272 129.200  0.00  0.00    +0.129 C 
ATOM     17  C   LIG A   1      -4.765   3.416 127.972  0.00  0.00    +0.109 C 
ATOM     18  C   LIG A   1      -4.270   4.003 126.659  0.00  0.00    +0.055 C 
ATOM     19  C   LIG A   1      -5.083   3.444 125.516  0.00  0.00    -0.033 A 
ATOM     20  C   LIG A   1      -5.154   4.186 124.335  0.00  0.00    +0.053 A 
ATOM     21  C   LIG A   1      -5.921   3.729 123.277  0.00  0.00    +0.162 A 
ENDROOT
BRANCH   1  22
ATOM     22  O   LIG A   1      -7.558   2.213 122.439  0.00  0.00    -0.491 OA
ATOM     23  C   LIG A   1      -8.799   2.898 122.600  0.00  0.00    +0.277 C 
ENDBRANCH   1  22
BRANCH  21  24
ATOM     24  O   LIG A   1      -6.045   4.424 122.099  0.00  0.00    -0.491 OA
ATOM     25  C   LIG A   1      -5.042   4.149 121.121  0.00  0.00    +0.277 C 
ENDBRANCH  21  24
TORSDOF 2
ENDMDL
MODEL 3
REMARK VINA RESULT:      -7.1      2.911      4.309
REMARK  Name = NuBBE_2419
REMARK  5 active torsions:
REMARK  status: ('A' for Active; 'I' for Inactive)
REMARK    1  A    between atoms: O_1  and  C_2
REMARK    2  A    between atoms: O_1  and  C_3
REMARK    3  A    between atoms: N_17  and  C_18
REMARK    4  A    between atoms: C_23  and  O_24
REMARK    5  A    between atoms: O_24  and  C_25
REMARK                            x       y       z     vdW  Elec       q    Type
REMARK                         _______ _______ _______ _____ _____    ______ ____
ROOT
ATOM      1  C   LIG A   1      -7.776  -0.887 125.501  0.00  0.00    +0.170 A 
ATOM      2  C   LIG A   1      -7.048  -0.683 126.730  0.00  0.00    +0.037 A 
ATOM      3  C   LIG A   1      -7.333  -1.608 127.785  0.00  0.00    +0.011 A 
ATOM      4  C   LIG A   1      -6.712  -1.494 129.064  0.00  0.00    +0.038 A 
ATOM      5  C   LIG A   1      -5.908  -0.379 129.309  0.00  0.00    +0.032 A 
ATOM      6  C   LIG A   1      -5.586   0.545 128.323  0.00  0.00    -0.012 A 
ATOM      7  C   LIG A   1      -6.092   0.388 126.996  0.00  0.00    -0.003 A 
ATOM      8  C   LIG A   1      -5.619   1.340 126.049  0.00  0.00    +0.058 A 
ATOM      9  C   LIG A   1      -4.794   2.381 126.432  0.00  0.00    +0.167 A 
ATOM     10  C   LIG A   1      -4.381   2.523 127.723  0.00  0.00    +0.167 A 
ATOM     11  C   LIG A   1      -4.749   1.618 128.683  0.00  0.00    +0.058 A 
ATOM     12  O   LIG A   1      -3.588   3.610 127.906  0.00  0.00    -0.453 OA
ATOM     13  C   LIG A   1      -3.558   4.145 126.568  0.00  0.00    +0.466 C 
ATOM     14  O   LIG A   1      -4.310   3.358 125.621  0.00  0.00    -0.453 OA
ATOM     15  N   LIG A   1      -6.953  -2.451 130.084  0.00  0.00    -0.332 N 
ATOM     16  C   LIG A   1      -6.120  -2.451 131.282  0.00  0.00    +0.129 C 
ATOM     17  C   LIG A   1      -7.276  -3.777 129.547  0.00  0.00    +0.109 C 
ATOM     18  C   LIG A   1      -8.500  -3.684 128.650  0.00  0.00    +0.055 C 
ATOM     19  C   LIG A   1      -8.257  -2.661 127.567  0.00  0.00    -0.033 A 
ATOM     20  C   LIG A   1      -8.992  -2.768 126.383  0.00  0.00    +0.053 A 
ATOM     21  C   LIG A   1      -8.772  -1.875 125.350  0.00  0.00    +0.162 A 
ENDROOT
BRANCH   1  22
ATOM     22  O   LIG A   1      -7.442  -0.148 124.383  0.00  0.00    -0.491 OA
ATOM     23  C   LIG A   1      -6.604  -0.873 123.484  0.00  0.00    +0.277 C 
ENDBRANCH   1  22
BRANCH  21  24
ATOM     24  O   LIG A   1      -9.448  -1.942 124.156  0.00  0.00    -0.491 OA
ATOM     25  C   LIG A   1      -9.480  -3.233 123.547  0.00  0.00    +0.277 C 
ENDBRANCH  21  24
TORSDOF 2
ENDMDL
MODEL 4
REMARK VINA RESULT:      -6.8      3.352      7.478
REMARK  Name = NuBBE_2419
REMARK  5 active torsions:
REMARK  status: ('A' for Active; 'I' for Inactive)
REMARK    1  A    between atoms: O_1  and  C_2
REMARK    2  A    between atoms: O_1  and  C_3
REMARK    3  A    between atoms: N_17  and  C_18
REMARK    4  A    between atoms: C_23  and  O_24
REMARK    5  A    between atoms: O_24  and  C_25
REMARK                            x       y       z     vdW  Elec       q    Type
REMARK                         _______ _______ _______ _____ _____    ______ ____
ROOT
ATOM      1  C   LIG A   1      -8.005   1.626 126.869  0.00  0.00    +0.170 A 
ATOM      2  C   LIG A   1      -8.134   0.196 126.715  0.00  0.00    +0.037 A 
ATOM      3  C   LIG A   1      -8.680  -0.252 125.470  0.00  0.00    +0.011 A 
ATOM      4  C   LIG A   1      -8.898  -1.636 125.206  0.00  0.00    +0.038 A 
ATOM      5  C   LIG A   1      -8.681  -2.547 126.243  0.00  0.00    +0.032 A 
ATOM      6  C   LIG A   1      -8.142  -2.174 127.468  0.00  0.00    -0.012 A 
ATOM      7  C   LIG A   1      -7.795  -0.810 127.718  0.00  0.00    -0.003 A 
ATOM      8  C   LIG A   1      -7.163  -0.564 128.970  0.00  0.00    +0.058 A 
ATOM      9  C   LIG A   1      -6.984  -1.577 129.892  0.00  0.00    +0.167 A 
ATOM     10  C   LIG A   1      -7.382  -2.855 129.632  0.00  0.00    +0.167 A 
ATOM     11  C   LIG A   1      -7.949  -3.184 128.430  0.00  0.00    +0.058 A 
ATOM     12  O   LIG A   1      -7.135  -3.704 130.662  0.00  0.00    -0.453 OA
ATOM     13  C   LIG A   1      -6.537  -2.800 131.613  0.00  0.00    +0.466 C 
ATOM     14  O   LIG A   1      -6.423  -1.448 131.124  0.00  0.00    -0.453 OA
ATOM     15  N   LIG A   1      -9.381  -2.075 123.946  0.00  0.00    -0.332 N 
ATOM     16  C   LIG A   1      -9.355  -3.498 123.622  0.00  0.00    +0.129 C 
ATOM     17  C   LIG A   1      -8.999  -1.177 122.852  0.00  0.00    +0.109 C 
ATOM     18  C   LIG A   1      -9.525   0.223 123.129  0.00  0.00    +0.055 C 
ATOM     19  C   LIG A   1      -9.024   0.696 124.472  0.00  0.00    -0.033 A 
ATOM     20  C   LIG A   1      -8.951   2.072 124.700  0.00  0.00    +0.053 A 
ATOM     21  C   LIG A   1      -8.459   2.547 125.903  0.00  0.00    +0.162 A 
ENDROOT
BRANCH   1  22
ATOM     22  O   LIG A   1      -7.336   2.133 127.965  0.00  0.00    -0.491 OA
ATOM     23  C   LIG A   1      -5.955   2.369 127.696  0.00  0.00    +0.277 C 
ENDBRANCH   1  22
BRANCH  21  24
ATOM     24  O   LIG A   1      -8.345   3.889 126.178  0.00  0.00    -0.491 OA
ATOM     25  C   LIG A   1      -7.499   4.621 125.291  0.00  0.00    +0.277 C 
ENDBRANCH  21  24
TORSDOF 2
ENDMDL
MODEL 5
REMARK VINA RESULT:      -6.8      4.063      6.574
REMARK  Name = NuBBE_2419
REMARK  5 active torsions:
REMARK  status: ('A' for Active; 'I' for Inactive)
REMARK    1  A    between atoms: O_1  and  C_2
REMARK    2  A    between atoms: O_1  and  C_3
REMARK    3  A    between atoms: N_17  and  C_18
REMARK    4  A    between atoms: C_23  and  O_24
REMARK    5  A    between atoms: O_24  and  C_25
REMARK                            x       y       z     vdW  Elec       q    Type
REMARK                         _______ _______ _______ _____ _____    ______ ____
ROOT
ATOM      1  C   LIG A   1      -7.508  -0.240 127.563  0.00  0.00    +0.170 A 
ATOM      2  C   LIG A   1      -7.795  -0.122 128.972  0.00  0.00    +0.037 A 
ATOM      3  C   LIG A   1      -7.578  -1.302 129.754  0.00  0.00    +0.011 A 
ATOM      4  C   LIG A   1      -7.861  -1.333 131.152  0.00  0.00    +0.038 A 
ATOM      5  C   LIG A   1      -8.476  -0.219 131.724  0.00  0.00    +0.032 A 
ATOM      6  C   LIG A   1      -8.702   0.958 131.020  0.00  0.00    -0.012 A 
ATOM      7  C   LIG A   1      -8.313   1.063 129.649  0.00  0.00    -0.003 A 
ATOM      8  C   LIG A   1      -8.506   2.345 129.060  0.00  0.00    +0.058 A 
ATOM      9  C   LIG A   1      -9.104   3.373 129.763  0.00  0.00    +0.167 A 
ATOM     10  C   LIG A   1      -9.510   3.210 131.054  0.00  0.00    +0.167 A 
ATOM     11  C   LIG A   1      -9.312   2.024 131.709  0.00  0.00    +0.058 A 
ATOM     12  O   LIG A   1     -10.086   4.326 131.571  0.00  0.00    -0.453 OA
ATOM     13  C   LIG A   1     -10.002   5.216 130.440  0.00  0.00    +0.466 C 
ATOM     14  O   LIG A   1      -9.363   4.621 129.291  0.00  0.00    -0.453 OA
ATOM     15  N   LIG A   1      -7.584  -2.487 131.930  0.00  0.00    -0.332 N 
ATOM     16  C   LIG A   1      -7.647  -2.405 133.386  0.00  0.00    +0.129 C 
ATOM     17  C   LIG A   1      -6.467  -3.273 131.396  0.00  0.00    +0.109 C 
ATOM     18  C   LIG A   1      -6.772  -3.695 129.967  0.00  0.00    +0.055 C 
ATOM     19  C   LIG A   1      -7.077  -2.475 129.133  0.00  0.00    -0.033 A 
ATOM     20  C   LIG A   1      -6.888  -2.558 127.751  0.00  0.00    +0.053 A 
ATOM     21  C   LIG A   1      -7.118  -1.451 126.954  0.00  0.00    +0.162 A 
ENDROOT
BRANCH   1  22
ATOM     22  O   LIG A   1      -7.529   0.890 126.770  0.00  0.00    -0.491 OA
ATOM     23  C   LIG A   1      -6.229   1.447 126.582  0.00  0.00    +0.277 C 
ENDBRANCH   1  22
BRANCH  21  24
ATOM     24  O   LIG A   1      -6.931  -1.466 125.593  0.00  0.00    -0.491 OA
ATOM     25  C   LIG A   1      -5.760  -2.151 125.149  0.00  0.00    +0.277 C 
ENDBRANCH  21  24
TORSDOF 2
ENDMDL
MODEL 6
REMARK VINA RESULT:      -6.7      3.719      5.823
REMARK  Name = NuBBE_2419
REMARK  5 active torsions:
REMARK  status: ('A' for Active; 'I' for Inactive)
REMARK    1  A    between atoms: O_1  and  C_2
REMARK    2  A    between atoms: O_1  and  C_3
REMARK    3  A    between atoms: N_17  and  C_18
REMARK    4  A    between atoms: C_23  and  O_24
REMARK    5  A    between atoms: O_24  and  C_25
REMARK                            x       y       z     vdW  Elec       q    Type
REMARK                         _______ _______ _______ _____ _____    ______ ____
ROOT
ATOM      1  C   LIG A   1      -6.683  -1.375 129.800  0.00  0.00    +0.170 A 
ATOM      2  C   LIG A   1      -6.636  -0.931 128.428  0.00  0.00    +0.037 A 
ATOM      3  C   LIG A   1      -7.381  -1.717 127.491  0.00  0.00    +0.011 A 
ATOM      4  C   LIG A   1      -7.385  -1.410 126.098  0.00  0.00    +0.038 A 
ATOM      5  C   LIG A   1      -6.542  -0.394 125.644  0.00  0.00    +0.032 A 
ATOM      6  C   LIG A   1      -5.804   0.409 126.505  0.00  0.00    -0.012 A 
ATOM      7  C   LIG A   1      -5.877   0.208 127.918  0.00  0.00    -0.003 A 
ATOM      8  C   LIG A   1      -5.155   1.151 128.704  0.00  0.00    +0.058 A 
ATOM      9  C   LIG A   1      -4.381   2.131 128.112  0.00  0.00    +0.167 A 
ATOM     10  C   LIG A   1      -4.298   2.251 126.756  0.00  0.00    +0.167 A 
ATOM     11  C   LIG A   1      -5.005   1.416 125.932  0.00  0.00    +0.058 A 
ATOM     12  O   LIG A   1      -3.480   3.262 126.366  0.00  0.00    -0.453 OA
ATOM     13  C   LIG A   1      -3.048   3.764 127.646  0.00  0.00    +0.466 C 
ATOM     14  O   LIG A   1      -3.630   3.059 128.762  0.00  0.00    -0.453 OA
ATOM     15  N   LIG A   1      -8.177  -2.156 125.187  0.00  0.00    -0.332 N 
ATOM     16  C   LIG A   1      -8.356  -1.668 123.823  0.00  0.00    +0.129 C 
ATOM     17  C   LIG A   1      -9.377  -2.720 125.812  0.00  0.00    +0.109 C 
ATOM     18  C   LIG A   1      -8.979  -3.614 126.976  0.00  0.00    +0.055 C 
ATOM     19  C   LIG A   1      -8.128  -2.831 127.948  0.00  0.00    -0.033 A 
ATOM     20  C   LIG A   1      -8.079  -3.264 129.275  0.00  0.00    +0.053 A 
ATOM     21  C   LIG A   1      -7.344  -2.552 130.206  0.00  0.00    +0.162 A 
ENDROOT
BRANCH   1  22
ATOM     22  O   LIG A   1      -6.133  -0.584 130.789  0.00  0.00    -0.491 OA
ATOM     23  C   LIG A   1      -7.109   0.227 131.441  0.00  0.00    +0.277 C 
ENDBRANCH   1  22
BRANCH  21  24
ATOM     24  O   LIG A   1      -7.274  -2.917 131.529  0.00  0.00    -0.491 OA
ATOM     25  C   LIG A   1      -6.232  -3.838 131.851  0.00  0.00    +0.277 C 
ENDBRANCH  21  24
TORSDOF 2
ENDMDL
MODEL 7
REMARK VINA RESULT:      -6.7      3.303      6.049
REMARK  Name = NuBBE_2419
REMARK  5 active torsions:
REMARK  status: ('A' for Active; 'I' for Inactive)
REMARK    1  A    between atoms: O_1  and  C_2
REMARK    2  A    between atoms: O_1  and  C_3
REMARK    3  A    between atoms: N_17  and  C_18
REMARK    4  A    between atoms: C_23  and  O_24
REMARK    5  A    between atoms: O_24  and  C_25
REMARK                            x       y       z     vdW  Elec       q    Type
REMARK                         _______ _______ _______ _____ _____    ______ ____
ROOT
ATOM      1  C   LIG A   1      -8.141   1.788 127.875  0.00  0.00    +0.170 A 
ATOM      2  C   LIG A   1      -8.061   0.373 128.147  0.00  0.00    +0.037 A 
ATOM      3  C   LIG A   1      -7.646   0.014 129.470  0.00  0.00    +0.011 A 
ATOM      4  C   LIG A   1      -7.487  -1.349 129.857  0.00  0.00    +0.038 A 
ATOM      5  C   LIG A   1      -7.625  -2.333 128.876  0.00  0.00    +0.032 A 
ATOM      6  C   LIG A   1      -8.036  -2.048 127.580  0.00  0.00    -0.012 A 
ATOM      7  C   LIG A   1      -8.326  -0.702 127.196  0.00  0.00    -0.003 A 
ATOM      8  C   LIG A   1      -8.830  -0.543 125.874  0.00  0.00    +0.058 A 
ATOM      9  C   LIG A   1      -8.943  -1.621 125.017  0.00  0.00    +0.167 A 
ATOM     10  C   LIG A   1      -8.602  -2.882 125.410  0.00  0.00    +0.167 A 
ATOM     11  C   LIG A   1      -8.160  -3.126 126.683  0.00  0.00    +0.058 A 
ATOM     12  O   LIG A   1      -8.770  -3.804 124.428  0.00  0.00    -0.453 OA
ATOM     13  C   LIG A   1      -9.253  -2.967 123.358  0.00  0.00    +0.466 C 
ATOM     14  O   LIG A   1      -9.382  -1.579 123.731  0.00  0.00    -0.453 OA
ATOM     15  N   LIG A   1      -7.136  -1.697 131.188  0.00  0.00    -0.332 N 
ATOM     16  C   LIG A   1      -7.227  -3.090 131.614  0.00  0.00    +0.129 C 
ATOM     17  C   LIG A   1      -7.600  -0.711 132.169  0.00  0.00    +0.109 C 
ATOM     18  C   LIG A   1      -7.017   0.655 131.839  0.00  0.00    +0.055 C 
ATOM     19  C   LIG A   1      -7.377   1.030 130.422  0.00  0.00    -0.033 A 
ATOM     20  C   LIG A   1      -7.396   2.385 130.085  0.00  0.00    +0.053 A 
ATOM     21  C   LIG A   1      -7.759   2.775 128.808  0.00  0.00    +0.162 A 
ENDROOT
BRANCH   1  22
ATOM     22  O   LIG A   1      -8.690   2.220 126.684  0.00  0.00    -0.491 OA
ATOM     23  C   LIG A   1      -7.699   2.668 125.760  0.00  0.00    +0.277 C 
ENDBRANCH   1  22
BRANCH  21  24
ATOM     24  O   LIG A   1      -7.816   4.092 128.423  0.00  0.00    -0.491 OA
ATOM     25  C   LIG A   1      -8.715   4.907 129.175  0.00  0.00    +0.277 C 
ENDBRANCH  21  24
TORSDOF 2
ENDMDL
MODEL 8
REMARK VINA RESULT:      -6.6      2.803      4.934
REMARK  Name = NuBBE_2419
REMARK  5 active torsions:
REMARK  status: ('A' for Active; 'I' for Inactive)
REMARK    1  A    between atoms: O_1  and  C_2
REMARK    2  A    between atoms: O_1  and  C_3
REMARK    3  A    between atoms: N_17  and  C_18
REMARK    4  A    between atoms: C_23  and  O_24
REMARK    5  A    between atoms: O_24  and  C_25
REMARK                            x       y       z     vdW  Elec       q    Type
REMARK                         _______ _______ _______ _____ _____    ______ ____
ROOT
ATOM      1  C   LIG A   1      -7.445  -0.084 128.746  0.00  0.00    +0.170 A 
ATOM      2  C   LIG A   1      -7.535  -0.005 127.307  0.00  0.00    +0.037 A 
ATOM      3  C   LIG A   1      -7.904  -1.216 126.637  0.00  0.00    +0.011 A 
ATOM      4  C   LIG A   1      -7.989  -1.285 125.215  0.00  0.00    +0.038 A 
ATOM      5  C   LIG A   1      -7.581  -0.173 124.476  0.00  0.00    +0.032 A 
ATOM      6  C   LIG A   1      -7.223   1.033 125.069  0.00  0.00    -0.012 A 
ATOM      7  C   LIG A   1      -7.250   1.171 126.491  0.00  0.00    -0.003 A 
ATOM      8  C   LIG A   1      -6.957   2.477 126.979  0.00  0.00    +0.058 A 
ATOM      9  C   LIG A   1      -6.597   3.497 126.120  0.00  0.00    +0.167 A 
ATOM     10  C   LIG A   1      -6.531   3.303 124.772  0.00  0.00    +0.167 A 
ATOM     11  C   LIG A   1      -6.849   2.091 124.220  0.00  0.00    +0.058 A 
ATOM     12  O   LIG A   1      -6.147   4.417 124.097  0.00  0.00    -0.453 OA
ATOM     13  C   LIG A   1      -5.968   5.341 125.189  0.00  0.00    +0.466 C 
ATOM     14  O   LIG A   1      -6.269   4.767 126.478  0.00  0.00    -0.453 OA
ATOM     15  N   LIG A   1      -8.417  -2.470 124.564  0.00  0.00    -0.332 N 
ATOM     16  C   LIG A   1      -8.733  -2.434 123.139  0.00  0.00    +0.129 C 
ATOM     17  C   LIG A   1      -9.331  -3.269 125.387  0.00  0.00    +0.109 C 
ATOM     18  C   LIG A   1      -8.653  -3.635 126.698  0.00  0.00    +0.055 C 
ATOM     19  C   LIG A   1      -8.186  -2.380 127.395  0.00  0.00    -0.033 A 
ATOM     20  C   LIG A   1      -8.010  -2.424 128.781  0.00  0.00    +0.053 A 
ATOM     21  C   LIG A   1      -7.622  -1.285 129.463  0.00  0.00    +0.162 A 
ENDROOT
BRANCH   1  22
ATOM     22  O   LIG A   1      -7.260   1.071 129.478  0.00  0.00    -0.491 OA
ATOM     23  C   LIG A   1      -8.484   1.585 130.001  0.00  0.00    +0.277 C 
ENDBRANCH   1  22
BRANCH  21  24
ATOM     24  O   LIG A   1      -7.453  -1.261 130.827  0.00  0.00    -0.491 OA
ATOM     25  C   LIG A   1      -7.006  -2.487 131.406  0.00  0.00    +0.277 C 
ENDBRANCH  21  24
TORSDOF 2
ENDMDL
MODEL 9
REMARK VINA RESULT:      -6.5      8.251     10.096
REMARK  Name = NuBBE_2419
REMARK  5 active torsions:
REMARK  status: ('A' for Active; 'I' for Inactive)
REMARK    1  A    between atoms: O_1  and  C_2
REMARK    2  A    between atoms: O_1  and  C_3
REMARK    3  A    between atoms: N_17  and  C_18
REMARK    4  A    between atoms: C_23  and  O_24
REMARK    5  A    between atoms: O_24  and  C_25
REMARK                            x       y       z     vdW  Elec       q    Type
REMARK                         _______ _______ _______ _____ _____    ______ ____
ROOT
ATOM      1  C   LIG A   1      -4.494   6.314 131.612  0.00  0.00    +0.170 A 
ATOM      2  C   LIG A   1      -5.622   6.203 132.506  0.00  0.00    +0.037 A 
ATOM      3  C   LIG A   1      -5.306   5.967 133.883  0.00  0.00    +0.011 A 
ATOM      4  C   LIG A   1      -6.328   5.797 134.864  0.00  0.00    +0.038 A 
ATOM      5  C   LIG A   1      -7.654   5.742 134.431  0.00  0.00    +0.032 A 
ATOM      6  C   LIG A   1      -8.023   5.974 133.111  0.00  0.00    -0.012 A 
ATOM      7  C   LIG A   1      -7.030   6.272 132.128  0.00  0.00    -0.003 A 
ATOM      8  C   LIG A   1      -7.533   6.587 130.833  0.00  0.00    +0.058 A 
ATOM      9  C   LIG A   1      -8.885   6.520 130.556  0.00  0.00    +0.167 A 
ATOM     10  C   LIG A   1      -9.793   6.176 131.514  0.00  0.00    +0.167 A 
ATOM     11  C   LIG A   1      -9.394   5.912 132.797  0.00  0.00    +0.058 A 
ATOM     12  O   LIG A   1     -11.068   6.153 131.049  0.00  0.00    -0.453 OA
ATOM     13  C   LIG A   1     -10.854   6.517 129.670  0.00  0.00    +0.466 C 
ATOM     14  O   LIG A   1      -9.469   6.768 129.354  0.00  0.00    -0.453 OA
ATOM     15  N   LIG A   1      -6.005   5.627 136.235  0.00  0.00    -0.332 N 
ATOM     16  C   LIG A   1      -7.063   5.708 137.238  0.00  0.00    +0.129 C 
ATOM     17  C   LIG A   1      -4.744   6.277 136.604  0.00  0.00    +0.109 C 
ATOM     18  C   LIG A   1      -3.613   5.722 135.751  0.00  0.00    +0.055 C 
ATOM     19  C   LIG A   1      -3.950   5.891 134.290  0.00  0.00    -0.033 A 
ATOM     20  C   LIG A   1      -2.898   5.929 133.372  0.00  0.00    +0.053 A 
ATOM     21  C   LIG A   1      -3.160   6.122 132.027  0.00  0.00    +0.162 A 
ENDROOT
BRANCH   1  22
ATOM     22  O   LIG A   1      -4.701   6.705 130.305  0.00  0.00    -0.491 OA
ATOM     23  C   LIG A   1      -4.387   8.081 130.094  0.00  0.00    +0.277 C 
ENDBRANCH   1  22
BRANCH  21  24
ATOM     24  O   LIG A   1      -2.167   6.189 131.081  0.00  0.00    -0.491 OA
ATOM     25  C   LIG A   1      -0.880   6.558 131.575  0.00  0.00    +0.277 C 
ENDBRANCH  21  24
TORSDOF 2
ENDMDL
