MODEL 1
REMARK VINA RESULT:      -7.3      0.000      0.000
REMARK  Name = NuBBE_292
REMARK  5 active torsions:
REMARK  status: ('A' for Active; 'I' for Inactive)
REMARK    1  A    between atoms: O_1  and  C_2
REMARK    2  A    between atoms: C_4  and  O_5
REMARK    3  A    between atoms: C_9  and  C_10
REMARK    4  A    between atoms: C_13  and  O_14
REMARK    5  A    between atoms: O_14  and  C_15
REMARK                            x       y       z     vdW  Elec       q    Type
REMARK                         _______ _______ _______ _____ _____    ______ ____
ROOT
ATOM      1  C   LIG A   1     -11.262   7.409 126.764  0.00  0.00    +0.124 A 
ATOM      2  C   LIG A   1     -12.525   7.328 127.339  0.00  0.00    +0.091 A 
ATOM      3  C   LIG A   1     -12.639   7.051 128.706  0.00  0.00    +0.134 A 
ATOM      4  C   LIG A   1     -11.493   6.867 129.494  0.00  0.00    +0.101 A 
ATOM      5  C   LIG A   1     -11.544   6.523 130.940  0.00  0.00    +0.174 C 
ATOM      6  C   LIG A   1     -10.246   6.075 131.554  0.00  0.00    +0.129 C 
ATOM      7  C   LIG A   1      -9.133   6.934 130.983  0.00  0.00    +0.211 C 
ATOM      8  O   LIG A   1      -9.047   6.782 129.559  0.00  0.00    -0.483 OA
ATOM      9  O   LIG A   1     -12.574   6.552 131.602  0.00  0.00    -0.292 OA
ATOM     10  C   LIG A   1     -10.232   6.964 128.897  0.00  0.00    +0.139 A 
ATOM     11  C   LIG A   1     -10.118   7.224 127.530  0.00  0.00    +0.092 A 
ENDROOT
BRANCH   7  12
ATOM     12  C   LIG A   1      -7.790   6.552 131.590  0.00  0.00    -0.007 A 
ATOM     13  C   LIG A   1      -6.597   6.974 130.988  0.00  0.00    +0.011 A 
ATOM     14  C   LIG A   1      -5.360   6.616 131.535  0.00  0.00    +0.046 A 
ATOM     15  C   LIG A   1      -5.288   5.835 132.691  0.00  0.00    +0.120 A 
ATOM     16  C   LIG A   1      -6.469   5.429 133.308  0.00  0.00    +0.046 A 
ATOM     17  C   LIG A   1      -7.708   5.789 132.765  0.00  0.00    +0.011 A 
BRANCH  15  18
ATOM     18  O   LIG A   1      -4.019   5.540 133.110  0.00  0.00    -0.495 OA
ATOM     19  C   LIG A   1      -3.009   6.499 132.820  0.00  0.00    +0.277 C 
ENDBRANCH  15  18
ENDBRANCH   7  12
BRANCH   1  20
ATOM     20  O   LIG A   1     -11.096   7.667 125.435  0.00  0.00    -0.506 OA
ATOM     21  H   LIG A   1     -11.580   7.004 124.914  0.00  0.00    +0.292 HD
ENDBRANCH   1  20
BRANCH   3  22
ATOM     22  O   LIG A   1     -13.887   6.941 129.248  0.00  0.00    -0.506 OA
ATOM     23  H   LIG A   1     -14.355   6.171 128.889  0.00  0.00    +0.292 HD
ENDBRANCH   3  22
TORSDOF 4
ENDMDL
MODEL 2
REMARK VINA RESULT:      -7.3      1.899      7.015
REMARK  Name = NuBBE_292
REMARK  5 active torsions:
REMARK  status: ('A' for Active; 'I' for Inactive)
REMARK    1  A    between atoms: O_1  and  C_2
REMARK    2  A    between atoms: C_4  and  O_5
REMARK    3  A    between atoms: C_9  and  C_10
REMARK    4  A    between atoms: C_13  and  O_14
REMARK    5  A    between atoms: O_14  and  C_15
REMARK                            x       y       z     vdW  Elec       q    Type
REMARK                         _______ _______ _______ _____ _____    ______ ____
ROOT
ATOM      1  C   LIG A   1      -4.665   6.780 131.499  0.00  0.00    +0.124 A 
ATOM      2  C   LIG A   1      -4.697   5.888 132.565  0.00  0.00    +0.091 A 
ATOM      3  C   LIG A   1      -5.931   5.419 133.029  0.00  0.00    +0.134 A 
ATOM      4  C   LIG A   1      -7.126   5.832 132.420  0.00  0.00    +0.101 A 
ATOM      5  C   LIG A   1      -8.471   5.410 132.892  0.00  0.00    +0.174 C 
ATOM      6  C   LIG A   1      -9.637   6.171 132.320  0.00  0.00    +0.129 C 
ATOM      7  C   LIG A   1      -9.357   6.427 130.850  0.00  0.00    +0.211 C 
ATOM      8  O   LIG A   1      -8.166   7.211 130.683  0.00  0.00    -0.483 OA
ATOM      9  O   LIG A   1      -8.645   4.530 133.726  0.00  0.00    -0.292 OA
ATOM     10  C   LIG A   1      -7.069   6.722 131.341  0.00  0.00    +0.139 A 
ATOM     11  C   LIG A   1      -5.839   7.203 130.889  0.00  0.00    +0.092 A 
ENDROOT
BRANCH   7  12
ATOM     12  C   LIG A   1     -10.516   7.169 130.201  0.00  0.00    -0.007 A 
ATOM     13  C   LIG A   1     -10.320   7.886 129.014  0.00  0.00    +0.011 A 
ATOM     14  C   LIG A   1     -11.380   8.580 128.419  0.00  0.00    +0.046 A 
ATOM     15  C   LIG A   1     -12.653   8.570 128.993  0.00  0.00    +0.120 A 
ATOM     16  C   LIG A   1     -12.863   7.842 130.163  0.00  0.00    +0.046 A 
ATOM     17  C   LIG A   1     -11.805   7.145 130.757  0.00  0.00    +0.011 A 
BRANCH  15  18
ATOM     18  O   LIG A   1     -13.594   9.303 128.322  0.00  0.00    -0.495 OA
ATOM     19  C   LIG A   1     -13.863  10.609 128.819  0.00  0.00    +0.277 C 
ENDBRANCH  15  18
ENDBRANCH   7  12
BRANCH   1  20
ATOM     20  O   LIG A   1      -3.490   7.275 131.017  0.00  0.00    -0.506 OA
ATOM     21  H   LIG A   1      -3.372   6.991 130.095  0.00  0.00    +0.292 HD
ENDBRANCH   1  20
BRANCH   3  22
ATOM     22  O   LIG A   1      -5.948   4.571 134.098  0.00  0.00    -0.506 OA
ATOM     23  H   LIG A   1      -5.057   4.450 134.460  0.00  0.00    +0.292 HD
ENDBRANCH   3  22
TORSDOF 4
ENDMDL
MODEL 3
REMARK VINA RESULT:      -7.2      8.769      9.350
REMARK  Name = NuBBE_292
REMARK  5 active torsions:
REMARK  status: ('A' for Active; 'I' for Inactive)
REMARK    1  A    between atoms: O_1  and  C_2
REMARK    2  A    between atoms: C_4  and  O_5
REMARK    3  A    between atoms: C_9  and  C_10
REMARK    4  A    between atoms: C_13  and  O_14
REMARK    5  A    between atoms: O_14  and  C_15
REMARK                            x       y       z     vdW  Elec       q    Type
REMARK                         _______ _______ _______ _____ _____    ______ ____
ROOT
ATOM      1  C   LIG A   1      -9.042   2.324 124.707  0.00  0.00    +0.124 A 
ATOM      2  C   LIG A   1      -9.635   1.687 123.622  0.00  0.00    +0.091 A 
ATOM      3  C   LIG A   1      -9.629   0.289 123.560  0.00  0.00    +0.134 A 
ATOM      4  C   LIG A   1      -9.040  -0.468 124.586  0.00  0.00    +0.101 A 
ATOM      5  C   LIG A   1      -8.957  -1.952 124.559  0.00  0.00    +0.174 C 
ATOM      6  C   LIG A   1      -8.044  -2.576 125.579  0.00  0.00    +0.129 C 
ATOM      7  C   LIG A   1      -8.202  -1.815 126.883  0.00  0.00    +0.211 C 
ATOM      8  O   LIG A   1      -7.838  -0.436 126.719  0.00  0.00    -0.483 OA
ATOM      9  O   LIG A   1      -9.549  -2.644 123.741  0.00  0.00    -0.292 OA
ATOM     10  C   LIG A   1      -8.459   0.194 125.673  0.00  0.00    +0.139 A 
ATOM     11  C   LIG A   1      -8.451   1.589 125.727  0.00  0.00    +0.092 A 
ENDROOT
BRANCH   7  12
ATOM     12  C   LIG A   1      -7.326  -2.417 127.971  0.00  0.00    -0.007 A 
ATOM     13  C   LIG A   1      -5.932  -2.290 127.907  0.00  0.00    +0.011 A 
ATOM     14  C   LIG A   1      -5.121  -2.853 128.899  0.00  0.00    +0.046 A 
ATOM     15  C   LIG A   1      -5.682  -3.549 129.972  0.00  0.00    +0.120 A 
ATOM     16  C   LIG A   1      -7.069  -3.662 130.055  0.00  0.00    +0.046 A 
ATOM     17  C   LIG A   1      -7.882  -3.097 129.066  0.00  0.00    +0.011 A 
BRANCH  15  18
ATOM     18  O   LIG A   1      -4.779  -4.065 130.861  0.00  0.00    -0.495 OA
ATOM     19  C   LIG A   1      -5.263  -5.049 131.769  0.00  0.00    +0.277 C 
ENDBRANCH  15  18
ENDBRANCH   7  12
BRANCH   1  20
ATOM     20  O   LIG A   1      -9.012   3.683 124.809  0.00  0.00    -0.506 OA
ATOM     21  H   LIG A   1      -9.466   3.956 125.624  0.00  0.00    +0.292 HD
ENDBRANCH   1  20
BRANCH   3  22
ATOM     22  O   LIG A   1     -10.184  -0.320 122.472  0.00  0.00    -0.506 OA
ATOM     23  H   LIG A   1      -9.608  -1.024 122.136  0.00  0.00    +0.292 HD
ENDBRANCH   3  22
TORSDOF 4
ENDMDL
MODEL 4
REMARK VINA RESULT:      -6.9      7.274      8.657
REMARK  Name = NuBBE_292
REMARK  5 active torsions:
REMARK  status: ('A' for Active; 'I' for Inactive)
REMARK    1  A    between atoms: O_1  and  C_2
REMARK    2  A    between atoms: C_4  and  O_5
REMARK    3  A    between atoms: C_9  and  C_10
REMARK    4  A    between atoms: C_13  and  O_14
REMARK    5  A    between atoms: O_14  and  C_15
REMARK                            x       y       z     vdW  Elec       q    Type
REMARK                         _______ _______ _______ _____ _____    ______ ____
ROOT
ATOM      1  C   LIG A   1      -5.995   5.035 119.354  0.00  0.00    +0.124 A 
ATOM      2  C   LIG A   1      -7.293   4.636 119.057  0.00  0.00    +0.091 A 
ATOM      3  C   LIG A   1      -8.043   3.963 120.027  0.00  0.00    +0.134 A 
ATOM      4  C   LIG A   1      -7.498   3.699 121.294  0.00  0.00    +0.101 A 
ATOM      5  C   LIG A   1      -8.222   2.948 122.353  0.00  0.00    +0.174 C 
ATOM      6  C   LIG A   1      -7.391   2.503 123.526  0.00  0.00    +0.129 C 
ATOM      7  C   LIG A   1      -6.422   3.621 123.869  0.00  0.00    +0.211 C 
ATOM      8  O   LIG A   1      -5.550   3.900 122.764  0.00  0.00    -0.483 OA
ATOM      9  O   LIG A   1      -9.409   2.657 122.279  0.00  0.00    -0.292 OA
ATOM     10  C   LIG A   1      -6.193   4.119 121.575  0.00  0.00    +0.139 A 
ATOM     11  C   LIG A   1      -5.439   4.777 120.601  0.00  0.00    +0.092 A 
ENDROOT
BRANCH   7  12
ATOM     12  C   LIG A   1      -5.570   3.247 125.072  0.00  0.00    -0.007 A 
ATOM     13  C   LIG A   1      -5.828   2.067 125.783  0.00  0.00    +0.011 A 
ATOM     14  C   LIG A   1      -5.055   1.725 126.898  0.00  0.00    +0.046 A 
ATOM     15  C   LIG A   1      -4.010   2.548 127.323  0.00  0.00    +0.120 A 
ATOM     16  C   LIG A   1      -3.732   3.713 126.610  0.00  0.00    +0.046 A 
ATOM     17  C   LIG A   1      -4.502   4.055 125.493  0.00  0.00    +0.011 A 
BRANCH  15  18
ATOM     18  O   LIG A   1      -3.345   2.108 128.436  0.00  0.00    -0.495 OA
ATOM     19  C   LIG A   1      -4.144   1.679 129.532  0.00  0.00    +0.277 C 
ENDBRANCH  15  18
ENDBRANCH   7  12
BRANCH   1  20
ATOM     20  O   LIG A   1      -5.220   5.685 118.440  0.00  0.00    -0.506 OA
ATOM     21  H   LIG A   1      -5.701   5.757 117.600  0.00  0.00    +0.292 HD
ENDBRANCH   1  20
BRANCH   3  22
ATOM     22  O   LIG A   1      -9.304   3.548 119.708  0.00  0.00    -0.506 OA
ATOM     23  H   LIG A   1      -9.870   4.301 119.479  0.00  0.00    +0.292 HD
ENDBRANCH   3  22
TORSDOF 4
ENDMDL
MODEL 5
REMARK VINA RESULT:      -6.8      2.695      2.814
REMARK  Name = NuBBE_292
REMARK  5 active torsions:
REMARK  status: ('A' for Active; 'I' for Inactive)
REMARK    1  A    between atoms: O_1  and  C_2
REMARK    2  A    between atoms: C_4  and  O_5
REMARK    3  A    between atoms: C_9  and  C_10
REMARK    4  A    between atoms: C_13  and  O_14
REMARK    5  A    between atoms: O_14  and  C_15
REMARK                            x       y       z     vdW  Elec       q    Type
REMARK                         _______ _______ _______ _____ _____    ______ ____
ROOT
ATOM      1  C   LIG A   1     -11.051   7.834 127.042  0.00  0.00    +0.124 A 
ATOM      2  C   LIG A   1     -12.084   8.609 127.558  0.00  0.00    +0.091 A 
ATOM      3  C   LIG A   1     -12.457   8.449 128.898  0.00  0.00    +0.134 A 
ATOM      4  C   LIG A   1     -11.791   7.525 129.718  0.00  0.00    +0.101 A 
ATOM      5  C   LIG A   1     -12.168   7.271 131.134  0.00  0.00    +0.174 C 
ATOM      6  C   LIG A   1     -11.552   6.054 131.769  0.00  0.00    +0.129 C 
ATOM      7  C   LIG A   1     -10.111   5.957 131.303  0.00  0.00    +0.211 C 
ATOM      8  O   LIG A   1     -10.041   5.819 129.876  0.00  0.00    -0.483 OA
ATOM      9  O   LIG A   1     -12.961   7.969 131.754  0.00  0.00    -0.292 OA
ATOM     10  C   LIG A   1     -10.747   6.764 129.180  0.00  0.00    +0.139 A 
ATOM     11  C   LIG A   1     -10.385   6.912 127.840  0.00  0.00    +0.092 A 
ENDROOT
BRANCH   7  12
ATOM     12  C   LIG A   1      -9.418   4.760 131.936  0.00  0.00    -0.007 A 
ATOM     13  C   LIG A   1      -9.015   3.676 131.144  0.00  0.00    +0.011 A 
ATOM     14  C   LIG A   1      -8.387   2.567 131.724  0.00  0.00    +0.046 A 
ATOM     15  C   LIG A   1      -8.148   2.518 133.099  0.00  0.00    +0.120 A 
ATOM     16  C   LIG A   1      -8.526   3.600 133.891  0.00  0.00    +0.046 A 
ATOM     17  C   LIG A   1      -9.150   4.712 133.313  0.00  0.00    +0.011 A 
BRANCH  15  18
ATOM     18  O   LIG A   1      -7.545   1.371 133.539  0.00  0.00    -0.495 OA
ATOM     19  C   LIG A   1      -6.259   1.509 134.131  0.00  0.00    +0.277 C 
ENDBRANCH  15  18
ENDBRANCH   7  12
BRANCH   1  20
ATOM     20  O   LIG A   1     -10.656   7.945 125.742  0.00  0.00    -0.506 OA
ATOM     21  H   LIG A   1      -9.705   7.757 125.674  0.00  0.00    +0.292 HD
ENDBRANCH   1  20
BRANCH   3  22
ATOM     22  O   LIG A   1     -13.495   9.192 129.380  0.00  0.00    -0.506 OA
ATOM     23  H   LIG A   1     -13.588   9.077 130.339  0.00  0.00    +0.292 HD
ENDBRANCH   3  22
TORSDOF 4
ENDMDL
MODEL 6
REMARK VINA RESULT:      -6.8      3.090      7.110
REMARK  Name = NuBBE_292
REMARK  5 active torsions:
REMARK  status: ('A' for Active; 'I' for Inactive)
REMARK    1  A    between atoms: O_1  and  C_2
REMARK    2  A    between atoms: C_4  and  O_5
REMARK    3  A    between atoms: C_9  and  C_10
REMARK    4  A    between atoms: C_13  and  O_14
REMARK    5  A    between atoms: O_14  and  C_15
REMARK                            x       y       z     vdW  Elec       q    Type
REMARK                         _______ _______ _______ _____ _____    ______ ____
ROOT
ATOM      1  C   LIG A   1      -8.943   1.057 132.060  0.00  0.00    +0.124 A 
ATOM      2  C   LIG A   1      -7.817   1.311 132.834  0.00  0.00    +0.091 A 
ATOM      3  C   LIG A   1      -7.454   2.636 133.102  0.00  0.00    +0.134 A 
ATOM      4  C   LIG A   1      -8.223   3.700 132.606  0.00  0.00    +0.101 A 
ATOM      5  C   LIG A   1      -7.868   5.129 132.812  0.00  0.00    +0.174 C 
ATOM      6  C   LIG A   1      -8.626   6.122 131.972  0.00  0.00    +0.129 C 
ATOM      7  C   LIG A   1     -10.072   5.668 131.896  0.00  0.00    +0.211 C 
ATOM      8  O   LIG A   1     -10.172   4.373 131.284  0.00  0.00    -0.483 OA
ATOM      9  O   LIG A   1      -6.988   5.499 133.579  0.00  0.00    -0.292 OA
ATOM     10  C   LIG A   1      -9.360   3.421 131.838  0.00  0.00    +0.139 A 
ATOM     11  C   LIG A   1      -9.712   2.099 131.558  0.00  0.00    +0.092 A 
ENDROOT
BRANCH   7  12
ATOM     12  C   LIG A   1     -10.904   6.649 131.084  0.00  0.00    -0.007 A 
ATOM     13  C   LIG A   1     -10.398   7.190 129.894  0.00  0.00    +0.011 A 
ATOM     14  C   LIG A   1     -11.155   8.102 129.150  0.00  0.00    +0.046 A 
ATOM     15  C   LIG A   1     -12.428   8.489 129.573  0.00  0.00    +0.120 A 
ATOM     16  C   LIG A   1     -12.948   7.941 130.744  0.00  0.00    +0.046 A 
ATOM     17  C   LIG A   1     -12.194   7.026 131.489  0.00  0.00    +0.011 A 
BRANCH  15  18
ATOM     18  O   LIG A   1     -13.053   9.400 128.766  0.00  0.00    -0.495 OA
ATOM     19  C   LIG A   1     -13.503  10.601 129.382  0.00  0.00    +0.277 C 
ENDBRANCH  15  18
ENDBRANCH   7  12
BRANCH   1  20
ATOM     20  O   LIG A   1      -9.333  -0.215 131.762  0.00  0.00    -0.506 OA
ATOM     21  H   LIG A   1      -8.648  -0.841 132.051  0.00  0.00    +0.292 HD
ENDBRANCH   1  20
BRANCH   3  22
ATOM     22  O   LIG A   1      -6.326   2.870 133.834  0.00  0.00    -0.506 OA
ATOM     23  H   LIG A   1      -5.653   3.320 133.301  0.00  0.00    +0.292 HD
ENDBRANCH   3  22
TORSDOF 4
ENDMDL
MODEL 7
REMARK VINA RESULT:      -6.8     10.129     10.575
REMARK  Name = NuBBE_292
REMARK  5 active torsions:
REMARK  status: ('A' for Active; 'I' for Inactive)
REMARK    1  A    between atoms: O_1  and  C_2
REMARK    2  A    between atoms: C_4  and  O_5
REMARK    3  A    between atoms: C_9  and  C_10
REMARK    4  A    between atoms: C_13  and  O_14
REMARK    5  A    between atoms: O_14  and  C_15
REMARK                            x       y       z     vdW  Elec       q    Type
REMARK                         _______ _______ _______ _____ _____    ______ ____
ROOT
ATOM      1  C   LIG A   1      -6.563  -2.144 123.038  0.00  0.00    +0.124 A 
ATOM      2  C   LIG A   1      -7.903  -2.345 122.728  0.00  0.00    +0.091 A 
ATOM      3  C   LIG A   1      -8.804  -2.655 123.753  0.00  0.00    +0.134 A 
ATOM      4  C   LIG A   1      -8.366  -2.752 125.083  0.00  0.00    +0.101 A 
ATOM      5  C   LIG A   1      -9.260  -3.124 126.212  0.00  0.00    +0.174 C 
ATOM      6  C   LIG A   1      -8.574  -3.468 127.506  0.00  0.00    +0.129 C 
ATOM      7  C   LIG A   1      -7.417  -2.504 127.697  0.00  0.00    +0.211 C 
ATOM      8  O   LIG A   1      -6.468  -2.623 126.626  0.00  0.00    -0.483 OA
ATOM      9  O   LIG A   1     -10.478  -3.198 126.108  0.00  0.00    -0.292 OA
ATOM     10  C   LIG A   1      -7.015  -2.534 125.373  0.00  0.00    +0.139 A 
ATOM     11  C   LIG A   1      -6.113  -2.240 124.349  0.00  0.00    +0.092 A 
ENDROOT
BRANCH   7  12
ATOM     12  C   LIG A   1      -6.697  -2.777 129.009  0.00  0.00    -0.007 A 
ATOM     13  C   LIG A   1      -7.426  -2.960 130.191  0.00  0.00    +0.011 A 
ATOM     14  C   LIG A   1      -6.768  -3.199 131.403  0.00  0.00    +0.046 A 
ATOM     15  C   LIG A   1      -5.375  -3.264 131.459  0.00  0.00    +0.120 A 
ATOM     16  C   LIG A   1      -4.641  -3.104 130.285  0.00  0.00    +0.046 A 
ATOM     17  C   LIG A   1      -5.297  -2.868 129.072  0.00  0.00    +0.011 A 
BRANCH  15  18
ATOM     18  O   LIG A   1      -4.857  -3.484 132.707  0.00  0.00    -0.495 OA
ATOM     19  C   LIG A   1      -3.738  -4.359 132.791  0.00  0.00    +0.277 C 
ENDBRANCH  15  18
ENDBRANCH   7  12
BRANCH   1  20
ATOM     20  O   LIG A   1      -5.644  -1.849 122.075  0.00  0.00    -0.506 OA
ATOM     21  H   LIG A   1      -5.752  -0.925 121.795  0.00  0.00    +0.292 HD
ENDBRANCH   1  20
BRANCH   3  22
ATOM     22  O   LIG A   1     -10.110  -2.884 123.429  0.00  0.00    -0.506 OA
ATOM     23  H   LIG A   1     -10.385  -2.329 122.683  0.00  0.00    +0.292 HD
ENDBRANCH   3  22
TORSDOF 4
ENDMDL
MODEL 8
REMARK VINA RESULT:      -6.6      9.783     12.283
REMARK  Name = NuBBE_292
REMARK  5 active torsions:
REMARK  status: ('A' for Active; 'I' for Inactive)
REMARK    1  A    between atoms: O_1  and  C_2
REMARK    2  A    between atoms: C_4  and  O_5
REMARK    3  A    between atoms: C_9  and  C_10
REMARK    4  A    between atoms: C_13  and  O_14
REMARK    5  A    between atoms: O_14  and  C_15
REMARK                            x       y       z     vdW  Elec       q    Type
REMARK                         _______ _______ _______ _____ _____    ______ ____
ROOT
ATOM      1  C   LIG A   1      -7.240  -2.991 134.734  0.00  0.00    +0.124 A 
ATOM      2  C   LIG A   1      -5.896  -3.292 134.920  0.00  0.00    +0.091 A 
ATOM      3  C   LIG A   1      -5.078  -3.497 133.803  0.00  0.00    +0.134 A 
ATOM      4  C   LIG A   1      -5.603  -3.391 132.506  0.00  0.00    +0.101 A 
ATOM      5  C   LIG A   1      -4.803  -3.643 131.278  0.00  0.00    +0.174 C 
ATOM      6  C   LIG A   1      -5.585  -3.775 130.000  0.00  0.00    +0.129 C 
ATOM      7  C   LIG A   1      -6.699  -2.744 130.021  0.00  0.00    +0.211 C 
ATOM      8  O   LIG A   1      -7.584  -2.967 131.129  0.00  0.00    -0.483 OA
ATOM      9  O   LIG A   1      -3.586  -3.783 131.286  0.00  0.00    -0.292 OA
ATOM     10  C   LIG A   1      -6.956  -3.076 132.342  0.00  0.00    +0.139 A 
ATOM     11  C   LIG A   1      -7.776  -2.887 133.456  0.00  0.00    +0.092 A 
ENDROOT
BRANCH   7  12
ATOM     12  C   LIG A   1      -7.513  -2.801 128.737  0.00  0.00    -0.007 A 
ATOM     13  C   LIG A   1      -7.270  -1.886 127.704  0.00  0.00    +0.011 A 
ATOM     14  C   LIG A   1      -8.023  -1.928 126.526  0.00  0.00    +0.046 A 
ATOM     15  C   LIG A   1      -9.030  -2.881 126.353  0.00  0.00    +0.120 A 
ATOM     16  C   LIG A   1      -9.265  -3.808 127.366  0.00  0.00    +0.046 A 
ATOM     17  C   LIG A   1      -8.510  -3.771 128.544  0.00  0.00    +0.011 A 
BRANCH  15  18
ATOM     18  O   LIG A   1      -9.703  -2.800 125.165  0.00  0.00    -0.495 OA
ATOM     19  C   LIG A   1      -9.004  -3.225 124.001  0.00  0.00    +0.277 C 
ENDBRANCH  15  18
ENDBRANCH   7  12
BRANCH   1  20
ATOM     20  O   LIG A   1      -8.081  -2.792 135.789  0.00  0.00    -0.506 OA
ATOM     21  H   LIG A   1      -8.826  -2.235 135.509  0.00  0.00    +0.292 HD
ENDBRANCH   1  20
BRANCH   3  22
ATOM     22  O   LIG A   1      -3.769  -3.826 134.003  0.00  0.00    -0.506 OA
ATOM     23  H   LIG A   1      -3.690  -4.657 134.496  0.00  0.00    +0.292 HD
ENDBRANCH   3  22
TORSDOF 4
ENDMDL
MODEL 9
REMARK VINA RESULT:      -6.6      1.906      3.011
REMARK  Name = NuBBE_292
REMARK  5 active torsions:
REMARK  status: ('A' for Active; 'I' for Inactive)
REMARK    1  A    between atoms: O_1  and  C_2
REMARK    2  A    between atoms: C_4  and  O_5
REMARK    3  A    between atoms: C_9  and  C_10
REMARK    4  A    between atoms: C_13  and  O_14
REMARK    5  A    between atoms: O_14  and  C_15
REMARK                            x       y       z     vdW  Elec       q    Type
REMARK                         _______ _______ _______ _____ _____    ______ ____
ROOT
ATOM      1  C   LIG A   1     -11.308   7.369 129.399  0.00  0.00    +0.124 A 
ATOM      2  C   LIG A   1     -11.848   6.104 129.607  0.00  0.00    +0.091 A 
ATOM      3  C   LIG A   1     -11.049   5.101 130.167  0.00  0.00    +0.134 A 
ATOM      4  C   LIG A   1      -9.719   5.367 130.528  0.00  0.00    +0.101 A 
ATOM      5  C   LIG A   1      -8.802   4.336 131.083  0.00  0.00    +0.174 C 
ATOM      6  C   LIG A   1      -7.346   4.712 131.135  0.00  0.00    +0.129 C 
ATOM      7  C   LIG A   1      -7.250   6.167 131.557  0.00  0.00    +0.211 C 
ATOM      8  O   LIG A   1      -7.914   7.020 130.612  0.00  0.00    -0.483 OA
ATOM      9  O   LIG A   1      -9.177   3.226 131.440  0.00  0.00    -0.292 OA
ATOM     10  C   LIG A   1      -9.200   6.650 130.321  0.00  0.00    +0.139 A 
ATOM     11  C   LIG A   1      -9.992   7.646 129.747  0.00  0.00    +0.092 A 
ENDROOT
BRANCH   7  12
ATOM     12  C   LIG A   1      -5.797   6.604 131.661  0.00  0.00    -0.007 A 
ATOM     13  C   LIG A   1      -5.038   6.274 132.792  0.00  0.00    +0.011 A 
ATOM     14  C   LIG A   1      -3.704   6.684 132.898  0.00  0.00    +0.046 A 
ATOM     15  C   LIG A   1      -3.101   7.426 131.880  0.00  0.00    +0.120 A 
ATOM     16  C   LIG A   1      -3.841   7.742 130.742  0.00  0.00    +0.046 A 
ATOM     17  C   LIG A   1      -5.174   7.329 130.632  0.00  0.00    +0.011 A 
BRANCH  15  18
ATOM     18  O   LIG A   1      -1.800   7.779 132.117  0.00  0.00    -0.495 OA
ATOM     19  C   LIG A   1      -1.503   8.305 133.405  0.00  0.00    +0.277 C 
ENDBRANCH  15  18
ENDBRANCH   7  12
BRANCH   1  20
ATOM     20  O   LIG A   1     -12.041   8.377 128.848  0.00  0.00    -0.506 OA
ATOM     21  H   LIG A   1     -12.396   8.943 129.553  0.00  0.00    +0.292 HD
ENDBRANCH   1  20
BRANCH   3  22
ATOM     22  O   LIG A   1     -11.583   3.856 130.332  0.00  0.00    -0.506 OA
ATOM     23  H   LIG A   1     -10.973   3.172 130.014  0.00  0.00    +0.292 HD
ENDBRANCH   3  22
TORSDOF 4
ENDMDL
