MODEL 1
REMARK VINA RESULT:      -6.3      0.000      0.000
REMARK  Name = NuBBE_984
REMARK  6 active torsions:
REMARK  status: ('A' for Active; 'I' for Inactive)
REMARK    1  A    between atoms: C_1  and  C_2
REMARK    2  A    between atoms: C_2  and  C_3
REMARK    3  A    between atoms: C_2  and  O_4
REMARK    4  A    between atoms: C_2  and  C_5
REMARK    5  A    between atoms: C_8  and  O_9
REMARK    6  A    between atoms: C_12  and  C_13
REMARK                            x       y       z     vdW  Elec       q    Type
REMARK                         _______ _______ _______ _____ _____    ______ ____
ROOT
ATOM      1  C   LIG A   1      -7.896  -1.772 126.924  0.00  0.00    +0.023 C 
ATOM      2  C   LIG A   1      -6.789  -2.394 126.030  0.00  0.00    +0.042 C 
ATOM      3  C   LIG A   1      -7.204  -2.918 124.642  0.00  0.00    +0.140 C 
ATOM      4  C   LIG A   1      -7.993  -0.233 126.707  0.00  0.00    +0.011 C 
ATOM      5  C   LIG A   1      -9.182   0.239 125.858  0.00  0.00    +0.038 C 
ATOM      6  C   LIG A   1      -9.118   0.472 124.367  0.00  0.00    -0.012 C 
ATOM      7  C   LIG A   1      -8.146   0.390 123.439  0.00  0.00    -0.020 C 
ATOM      8  C   LIG A   1      -6.696   0.005 123.536  0.00  0.00    +0.032 C 
ATOM      9  C   LIG A   1      -6.389  -1.284 122.752  0.00  0.00    +0.037 C 
ATOM     10  C   LIG A   1      -6.195  -2.547 123.572  0.00  0.00    -0.048 C 
ATOM     11  C   LIG A   1      -5.136  -3.347 123.334  0.00  0.00    +0.010 C 
ENDROOT
BRANCH   1  13
ATOM     12  C   LIG A   1      -8.534  -3.307 128.904  0.00  0.00    +0.041 C 
ATOM     13  C   LIG A   1      -7.648  -2.143 128.433  0.00  0.00    +0.063 C 
ATOM     14  C   LIG A   1      -7.806  -0.947 129.382  0.00  0.00    +0.041 C 
BRANCH  13  15
ATOM     15  O   LIG A   1      -6.291  -2.606 128.544  0.00  0.00    -0.389 OA
ATOM     16  H   LIG A   1      -5.745  -2.095 127.922  0.00  0.00    +0.210 HD
ENDBRANCH  13  15
ENDBRANCH   1  13
BRANCH   3  17
ATOM     17  O   LIG A   1      -8.502  -2.522 124.241  0.00  0.00    -0.388 OA
ATOM     18  H   LIG A   1      -8.879  -3.269 123.747  0.00  0.00    +0.210 HD
ENDBRANCH   3  17
BRANCH   6  19
ATOM     19  C   LIG A   1     -10.449   0.887 123.797  0.00  0.00    +0.254 C 
ATOM     20  O   LIG A   1     -10.882   0.467 122.728  0.00  0.00    -0.296 OA
ENDBRANCH   6  19
TORSDOF 4
ENDMDL
MODEL 2
REMARK VINA RESULT:      -6.2      3.548      5.483
REMARK  Name = NuBBE_984
REMARK  6 active torsions:
REMARK  status: ('A' for Active; 'I' for Inactive)
REMARK    1  A    between atoms: C_1  and  C_2
REMARK    2  A    between atoms: C_2  and  C_3
REMARK    3  A    between atoms: C_2  and  O_4
REMARK    4  A    between atoms: C_2  and  C_5
REMARK    5  A    between atoms: C_8  and  O_9
REMARK    6  A    between atoms: C_12  and  C_13
REMARK                            x       y       z     vdW  Elec       q    Type
REMARK                         _______ _______ _______ _____ _____    ______ ____
ROOT
ATOM      1  C   LIG A   1      -8.305   1.006 124.156  0.00  0.00    +0.023 C 
ATOM      2  C   LIG A   1      -7.408   1.636 123.056  0.00  0.00    +0.042 C 
ATOM      3  C   LIG A   1      -7.501   3.159 122.844  0.00  0.00    +0.140 C 
ATOM      4  C   LIG A   1      -7.555   0.938 125.519  0.00  0.00    +0.011 C 
ATOM      5  C   LIG A   1      -7.972   1.992 126.555  0.00  0.00    +0.038 C 
ATOM      6  C   LIG A   1      -7.278   3.320 126.737  0.00  0.00    -0.012 C 
ATOM      7  C   LIG A   1      -6.213   3.915 126.167  0.00  0.00    -0.020 C 
ATOM      8  C   LIG A   1      -5.278   3.469 125.077  0.00  0.00    +0.032 C 
ATOM      9  C   LIG A   1      -5.383   4.363 123.828  0.00  0.00    +0.037 C 
ATOM     10  C   LIG A   1      -6.135   3.786 122.642  0.00  0.00    -0.048 C 
ATOM     11  C   LIG A   1      -5.596   3.851 121.408  0.00  0.00    +0.010 C 
ENDROOT
BRANCH   1  13
ATOM     12  C   LIG A   1      -7.680  -1.343 123.278  0.00  0.00    +0.041 C 
ATOM     13  C   LIG A   1      -8.825  -0.405 123.693  0.00  0.00    +0.063 C 
ATOM     14  C   LIG A   1      -9.870  -0.325 122.572  0.00  0.00    +0.041 C 
BRANCH  13  15
ATOM     15  O   LIG A   1      -9.455  -1.024 124.829  0.00  0.00    -0.389 OA
ATOM     16  H   LIG A   1      -9.817  -0.320 125.394  0.00  0.00    +0.210 HD
ENDBRANCH  13  15
ENDBRANCH   1  13
BRANCH   3  17
ATOM     17  O   LIG A   1      -8.201   3.841 123.867  0.00  0.00    -0.388 OA
ATOM     18  H   LIG A   1      -8.783   3.186 124.288  0.00  0.00    +0.210 HD
ENDBRANCH   3  17
BRANCH   6  19
ATOM     19  C   LIG A   1      -7.934   4.167 127.795  0.00  0.00    +0.254 C 
ATOM     20  O   LIG A   1      -8.655   5.126 127.537  0.00  0.00    -0.296 OA
ENDBRANCH   6  19
TORSDOF 4
ENDMDL
MODEL 3
REMARK VINA RESULT:      -6.1      2.185      5.494
REMARK  Name = NuBBE_984
REMARK  6 active torsions:
REMARK  status: ('A' for Active; 'I' for Inactive)
REMARK    1  A    between atoms: C_1  and  C_2
REMARK    2  A    between atoms: C_2  and  C_3
REMARK    3  A    between atoms: C_2  and  O_4
REMARK    4  A    between atoms: C_2  and  C_5
REMARK    5  A    between atoms: C_8  and  O_9
REMARK    6  A    between atoms: C_12  and  C_13
REMARK                            x       y       z     vdW  Elec       q    Type
REMARK                         _______ _______ _______ _____ _____    ______ ____
ROOT
ATOM      1  C   LIG A   1      -8.126   1.593 123.933  0.00  0.00    +0.023 C 
ATOM      2  C   LIG A   1      -8.009   1.810 125.465  0.00  0.00    +0.042 C 
ATOM      3  C   LIG A   1      -8.978   1.027 126.373  0.00  0.00    +0.140 C 
ATOM      4  C   LIG A   1      -7.176   0.456 123.454  0.00  0.00    +0.011 C 
ATOM      5  C   LIG A   1      -7.857  -0.884 123.141  0.00  0.00    +0.038 C 
ATOM      6  C   LIG A   1      -7.997  -2.015 124.132  0.00  0.00    -0.012 C 
ATOM      7  C   LIG A   1      -7.606  -2.207 125.406  0.00  0.00    -0.020 C 
ATOM      8  C   LIG A   1      -6.861  -1.328 126.371  0.00  0.00    +0.032 C 
ATOM      9  C   LIG A   1      -7.726  -0.942 127.584  0.00  0.00    +0.037 C 
ATOM     10  C   LIG A   1      -8.280   0.472 127.600  0.00  0.00    -0.048 C 
ATOM     11  C   LIG A   1      -8.167   1.225 128.712  0.00  0.00    +0.010 C 
ENDROOT
BRANCH   1  13
ATOM     12  C   LIG A   1      -8.720   3.076 121.900  0.00  0.00    +0.041 C 
ATOM     13  C   LIG A   1      -7.864   2.944 123.171  0.00  0.00    +0.063 C 
ATOM     14  C   LIG A   1      -6.384   3.168 122.831  0.00  0.00    +0.041 C 
BRANCH  13  15
ATOM     15  O   LIG A   1      -8.275   4.014 124.040  0.00  0.00    -0.389 OA
ATOM     16  H   LIG A   1      -9.093   4.397 123.681  0.00  0.00    +0.210 HD
ENDBRANCH  13  15
ENDBRANCH   1  13
BRANCH   3  17
ATOM     17  O   LIG A   1      -9.682  -0.005 125.709  0.00  0.00    -0.388 OA
ATOM     18  H   LIG A   1      -9.127  -0.800 125.766  0.00  0.00    +0.210 HD
ENDBRANCH   3  17
BRANCH   6  19
ATOM     19  C   LIG A   1      -8.750  -3.186 123.559  0.00  0.00    +0.254 C 
ATOM     20  O   LIG A   1      -9.969  -3.196 123.413  0.00  0.00    -0.296 OA
ENDBRANCH   6  19
TORSDOF 4
ENDMDL
MODEL 4
REMARK VINA RESULT:      -6.1      1.905      2.284
REMARK  Name = NuBBE_984
REMARK  6 active torsions:
REMARK  status: ('A' for Active; 'I' for Inactive)
REMARK    1  A    between atoms: C_1  and  C_2
REMARK    2  A    between atoms: C_2  and  C_3
REMARK    3  A    between atoms: C_2  and  O_4
REMARK    4  A    between atoms: C_2  and  C_5
REMARK    5  A    between atoms: C_8  and  O_9
REMARK    6  A    between atoms: C_12  and  C_13
REMARK                            x       y       z     vdW  Elec       q    Type
REMARK                         _______ _______ _______ _____ _____    ______ ____
ROOT
ATOM      1  C   LIG A   1      -7.841  -1.377 127.433  0.00  0.00    +0.023 C 
ATOM      2  C   LIG A   1      -8.287  -2.366 126.323  0.00  0.00    +0.042 C 
ATOM      3  C   LIG A   1      -9.396  -1.904 125.358  0.00  0.00    +0.140 C 
ATOM      4  C   LIG A   1      -6.644  -0.504 126.957  0.00  0.00    +0.011 C 
ATOM      5  C   LIG A   1      -6.992   0.942 126.574  0.00  0.00    +0.038 C 
ATOM      6  C   LIG A   1      -7.314   1.392 125.169  0.00  0.00    -0.012 C 
ATOM      7  C   LIG A   1      -7.362   0.782 123.970  0.00  0.00    -0.020 C 
ATOM      8  C   LIG A   1      -7.116  -0.643 123.559  0.00  0.00    +0.032 C 
ATOM      9  C   LIG A   1      -8.388  -1.310 123.005  0.00  0.00    +0.037 C 
ATOM     10  C   LIG A   1      -9.095  -2.292 123.923  0.00  0.00    -0.048 C 
ATOM     11  C   LIG A   1      -9.471  -3.498 123.455  0.00  0.00    +0.010 C 
ENDROOT
BRANCH   1  13
ATOM     12  C   LIG A   1      -8.321  -3.461 128.886  0.00  0.00    +0.041 C 
ATOM     13  C   LIG A   1      -7.515  -2.158 128.759  0.00  0.00    +0.063 C 
ATOM     14  C   LIG A   1      -7.695  -1.305 130.022  0.00  0.00    +0.041 C 
BRANCH  13  15
ATOM     15  O   LIG A   1      -6.132  -2.551 128.696  0.00  0.00    -0.389 OA
ATOM     16  H   LIG A   1      -6.011  -3.322 129.276  0.00  0.00    +0.210 HD
ENDBRANCH  13  15
ENDBRANCH   1  13
BRANCH   3  17
ATOM     17  O   LIG A   1      -9.687  -0.521 125.436  0.00  0.00    -0.388 OA
ATOM     18  H   LIG A   1      -9.833  -0.321 126.375  0.00  0.00    +0.210 HD
ENDBRANCH   3  17
BRANCH   6  19
ATOM     19  C   LIG A   1      -7.663   2.856 125.104  0.00  0.00    +0.254 C 
ATOM     20  O   LIG A   1      -8.814   3.276 125.175  0.00  0.00    -0.296 OA
ENDBRANCH   6  19
TORSDOF 4
ENDMDL
MODEL 5
REMARK VINA RESULT:      -6.1      1.882      5.109
REMARK  Name = NuBBE_984
REMARK  6 active torsions:
REMARK  status: ('A' for Active; 'I' for Inactive)
REMARK    1  A    between atoms: C_1  and  C_2
REMARK    2  A    between atoms: C_2  and  C_3
REMARK    3  A    between atoms: C_2  and  O_4
REMARK    4  A    between atoms: C_2  and  C_5
REMARK    5  A    between atoms: C_8  and  O_9
REMARK    6  A    between atoms: C_12  and  C_13
REMARK                            x       y       z     vdW  Elec       q    Type
REMARK                         _______ _______ _______ _____ _____    ______ ____
ROOT
ATOM      1  C   LIG A   1      -8.214   0.839 124.869  0.00  0.00    +0.023 C 
ATOM      2  C   LIG A   1      -8.938  -0.356 124.191  0.00  0.00    +0.042 C 
ATOM      3  C   LIG A   1      -8.094  -1.598 123.844  0.00  0.00    +0.140 C 
ATOM      4  C   LIG A   1      -8.286   0.730 126.420  0.00  0.00    +0.011 C 
ATOM      5  C   LIG A   1      -6.995   0.268 127.110  0.00  0.00    +0.038 C 
ATOM      6  C   LIG A   1      -6.689  -1.169 127.460  0.00  0.00    -0.012 C 
ATOM      7  C   LIG A   1      -7.354  -2.333 127.335  0.00  0.00    -0.020 C 
ATOM      8  C   LIG A   1      -8.705  -2.661 126.764  0.00  0.00    +0.032 C 
ATOM      9  C   LIG A   1      -8.601  -3.560 125.518  0.00  0.00    +0.037 C 
ATOM     10  C   LIG A   1      -8.822  -2.887 124.175  0.00  0.00    -0.048 C 
ATOM     11  C   LIG A   1      -9.650  -3.447 123.271  0.00  0.00    +0.010 C 
ENDROOT
BRANCH   1  13
ATOM     12  C   LIG A   1      -8.570   2.394 122.834  0.00  0.00    +0.041 C 
ATOM     13  C   LIG A   1      -8.801   2.200 124.342  0.00  0.00    +0.063 C 
ATOM     14  C   LIG A   1      -8.280   3.420 125.113  0.00  0.00    +0.041 C 
BRANCH  13  15
ATOM     15  O   LIG A   1     -10.227   2.151 124.523  0.00  0.00    -0.389 OA
ATOM     16  H   LIG A   1     -10.647   2.306 123.660  0.00  0.00    +0.210 HD
ENDBRANCH  13  15
ENDBRANCH   1  13
BRANCH   3  17
ATOM     17  O   LIG A   1      -6.808  -1.603 124.434  0.00  0.00    -0.388 OA
ATOM     18  H   LIG A   1      -6.422  -2.475 124.248  0.00  0.00    +0.210 HD
ENDBRANCH   3  17
BRANCH   6  19
ATOM     19  C   LIG A   1      -5.329  -1.327 128.087  0.00  0.00    +0.254 C 
ATOM     20  O   LIG A   1      -4.801  -2.418 128.282  0.00  0.00    -0.296 OA
ENDBRANCH   6  19
TORSDOF 4
ENDMDL
MODEL 6
REMARK VINA RESULT:      -6.0      7.607      9.874
REMARK  Name = NuBBE_984
REMARK  6 active torsions:
REMARK  status: ('A' for Active; 'I' for Inactive)
REMARK    1  A    between atoms: C_1  and  C_2
REMARK    2  A    between atoms: C_2  and  C_3
REMARK    3  A    between atoms: C_2  and  O_4
REMARK    4  A    between atoms: C_2  and  C_5
REMARK    5  A    between atoms: C_8  and  O_9
REMARK    6  A    between atoms: C_12  and  C_13
REMARK                            x       y       z     vdW  Elec       q    Type
REMARK                         _______ _______ _______ _____ _____    ______ ____
ROOT
ATOM      1  C   LIG A   1     -10.216   5.981 130.169  0.00  0.00    +0.023 C 
ATOM      2  C   LIG A   1     -10.504   4.566 130.738  0.00  0.00    +0.042 C 
ATOM      3  C   LIG A   1      -9.475   3.456 130.447  0.00  0.00    +0.140 C 
ATOM      4  C   LIG A   1      -9.438   6.851 131.200  0.00  0.00    +0.011 C 
ATOM      5  C   LIG A   1      -7.941   7.032 130.914  0.00  0.00    +0.038 C 
ATOM      6  C   LIG A   1      -6.856   6.155 131.493  0.00  0.00    -0.012 C 
ATOM      7  C   LIG A   1      -6.840   5.111 132.344  0.00  0.00    -0.020 C 
ATOM      8  C   LIG A   1      -7.943   4.382 133.059  0.00  0.00    +0.032 C 
ATOM      9  C   LIG A   1      -8.061   2.919 132.596  0.00  0.00    +0.037 C 
ATOM     10  C   LIG A   1      -9.216   2.592 131.666  0.00  0.00    -0.048 C 
ATOM     11  C   LIG A   1      -9.997   1.522 131.915  0.00  0.00    +0.010 C 
ENDROOT
BRANCH   1  13
ATOM     12  C   LIG A   1     -11.316   7.797 128.694  0.00  0.00    +0.041 C 
ATOM     13  C   LIG A   1     -11.555   6.665 129.706  0.00  0.00    +0.063 C 
ATOM     14  C   LIG A   1     -12.405   7.179 130.876  0.00  0.00    +0.041 C 
BRANCH  13  15
ATOM     15  O   LIG A   1     -12.329   5.670 129.014  0.00  0.00    -0.389 OA
ATOM     16  H   LIG A   1     -11.941   5.546 128.131  0.00  0.00    +0.210 HD
ENDBRANCH  13  15
ENDBRANCH   1  13
BRANCH   3  17
ATOM     17  O   LIG A   1      -8.250   3.931 129.921  0.00  0.00    -0.388 OA
ATOM     18  H   LIG A   1      -8.325   3.875 128.954  0.00  0.00    +0.210 HD
ENDBRANCH   3  17
BRANCH   6  19
ATOM     19  C   LIG A   1      -5.486   6.539 131.000  0.00  0.00    +0.254 C 
ATOM     20  O   LIG A   1      -5.271   6.949 129.864  0.00  0.00    -0.296 OA
ENDBRANCH   6  19
TORSDOF 4
ENDMDL
MODEL 7
REMARK VINA RESULT:      -5.9      2.592      4.741
REMARK  Name = NuBBE_984
REMARK  6 active torsions:
REMARK  status: ('A' for Active; 'I' for Inactive)
REMARK    1  A    between atoms: C_1  and  C_2
REMARK    2  A    between atoms: C_2  and  C_3
REMARK    3  A    between atoms: C_2  and  O_4
REMARK    4  A    between atoms: C_2  and  C_5
REMARK    5  A    between atoms: C_8  and  O_9
REMARK    6  A    between atoms: C_12  and  C_13
REMARK                            x       y       z     vdW  Elec       q    Type
REMARK                         _______ _______ _______ _____ _____    ______ ____
ROOT
ATOM      1  C   LIG A   1      -8.816  -0.845 124.949  0.00  0.00    +0.023 C 
ATOM      2  C   LIG A   1      -8.727   0.128 123.743  0.00  0.00    +0.042 C 
ATOM      3  C   LIG A   1      -9.464   1.477 123.858  0.00  0.00    +0.140 C 
ATOM      4  C   LIG A   1      -7.630  -0.626 125.934  0.00  0.00    +0.011 C 
ATOM      5  C   LIG A   1      -7.976   0.131 127.224  0.00  0.00    +0.038 C 
ATOM      6  C   LIG A   1      -7.823   1.624 127.397  0.00  0.00    -0.012 C 
ATOM      7  C   LIG A   1      -7.375   2.624 126.614  0.00  0.00    -0.020 C 
ATOM      8  C   LIG A   1      -6.845   2.637 125.207  0.00  0.00    +0.032 C 
ATOM      9  C   LIG A   1      -7.756   3.434 124.256  0.00  0.00    +0.037 C 
ATOM     10  C   LIG A   1      -8.631   2.624 123.317  0.00  0.00    -0.048 C 
ATOM     11  C   LIG A   1      -8.683   2.938 122.008  0.00  0.00    +0.010 C 
ENDROOT
BRANCH   1  13
ATOM     12  C   LIG A   1      -7.627  -3.134 124.767  0.00  0.00    +0.041 C 
ATOM     13  C   LIG A   1      -8.899  -2.333 124.443  0.00  0.00    +0.063 C 
ATOM     14  C   LIG A   1      -9.220  -2.444 122.946  0.00  0.00    +0.041 C 
BRANCH  13  15
ATOM     15  O   LIG A   1      -9.967  -2.972 125.163  0.00  0.00    -0.389 OA
ATOM     16  H   LIG A   1     -10.775  -2.906 124.627  0.00  0.00    +0.210 HD
ENDBRANCH  13  15
ENDBRANCH   1  13
BRANCH   3  17
ATOM     17  O   LIG A   1      -9.912   1.778 125.166  0.00  0.00    -0.388 OA
ATOM     18  H   LIG A   1      -9.120   1.987 125.688  0.00  0.00    +0.210 HD
ENDBRANCH   3  17
BRANCH   6  19
ATOM     19  C   LIG A   1      -8.284   2.092 128.752  0.00  0.00    +0.254 C 
ATOM     20  O   LIG A   1      -9.364   2.643 128.941  0.00  0.00    -0.296 OA
ENDBRANCH   6  19
TORSDOF 4
ENDMDL
MODEL 8
REMARK VINA RESULT:      -5.9      1.790      5.421
REMARK  Name = NuBBE_984
REMARK  6 active torsions:
REMARK  status: ('A' for Active; 'I' for Inactive)
REMARK    1  A    between atoms: C_1  and  C_2
REMARK    2  A    between atoms: C_2  and  C_3
REMARK    3  A    between atoms: C_2  and  O_4
REMARK    4  A    between atoms: C_2  and  C_5
REMARK    5  A    between atoms: C_8  and  O_9
REMARK    6  A    between atoms: C_12  and  C_13
REMARK                            x       y       z     vdW  Elec       q    Type
REMARK                         _______ _______ _______ _____ _____    ______ ____
ROOT
ATOM      1  C   LIG A   1      -8.555   0.344 124.150  0.00  0.00    +0.023 C 
ATOM      2  C   LIG A   1      -8.459   0.672 125.664  0.00  0.00    +0.042 C 
ATOM      3  C   LIG A   1      -8.395  -0.512 126.648  0.00  0.00    +0.140 C 
ATOM      4  C   LIG A   1      -7.140   0.274 123.502  0.00  0.00    +0.011 C 
ATOM      5  C   LIG A   1      -6.617  -1.140 123.214  0.00  0.00    +0.038 C 
ATOM      6  C   LIG A   1      -5.743  -1.929 124.160  0.00  0.00    -0.012 C 
ATOM      7  C   LIG A   1      -5.193  -1.683 125.364  0.00  0.00    -0.020 C 
ATOM      8  C   LIG A   1      -5.252  -0.483 126.268  0.00  0.00    +0.032 C 
ATOM      9  C   LIG A   1      -5.961  -0.798 127.598  0.00  0.00    +0.037 C 
ATOM     10  C   LIG A   1      -7.379  -0.277 127.750  0.00  0.00    -0.048 C 
ATOM     11  C   LIG A   1      -7.739   0.375 128.874  0.00  0.00    +0.010 C 
ENDROOT
BRANCH   1  13
ATOM     12  C   LIG A   1     -10.405   0.723 122.385  0.00  0.00    +0.041 C 
ATOM     13  C   LIG A   1      -9.487   1.384 123.426  0.00  0.00    +0.063 C 
ATOM     14  C   LIG A   1      -8.713   2.542 122.781  0.00  0.00    +0.041 C 
BRANCH  13  15
ATOM     15  O   LIG A   1     -10.357   1.948 124.423  0.00  0.00    -0.389 OA
ATOM     16  H   LIG A   1      -9.838   2.572 124.958  0.00  0.00    +0.210 HD
ENDBRANCH  13  15
ENDBRANCH   1  13
BRANCH   3  17
ATOM     17  O   LIG A   1      -8.159  -1.762 126.030  0.00  0.00    -0.388 OA
ATOM     18  H   LIG A   1      -8.543  -2.437 126.615  0.00  0.00    +0.210 HD
ENDBRANCH   3  17
BRANCH   6  19
ATOM     19  C   LIG A   1      -5.423  -3.303 123.632  0.00  0.00    +0.254 C 
ATOM     20  O   LIG A   1      -4.455  -3.958 124.006  0.00  0.00    -0.296 OA
ENDBRANCH   6  19
TORSDOF 4
ENDMDL
MODEL 9
REMARK VINA RESULT:      -5.9      7.331      9.845
REMARK  Name = NuBBE_984
REMARK  6 active torsions:
REMARK  status: ('A' for Active; 'I' for Inactive)
REMARK    1  A    between atoms: C_1  and  C_2
REMARK    2  A    between atoms: C_2  and  C_3
REMARK    3  A    between atoms: C_2  and  O_4
REMARK    4  A    between atoms: C_2  and  C_5
REMARK    5  A    between atoms: C_8  and  O_9
REMARK    6  A    between atoms: C_12  and  C_13
REMARK                            x       y       z     vdW  Elec       q    Type
REMARK                         _______ _______ _______ _____ _____    ______ ____
ROOT
ATOM      1  C   LIG A   1     -10.842   6.048 130.678  0.00  0.00    +0.023 C 
ATOM      2  C   LIG A   1      -9.437   6.702 130.589  0.00  0.00    +0.042 C 
ATOM      3  C   LIG A   1      -8.432   6.391 131.715  0.00  0.00    +0.140 C 
ATOM      4  C   LIG A   1     -10.876   4.689 129.920  0.00  0.00    +0.011 C 
ATOM      5  C   LIG A   1     -10.842   3.437 130.808  0.00  0.00    +0.038 C 
ATOM      6  C   LIG A   1      -9.579   2.698 131.182  0.00  0.00    -0.012 C 
ATOM      7  C   LIG A   1      -8.275   2.847 130.883  0.00  0.00    -0.020 C 
ATOM      8  C   LIG A   1      -7.547   3.855 130.038  0.00  0.00    +0.032 C 
ATOM      9  C   LIG A   1      -6.586   4.720 130.873  0.00  0.00    +0.037 C 
ATOM     10  C   LIG A   1      -7.037   6.138 131.174  0.00  0.00    -0.048 C 
ATOM     11  C   LIG A   1      -6.191   7.169 130.979  0.00  0.00    +0.010 C 
ENDROOT
BRANCH   1  13
ATOM     12  C   LIG A   1     -12.846   7.565 131.285  0.00  0.00    +0.041 C 
ATOM     13  C   LIG A   1     -11.941   7.046 130.156  0.00  0.00    +0.063 C 
ATOM     14  C   LIG A   1     -12.797   6.461 129.024  0.00  0.00    +0.041 C 
BRANCH  13  15
ATOM     15  O   LIG A   1     -11.259   8.199 129.631  0.00  0.00    -0.389 OA
ATOM     16  H   LIG A   1     -11.668   8.429 128.779  0.00  0.00    +0.210 HD
ENDBRANCH  13  15
ENDBRANCH   1  13
BRANCH   3  17
ATOM     17  O   LIG A   1      -8.825   5.325 132.559  0.00  0.00    -0.388 OA
ATOM     18  H   LIG A   1      -9.796   5.340 132.589  0.00  0.00    +0.210 HD
ENDBRANCH   3  17
BRANCH   6  19
ATOM     19  C   LIG A   1      -9.848   1.536 132.102  0.00  0.00    +0.254 C 
ATOM     20  O   LIG A   1      -9.709   0.365 131.764  0.00  0.00    -0.296 OA
ENDBRANCH   6  19
TORSDOF 4
ENDMDL
