MODEL 1
REMARK VINA RESULT:      -6.8      0.000      0.000
REMARK  Name = NuBBE_1494
REMARK  4 active torsions:
REMARK  status: ('A' for Active; 'I' for Inactive)
REMARK    1  A    between atoms: C_1  and  C_2
REMARK    2  A    between atoms: C_2  and  C_3
REMARK    3  A    between atoms: C_8  and  C_12
REMARK    4  A    between atoms: C_15  and  C_17
REMARK                            x       y       z     vdW  Elec       q    Type
REMARK                         _______ _______ _______ _____ _____    ______ ____
ROOT
ATOM      1  C   LIG A   1      -5.264  -0.254 125.863  0.00  0.00    +0.011 C 
ATOM      2  C   LIG A   1      -6.109  -1.386 126.491  0.00  0.00    -0.028 C 
ATOM      3  C   LIG A   1      -5.400  -1.793 127.801  0.00  0.00    +0.011 C 
ATOM      4  C   LIG A   1      -6.274  -2.605 125.514  0.00  0.00    +0.024 C 
ATOM      5  C   LIG A   1      -7.244  -2.230 124.311  0.00  0.00    +0.022 C 
ATOM      6  C   LIG A   1      -8.685  -2.658 124.628  0.00  0.00    -0.073 C 
ATOM      7  C   LIG A   1      -9.222  -2.504 125.857  0.00  0.00    -0.027 C 
ATOM      8  C   LIG A   1      -8.633  -1.841 127.075  0.00  0.00    +0.028 C 
ATOM      9  C   LIG A   1      -7.521  -0.802 126.857  0.00  0.00    +0.011 C 
ATOM     10  C   LIG A   1      -9.535  -3.297 123.559  0.00  0.00    +0.039 C 
ATOM     11  C   LIG A   1      -6.710  -2.643 122.915  0.00  0.00    +0.013 C 
ATOM     12  C   LIG A   1      -5.199  -2.534 122.857  0.00  0.00    +0.031 C 
ATOM     13  C   LIG A   1      -4.702  -3.559 123.827  0.00  0.00    -0.076 C 
ATOM     14  C   LIG A   1      -5.068  -3.443 125.117  0.00  0.00    -0.023 C 
ATOM     15  C   LIG A   1      -4.235  -4.872 123.260  0.00  0.00    +0.038 C 
ENDROOT
TORSDOF 0
ENDMDL
MODEL 2
REMARK VINA RESULT:      -6.6      1.423      2.359
REMARK  Name = NuBBE_1494
REMARK  4 active torsions:
REMARK  status: ('A' for Active; 'I' for Inactive)
REMARK    1  A    between atoms: C_1  and  C_2
REMARK    2  A    between atoms: C_2  and  C_3
REMARK    3  A    between atoms: C_8  and  C_12
REMARK    4  A    between atoms: C_15  and  C_17
REMARK                            x       y       z     vdW  Elec       q    Type
REMARK                         _______ _______ _______ _____ _____    ______ ____
ROOT
ATOM      1  C   LIG A   1      -7.191   0.464 124.710  0.00  0.00    +0.011 C 
ATOM      2  C   LIG A   1      -6.591  -0.054 126.037  0.00  0.00    -0.028 C 
ATOM      3  C   LIG A   1      -5.249   0.684 126.234  0.00  0.00    +0.011 C 
ATOM      4  C   LIG A   1      -6.403  -1.613 126.026  0.00  0.00    +0.024 C 
ATOM      5  C   LIG A   1      -7.812  -2.347 126.105  0.00  0.00    +0.022 C 
ATOM      6  C   LIG A   1      -8.161  -2.688 127.562  0.00  0.00    -0.073 C 
ATOM      7  C   LIG A   1      -7.911  -1.831 128.575  0.00  0.00    -0.027 C 
ATOM      8  C   LIG A   1      -7.378  -0.423 128.520  0.00  0.00    +0.028 C 
ATOM      9  C   LIG A   1      -7.555   0.358 127.208  0.00  0.00    +0.011 C 
ATOM     10  C   LIG A   1      -8.775  -4.023 127.898  0.00  0.00    +0.039 C 
ATOM     11  C   LIG A   1      -7.983  -3.501 125.084  0.00  0.00    +0.013 C 
ATOM     12  C   LIG A   1      -7.253  -3.194 123.791  0.00  0.00    +0.031 C 
ATOM     13  C   LIG A   1      -5.804  -3.164 124.165  0.00  0.00    -0.076 C 
ATOM     14  C   LIG A   1      -5.404  -2.262 125.081  0.00  0.00    -0.023 C 
ATOM     15  C   LIG A   1      -4.992  -4.396 123.871  0.00  0.00    +0.038 C 
ENDROOT
TORSDOF 0
ENDMDL
MODEL 3
REMARK VINA RESULT:      -6.3      1.440      4.220
REMARK  Name = NuBBE_1494
REMARK  4 active torsions:
REMARK  status: ('A' for Active; 'I' for Inactive)
REMARK    1  A    between atoms: C_1  and  C_2
REMARK    2  A    between atoms: C_2  and  C_3
REMARK    3  A    between atoms: C_8  and  C_12
REMARK    4  A    between atoms: C_15  and  C_17
REMARK                            x       y       z     vdW  Elec       q    Type
REMARK                         _______ _______ _______ _____ _____    ______ ____
ROOT
ATOM      1  C   LIG A   1      -5.730  -2.476 123.422  0.00  0.00    +0.011 C 
ATOM      2  C   LIG A   1      -7.197  -2.342 123.891  0.00  0.00    -0.028 C 
ATOM      3  C   LIG A   1      -8.030  -1.982 122.641  0.00  0.00    +0.011 C 
ATOM      4  C   LIG A   1      -7.354  -1.266 125.025  0.00  0.00    +0.024 C 
ATOM      5  C   LIG A   1      -6.721  -1.793 126.386  0.00  0.00    +0.022 C 
ATOM      6  C   LIG A   1      -7.798  -2.453 127.260  0.00  0.00    -0.073 C 
ATOM      7  C   LIG A   1      -8.755  -3.248 126.736  0.00  0.00    -0.027 C 
ATOM      8  C   LIG A   1      -8.923  -3.724 125.316  0.00  0.00    +0.028 C 
ATOM      9  C   LIG A   1      -7.678  -3.743 124.415  0.00  0.00    +0.011 C 
ATOM     10  C   LIG A   1      -7.824  -2.199 128.746  0.00  0.00    +0.039 C 
ATOM     11  C   LIG A   1      -5.811  -0.762 127.102  0.00  0.00    +0.013 C 
ATOM     12  C   LIG A   1      -5.073   0.101 126.097  0.00  0.00    +0.031 C 
ATOM     13  C   LIG A   1      -6.144   0.883 125.403  0.00  0.00    -0.076 C 
ATOM     14  C   LIG A   1      -7.094   0.204 124.734  0.00  0.00    -0.023 C 
ATOM     15  C   LIG A   1      -6.369   2.298 125.862  0.00  0.00    +0.038 C 
ENDROOT
TORSDOF 0
ENDMDL
MODEL 4
REMARK VINA RESULT:      -6.2      1.689      4.193
REMARK  Name = NuBBE_1494
REMARK  4 active torsions:
REMARK  status: ('A' for Active; 'I' for Inactive)
REMARK    1  A    between atoms: C_1  and  C_2
REMARK    2  A    between atoms: C_2  and  C_3
REMARK    3  A    between atoms: C_8  and  C_12
REMARK    4  A    between atoms: C_15  and  C_17
REMARK                            x       y       z     vdW  Elec       q    Type
REMARK                         _______ _______ _______ _____ _____    ______ ____
ROOT
ATOM      1  C   LIG A   1      -7.329   1.110 126.253  0.00  0.00    +0.011 C 
ATOM      2  C   LIG A   1      -7.848   0.123 125.181  0.00  0.00    -0.028 C 
ATOM      3  C   LIG A   1      -9.336   0.466 124.947  0.00  0.00    +0.011 C 
ATOM      4  C   LIG A   1      -7.657  -1.373 125.619  0.00  0.00    +0.024 C 
ATOM      5  C   LIG A   1      -6.118  -1.774 125.580  0.00  0.00    +0.022 C 
ATOM      6  C   LIG A   1      -5.766  -2.425 124.234  0.00  0.00    -0.073 C 
ATOM      7  C   LIG A   1      -6.260  -1.961 123.066  0.00  0.00    -0.027 C 
ATOM      8  C   LIG A   1      -7.112  -0.745 122.810  0.00  0.00    +0.028 C 
ATOM      9  C   LIG A   1      -7.066   0.391 123.844  0.00  0.00    +0.011 C 
ATOM     10  C   LIG A   1      -4.867  -3.633 124.192  0.00  0.00    +0.039 C 
ATOM     11  C   LIG A   1      -5.630  -2.531 126.842  0.00  0.00    +0.013 C 
ATOM     12  C   LIG A   1      -6.351  -2.041 128.082  0.00  0.00    +0.031 C 
ATOM     13  C   LIG A   1      -7.780  -2.432 127.876  0.00  0.00    -0.076 C 
ATOM     14  C   LIG A   1      -8.427  -1.932 126.806  0.00  0.00    -0.023 C 
ATOM     15  C   LIG A   1      -8.259  -3.679 128.568  0.00  0.00    +0.038 C 
ENDROOT
TORSDOF 0
ENDMDL
MODEL 5
REMARK VINA RESULT:      -6.2      1.477      2.210
REMARK  Name = NuBBE_1494
REMARK  4 active torsions:
REMARK  status: ('A' for Active; 'I' for Inactive)
REMARK    1  A    between atoms: C_1  and  C_2
REMARK    2  A    between atoms: C_2  and  C_3
REMARK    3  A    between atoms: C_8  and  C_12
REMARK    4  A    between atoms: C_15  and  C_17
REMARK                            x       y       z     vdW  Elec       q    Type
REMARK                         _______ _______ _______ _____ _____    ______ ____
ROOT
ATOM      1  C   LIG A   1      -5.424  -0.398 128.052  0.00  0.00    +0.011 C 
ATOM      2  C   LIG A   1      -5.770  -1.900 128.178  0.00  0.00    -0.028 C 
ATOM      3  C   LIG A   1      -4.507  -2.600 128.726  0.00  0.00    +0.011 C 
ATOM      4  C   LIG A   1      -6.228  -2.513 126.806  0.00  0.00    +0.024 C 
ATOM      5  C   LIG A   1      -7.670  -1.974 126.407  0.00  0.00    +0.022 C 
ATOM      6  C   LIG A   1      -8.759  -2.951 126.879  0.00  0.00    -0.073 C 
ATOM      7  C   LIG A   1      -8.696  -3.564 128.080  0.00  0.00    -0.027 C 
ATOM      8  C   LIG A   1      -7.694  -3.380 129.191  0.00  0.00    +0.028 C 
ATOM      9  C   LIG A   1      -6.918  -2.055 129.241  0.00  0.00    +0.011 C 
ATOM     10  C   LIG A   1      -9.927  -3.270 125.981  0.00  0.00    +0.039 C 
ATOM     11  C   LIG A   1      -7.784  -1.499 124.936  0.00  0.00    +0.013 C 
ATOM     12  C   LIG A   1      -6.483  -0.880 124.463  0.00  0.00    +0.031 C 
ATOM     13  C   LIG A   1      -5.496  -2.005 124.475  0.00  0.00    -0.076 C 
ATOM     14  C   LIG A   1      -5.250  -2.622 125.646  0.00  0.00    -0.023 C 
ATOM     15  C   LIG A   1      -5.199  -2.673 123.160  0.00  0.00    +0.038 C 
ENDROOT
TORSDOF 0
ENDMDL
MODEL 6
REMARK VINA RESULT:      -6.0      1.923      3.367
REMARK  Name = NuBBE_1494
REMARK  4 active torsions:
REMARK  status: ('A' for Active; 'I' for Inactive)
REMARK    1  A    between atoms: C_1  and  C_2
REMARK    2  A    between atoms: C_2  and  C_3
REMARK    3  A    between atoms: C_8  and  C_12
REMARK    4  A    between atoms: C_15  and  C_17
REMARK                            x       y       z     vdW  Elec       q    Type
REMARK                         _______ _______ _______ _____ _____    ______ ____
ROOT
ATOM      1  C   LIG A   1      -5.898  -2.180 126.864  0.00  0.00    +0.011 C 
ATOM      2  C   LIG A   1      -7.244  -1.607 127.365  0.00  0.00    -0.028 C 
ATOM      3  C   LIG A   1      -7.741  -2.556 128.478  0.00  0.00    +0.011 C 
ATOM      4  C   LIG A   1      -8.292  -1.472 126.203  0.00  0.00    +0.024 C 
ATOM      5  C   LIG A   1      -7.887  -0.289 125.220  0.00  0.00    +0.022 C 
ATOM      6  C   LIG A   1      -8.597   1.012 125.624  0.00  0.00    -0.073 C 
ATOM      7  C   LIG A   1      -8.742   1.375 126.916  0.00  0.00    -0.027 C 
ATOM      8  C   LIG A   1      -8.204   0.710 128.157  0.00  0.00    +0.028 C 
ATOM      9  C   LIG A   1      -6.973  -0.198 128.005  0.00  0.00    +0.011 C 
ATOM     10  C   LIG A   1      -9.179   1.914 124.565  0.00  0.00    +0.039 C 
ATOM     11  C   LIG A   1      -7.966  -0.660 123.717  0.00  0.00    +0.013 C 
ATOM     12  C   LIG A   1      -7.597  -2.115 123.497  0.00  0.00    +0.031 C 
ATOM     13  C   LIG A   1      -8.674  -2.892 124.187  0.00  0.00    -0.076 C 
ATOM     14  C   LIG A   1      -8.839  -2.711 125.510  0.00  0.00    -0.023 C 
ATOM     15  C   LIG A   1      -9.776  -3.450 123.329  0.00  0.00    +0.038 C 
ENDROOT
TORSDOF 0
ENDMDL
MODEL 7
REMARK VINA RESULT:      -5.9      3.216      4.738
REMARK  Name = NuBBE_1494
REMARK  4 active torsions:
REMARK  status: ('A' for Active; 'I' for Inactive)
REMARK    1  A    between atoms: C_1  and  C_2
REMARK    2  A    between atoms: C_2  and  C_3
REMARK    3  A    between atoms: C_8  and  C_12
REMARK    4  A    between atoms: C_15  and  C_17
REMARK                            x       y       z     vdW  Elec       q    Type
REMARK                         _______ _______ _______ _____ _____    ______ ____
ROOT
ATOM      1  C   LIG A   1      -7.618   1.751 126.644  0.00  0.00    +0.011 C 
ATOM      2  C   LIG A   1      -6.525   1.176 125.713  0.00  0.00    -0.028 C 
ATOM      3  C   LIG A   1      -5.280   2.072 125.886  0.00  0.00    +0.011 C 
ATOM      4  C   LIG A   1      -7.000   1.120 124.217  0.00  0.00    +0.024 C 
ATOM      5  C   LIG A   1      -8.096  -0.016 124.021  0.00  0.00    +0.022 C 
ATOM      6  C   LIG A   1      -7.437  -1.325 123.559  0.00  0.00    -0.073 C 
ATOM      7  C   LIG A   1      -6.263  -1.753 124.072  0.00  0.00    -0.027 C 
ATOM      8  C   LIG A   1      -5.442  -1.164 125.190  0.00  0.00    +0.028 C 
ATOM      9  C   LIG A   1      -6.163  -0.270 126.212  0.00  0.00    +0.011 C 
ATOM     10  C   LIG A   1      -8.086  -2.159 122.485  0.00  0.00    +0.039 C 
ATOM     11  C   LIG A   1      -9.337   0.435 123.209  0.00  0.00    +0.013 C 
ATOM     12  C   LIG A   1      -9.660   1.892 123.475  0.00  0.00    +0.031 C 
ATOM     13  C   LIG A   1      -8.491   2.651 122.928  0.00  0.00    -0.076 C 
ATOM     14  C   LIG A   1      -7.274   2.403 123.447  0.00  0.00    -0.023 C 
ATOM     15  C   LIG A   1      -8.651   3.272 121.567  0.00  0.00    +0.038 C 
ENDROOT
TORSDOF 0
ENDMDL
MODEL 8
REMARK VINA RESULT:      -5.8      3.689      6.002
REMARK  Name = NuBBE_1494
REMARK  4 active torsions:
REMARK  status: ('A' for Active; 'I' for Inactive)
REMARK    1  A    between atoms: C_1  and  C_2
REMARK    2  A    between atoms: C_2  and  C_3
REMARK    3  A    between atoms: C_8  and  C_12
REMARK    4  A    between atoms: C_15  and  C_17
REMARK                            x       y       z     vdW  Elec       q    Type
REMARK                         _______ _______ _______ _____ _____    ______ ____
ROOT
ATOM      1  C   LIG A   1      -4.475  -3.247 129.883  0.00  0.00    +0.011 C 
ATOM      2  C   LIG A   1      -5.674  -3.625 130.784  0.00  0.00    -0.028 C 
ATOM      3  C   LIG A   1      -5.644  -5.161 130.938  0.00  0.00    +0.011 C 
ATOM      4  C   LIG A   1      -7.037  -3.125 130.186  0.00  0.00    +0.024 C 
ATOM      5  C   LIG A   1      -7.150  -1.542 130.299  0.00  0.00    +0.022 C 
ATOM      6  C   LIG A   1      -7.899  -1.147 131.581  0.00  0.00    -0.073 C 
ATOM      7  C   LIG A   1      -7.693  -1.785 132.753  0.00  0.00    -0.027 C 
ATOM      8  C   LIG A   1      -6.699  -2.868 133.085  0.00  0.00    +0.028 C 
ATOM      9  C   LIG A   1      -5.447  -2.984 132.202  0.00  0.00    +0.011 C 
ATOM     10  C   LIG A   1      -8.916  -0.035 131.549  0.00  0.00    +0.039 C 
ATOM     11  C   LIG A   1      -7.630  -0.848 128.999  0.00  0.00    +0.013 C 
ATOM     12  C   LIG A   1      -7.121  -1.580 127.772  0.00  0.00    +0.031 C 
ATOM     13  C   LIG A   1      -7.792  -2.917 127.816  0.00  0.00    -0.076 C 
ATOM     14  C   LIG A   1      -7.566  -3.706 128.883  0.00  0.00    -0.023 C 
ATOM     15  C   LIG A   1      -9.002  -3.108 126.943  0.00  0.00    +0.038 C 
ENDROOT
TORSDOF 0
ENDMDL
MODEL 9
REMARK VINA RESULT:      -5.8      1.943      4.806
REMARK  Name = NuBBE_1494
REMARK  4 active torsions:
REMARK  status: ('A' for Active; 'I' for Inactive)
REMARK    1  A    between atoms: C_1  and  C_2
REMARK    2  A    between atoms: C_2  and  C_3
REMARK    3  A    between atoms: C_8  and  C_12
REMARK    4  A    between atoms: C_15  and  C_17
REMARK                            x       y       z     vdW  Elec       q    Type
REMARK                         _______ _______ _______ _____ _____    ______ ____
ROOT
ATOM      1  C   LIG A   1      -5.352  -0.459 125.862  0.00  0.00    +0.011 C 
ATOM      2  C   LIG A   1      -6.844  -0.640 125.498  0.00  0.00    -0.028 C 
ATOM      3  C   LIG A   1      -7.229   0.557 124.602  0.00  0.00    +0.011 C 
ATOM      4  C   LIG A   1      -7.753  -0.728 126.776  0.00  0.00    +0.024 C 
ATOM      5  C   LIG A   1      -7.527  -2.111 127.528  0.00  0.00    +0.022 C 
ATOM      6  C   LIG A   1      -8.564  -3.148 127.071  0.00  0.00    -0.073 C 
ATOM      7  C   LIG A   1      -8.939  -3.261 125.779  0.00  0.00    -0.027 C 
ATOM      8  C   LIG A   1      -8.407  -2.540 124.568  0.00  0.00    +0.028 C 
ATOM      9  C   LIG A   1      -6.988  -1.955 124.650  0.00  0.00    +0.011 C 
ATOM     10  C   LIG A   1      -9.216  -4.059 128.080  0.00  0.00    +0.039 C 
ATOM     11  C   LIG A   1      -7.342  -1.975 129.061  0.00  0.00    +0.013 C 
ATOM     12  C   LIG A   1      -6.619  -0.688 129.409  0.00  0.00    +0.031 C 
ATOM     13  C   LIG A   1      -7.555   0.403 128.991  0.00  0.00    -0.076 C 
ATOM     14  C   LIG A   1      -7.909   0.474 127.695  0.00  0.00    -0.023 C 
ATOM     15  C   LIG A   1      -8.389   1.043 130.068  0.00  0.00    +0.038 C 
ENDROOT
TORSDOF 0
ENDMDL
