MODEL 1
REMARK VINA RESULT:      -6.6      0.000      0.000
REMARK  Name = NuBBE_1941
REMARK  6 active torsions:
REMARK  status: ('A' for Active; 'I' for Inactive)
REMARK    1  A    between atoms: C_1  and  C_2
REMARK    2  A    between atoms: C_9  and  C_12
REMARK    3  A    between atoms: C_9  and  O_13
REMARK    4  A    between atoms: C_14  and  C_18
REMARK    5  A    between atoms: C_18  and  C_19
REMARK    6  A    between atoms: C_18  and  C_20
REMARK                            x       y       z     vdW  Elec       q    Type
REMARK                         _______ _______ _______ _____ _____    ______ ____
ROOT
ATOM      1  C   LIG A   1      -9.424  -3.103 123.674  0.00  0.00    +0.008 C 
ATOM      2  C   LIG A   1      -8.740  -3.603 124.949  0.00  0.00    -0.007 C 
ATOM      3  C   LIG A   1      -7.421  -2.898 125.208  0.00  0.00    -0.017 C 
ATOM      4  C   LIG A   1      -7.061  -2.488 126.633  0.00  0.00    +0.006 C 
ATOM      5  C   LIG A   1      -7.335  -1.445 125.563  0.00  0.00    +0.031 C 
ATOM      6  C   LIG A   1      -6.219  -0.819 124.762  0.00  0.00    +0.067 C 
ATOM      7  C   LIG A   1      -5.324  -2.005 124.352  0.00  0.00    +0.035 C 
ATOM      8  C   LIG A   1      -6.281  -3.205 124.247  0.00  0.00    +0.010 C 
ATOM      9  C   LIG A   1      -6.753  -0.063 123.548  0.00  0.00    +0.041 C 
ATOM     10  C   LIG A   1      -8.045  -2.625 127.781  0.00  0.00    -0.004 C 
ATOM     11  C   LIG A   1      -9.044  -3.750 127.467  0.00  0.00    +0.004 C 
ATOM     12  C   LIG A   1      -9.722  -3.497 126.123  0.00  0.00    +0.004 C 
ENDROOT
BRANCH  10  13
ATOM     13  C   LIG A   1      -7.302  -2.829 129.136  0.00  0.00    -0.014 C 
ATOM     14  C   LIG A   1      -7.767  -1.860 130.228  0.00  0.00    +0.007 C 
ATOM     15  C   LIG A   1      -5.784  -2.670 128.957  0.00  0.00    +0.007 C 
ENDBRANCH  10  13
BRANCH   6  16
ATOM     16  O   LIG A   1      -5.497   0.092 125.576  0.00  0.00    -0.389 OA
ATOM     17  H   LIG A   1      -4.560  -0.162 125.530  0.00  0.00    +0.210 HD
ENDBRANCH   6  16
TORSDOF 2
ENDMDL
MODEL 2
REMARK VINA RESULT:      -6.4      2.695      5.256
REMARK  Name = NuBBE_1941
REMARK  6 active torsions:
REMARK  status: ('A' for Active; 'I' for Inactive)
REMARK    1  A    between atoms: C_1  and  C_2
REMARK    2  A    between atoms: C_9  and  C_12
REMARK    3  A    between atoms: C_9  and  O_13
REMARK    4  A    between atoms: C_14  and  C_18
REMARK    5  A    between atoms: C_18  and  C_19
REMARK    6  A    between atoms: C_18  and  C_20
REMARK                            x       y       z     vdW  Elec       q    Type
REMARK                         _______ _______ _______ _____ _____    ______ ____
ROOT
ATOM      1  C   LIG A   1      -5.703  -2.200 125.990  0.00  0.00    +0.008 C 
ATOM      2  C   LIG A   1      -5.635  -0.900 125.183  0.00  0.00    -0.007 C 
ATOM      3  C   LIG A   1      -6.657  -0.865 124.061  0.00  0.00    -0.017 C 
ATOM      4  C   LIG A   1      -7.412   0.430 123.780  0.00  0.00    +0.006 C 
ATOM      5  C   LIG A   1      -8.133  -0.798 124.311  0.00  0.00    +0.031 C 
ATOM      6  C   LIG A   1      -8.823  -1.774 123.388  0.00  0.00    +0.067 C 
ATOM      7  C   LIG A   1      -7.811  -2.010 122.249  0.00  0.00    +0.035 C 
ATOM      8  C   LIG A   1      -6.430  -1.824 122.900  0.00  0.00    +0.010 C 
ATOM      9  C   LIG A   1      -9.181  -3.071 124.108  0.00  0.00    +0.041 C 
ATOM     10  C   LIG A   1      -7.288   1.644 124.682  0.00  0.00    -0.004 C 
ATOM     11  C   LIG A   1      -5.927   1.614 125.395  0.00  0.00    +0.004 C 
ATOM     12  C   LIG A   1      -5.748   0.294 126.140  0.00  0.00    +0.004 C 
ENDROOT
BRANCH  10  13
ATOM     13  C   LIG A   1      -7.530   2.962 123.886  0.00  0.00    -0.014 C 
ATOM     14  C   LIG A   1      -8.524   2.792 122.731  0.00  0.00    +0.007 C 
ATOM     15  C   LIG A   1      -6.211   3.508 123.316  0.00  0.00    +0.007 C 
ENDBRANCH  10  13
BRANCH   6  16
ATOM     16  O   LIG A   1     -10.016  -1.195 122.884  0.00  0.00    -0.389 OA
ATOM     17  H   LIG A   1      -9.943  -1.184 121.915  0.00  0.00    +0.210 HD
ENDBRANCH   6  16
TORSDOF 2
ENDMDL
MODEL 3
REMARK VINA RESULT:      -6.4      2.395      5.242
REMARK  Name = NuBBE_1941
REMARK  6 active torsions:
REMARK  status: ('A' for Active; 'I' for Inactive)
REMARK    1  A    between atoms: C_1  and  C_2
REMARK    2  A    between atoms: C_9  and  C_12
REMARK    3  A    between atoms: C_9  and  O_13
REMARK    4  A    between atoms: C_14  and  C_18
REMARK    5  A    between atoms: C_18  and  C_19
REMARK    6  A    between atoms: C_18  and  C_20
REMARK                            x       y       z     vdW  Elec       q    Type
REMARK                         _______ _______ _______ _____ _____    ______ ____
ROOT
ATOM      1  C   LIG A   1      -5.373  -1.310 126.510  0.00  0.00    +0.008 C 
ATOM      2  C   LIG A   1      -6.071  -0.727 125.278  0.00  0.00    -0.007 C 
ATOM      3  C   LIG A   1      -7.320  -1.503 124.903  0.00  0.00    -0.017 C 
ATOM      4  C   LIG A   1      -8.566  -0.742 124.460  0.00  0.00    +0.006 C 
ATOM      5  C   LIG A   1      -8.548  -1.526 125.761  0.00  0.00    +0.031 C 
ATOM      6  C   LIG A   1      -9.054  -2.946 125.839  0.00  0.00    +0.067 C 
ATOM      7  C   LIG A   1      -8.441  -3.643 124.609  0.00  0.00    +0.035 C 
ATOM      8  C   LIG A   1      -7.113  -2.909 124.358  0.00  0.00    +0.010 C 
ATOM      9  C   LIG A   1      -8.636  -3.622 127.142  0.00  0.00    +0.041 C 
ATOM     10  C   LIG A   1      -8.649   0.772 124.527  0.00  0.00    -0.004 C 
ATOM     11  C   LIG A   1      -7.235   1.366 124.431  0.00  0.00    +0.004 C 
ATOM     12  C   LIG A   1      -6.334   0.768 125.508  0.00  0.00    +0.004 C 
ENDROOT
BRANCH  10  13
ATOM     13  C   LIG A   1      -9.620   1.329 123.442  0.00  0.00    -0.014 C 
ATOM     14  C   LIG A   1     -10.107   0.254 122.464  0.00  0.00    +0.007 C 
ATOM     15  C   LIG A   1      -8.952   2.454 122.635  0.00  0.00    +0.007 C 
ENDBRANCH  10  13
BRANCH   6  16
ATOM     16  O   LIG A   1     -10.471  -2.954 125.763  0.00  0.00    -0.389 OA
ATOM     17  H   LIG A   1     -10.783  -2.105 126.118  0.00  0.00    +0.210 HD
ENDBRANCH   6  16
TORSDOF 2
ENDMDL
MODEL 4
REMARK VINA RESULT:      -6.2      1.616      4.421
REMARK  Name = NuBBE_1941
REMARK  6 active torsions:
REMARK  status: ('A' for Active; 'I' for Inactive)
REMARK    1  A    between atoms: C_1  and  C_2
REMARK    2  A    between atoms: C_9  and  C_12
REMARK    3  A    between atoms: C_9  and  O_13
REMARK    4  A    between atoms: C_14  and  C_18
REMARK    5  A    between atoms: C_18  and  C_19
REMARK    6  A    between atoms: C_18  and  C_20
REMARK                            x       y       z     vdW  Elec       q    Type
REMARK                         _______ _______ _______ _____ _____    ______ ____
ROOT
ATOM      1  C   LIG A   1      -9.190  -3.859 128.081  0.00  0.00    +0.008 C 
ATOM      2  C   LIG A   1      -8.686  -3.069 126.871  0.00  0.00    -0.007 C 
ATOM      3  C   LIG A   1      -7.489  -2.199 127.210  0.00  0.00    -0.017 C 
ATOM      4  C   LIG A   1      -6.332  -2.102 126.221  0.00  0.00    +0.006 C 
ATOM      5  C   LIG A   1      -6.151  -2.767 127.575  0.00  0.00    +0.031 C 
ATOM      6  C   LIG A   1      -5.614  -2.010 128.765  0.00  0.00    +0.067 C 
ATOM      7  C   LIG A   1      -6.383  -0.674 128.753  0.00  0.00    +0.035 C 
ATOM      8  C   LIG A   1      -7.746  -1.008 128.123  0.00  0.00    +0.010 C 
ATOM      9  C   LIG A   1      -5.830  -2.779 130.065  0.00  0.00    +0.041 C 
ATOM     10  C   LIG A   1      -6.267  -2.966 124.974  0.00  0.00    -0.004 C 
ATOM     11  C   LIG A   1      -7.690  -3.363 124.552  0.00  0.00    +0.004 C 
ATOM     12  C   LIG A   1      -8.418  -4.038 125.711  0.00  0.00    +0.004 C 
ENDROOT
BRANCH  10  13
ATOM     13  C   LIG A   1      -5.471  -2.254 123.839  0.00  0.00    -0.014 C 
ATOM     14  C   LIG A   1      -6.358  -1.810 122.670  0.00  0.00    +0.007 C 
ATOM     15  C   LIG A   1      -4.364  -3.168 123.290  0.00  0.00    +0.007 C 
ENDBRANCH  10  13
BRANCH   6  16
ATOM     16  O   LIG A   1      -4.222  -1.785 128.601  0.00  0.00    -0.389 OA
ATOM     17  H   LIG A   1      -3.855  -2.568 128.158  0.00  0.00    +0.210 HD
ENDBRANCH   6  16
TORSDOF 2
ENDMDL
MODEL 5
REMARK VINA RESULT:      -6.0      1.829      3.139
REMARK  Name = NuBBE_1941
REMARK  6 active torsions:
REMARK  status: ('A' for Active; 'I' for Inactive)
REMARK    1  A    between atoms: C_1  and  C_2
REMARK    2  A    between atoms: C_9  and  C_12
REMARK    3  A    between atoms: C_9  and  O_13
REMARK    4  A    between atoms: C_14  and  C_18
REMARK    5  A    between atoms: C_18  and  C_19
REMARK    6  A    between atoms: C_18  and  C_20
REMARK                            x       y       z     vdW  Elec       q    Type
REMARK                         _______ _______ _______ _____ _____    ______ ____
ROOT
ATOM      1  C   LIG A   1      -6.963   1.234 124.778  0.00  0.00    +0.008 C 
ATOM      2  C   LIG A   1      -7.792   0.428 125.782  0.00  0.00    -0.007 C 
ATOM      3  C   LIG A   1      -7.982  -1.013 125.345  0.00  0.00    -0.017 C 
ATOM      4  C   LIG A   1      -7.885  -2.127 126.383  0.00  0.00    +0.006 C 
ATOM      5  C   LIG A   1      -6.853  -1.995 125.275  0.00  0.00    +0.031 C 
ATOM      6  C   LIG A   1      -6.970  -2.772 123.986  0.00  0.00    +0.067 C 
ATOM      7  C   LIG A   1      -8.446  -2.615 123.572  0.00  0.00    +0.035 C 
ATOM      8  C   LIG A   1      -8.871  -1.247 124.131  0.00  0.00    +0.010 C 
ATOM      9  C   LIG A   1      -6.020  -2.236 122.919  0.00  0.00    +0.041 C 
ATOM     10  C   LIG A   1      -7.452  -1.857 127.813  0.00  0.00    -0.004 C 
ATOM     11  C   LIG A   1      -7.788  -0.404 128.183  0.00  0.00    +0.004 C 
ATOM     12  C   LIG A   1      -7.163   0.558 127.176  0.00  0.00    +0.004 C 
ENDROOT
BRANCH  10  13
ATOM     13  C   LIG A   1      -8.075  -2.896 128.793  0.00  0.00    -0.014 C 
ATOM     14  C   LIG A   1      -7.026  -3.641 129.626  0.00  0.00    +0.007 C 
ATOM     15  C   LIG A   1      -8.917  -3.932 128.031  0.00  0.00    +0.007 C 
ENDBRANCH  10  13
BRANCH   6  16
ATOM     16  O   LIG A   1      -6.659  -4.137 124.220  0.00  0.00    -0.389 OA
ATOM     17  H   LIG A   1      -6.333  -4.205 125.133  0.00  0.00    +0.210 HD
ENDBRANCH   6  16
TORSDOF 2
ENDMDL
MODEL 6
REMARK VINA RESULT:      -5.9      1.630      4.426
REMARK  Name = NuBBE_1941
REMARK  6 active torsions:
REMARK  status: ('A' for Active; 'I' for Inactive)
REMARK    1  A    between atoms: C_1  and  C_2
REMARK    2  A    between atoms: C_9  and  C_12
REMARK    3  A    between atoms: C_9  and  O_13
REMARK    4  A    between atoms: C_14  and  C_18
REMARK    5  A    between atoms: C_18  and  C_19
REMARK    6  A    between atoms: C_18  and  C_20
REMARK                            x       y       z     vdW  Elec       q    Type
REMARK                         _______ _______ _______ _____ _____    ______ ____
ROOT
ATOM      1  C   LIG A   1      -7.552  -3.242 130.509  0.00  0.00    +0.008 C 
ATOM      2  C   LIG A   1      -8.337  -2.775 129.279  0.00  0.00    -0.007 C 
ATOM      3  C   LIG A   1      -7.693  -1.575 128.609  0.00  0.00    -0.017 C 
ATOM      4  C   LIG A   1      -7.638  -1.512 127.086  0.00  0.00    +0.006 C 
ATOM      5  C   LIG A   1      -6.370  -1.649 127.911  0.00  0.00    +0.031 C 
ATOM      6  C   LIG A   1      -5.548  -0.447 128.307  0.00  0.00    +0.067 C 
ATOM      7  C   LIG A   1      -6.582   0.582 128.803  0.00  0.00    +0.035 C 
ATOM      8  C   LIG A   1      -7.736  -0.260 129.374  0.00  0.00    +0.010 C 
ATOM      9  C   LIG A   1      -4.528  -0.795 129.387  0.00  0.00    +0.041 C 
ATOM     10  C   LIG A   1      -8.068  -2.681 126.217  0.00  0.00    -0.004 C 
ATOM     11  C   LIG A   1      -9.100  -3.529 126.977  0.00  0.00    +0.004 C 
ATOM     12  C   LIG A   1      -8.538  -3.963 128.328  0.00  0.00    +0.004 C 
ENDROOT
BRANCH  10  13
ATOM     13  C   LIG A   1      -8.585  -2.190 124.831  0.00  0.00    -0.014 C 
ATOM     14  C   LIG A   1      -9.183  -3.316 123.979  0.00  0.00    +0.007 C 
ATOM     15  C   LIG A   1      -7.456  -1.521 124.031  0.00  0.00    +0.007 C 
ENDBRANCH  10  13
BRANCH   6  16
ATOM     16  O   LIG A   1      -4.851   0.052 127.175  0.00  0.00    -0.389 OA
ATOM     17  H   LIG A   1      -4.400   0.867 127.452  0.00  0.00    +0.210 HD
ENDBRANCH   6  16
TORSDOF 2
ENDMDL
MODEL 7
REMARK VINA RESULT:      -5.9      2.144      4.773
REMARK  Name = NuBBE_1941
REMARK  6 active torsions:
REMARK  status: ('A' for Active; 'I' for Inactive)
REMARK    1  A    between atoms: C_1  and  C_2
REMARK    2  A    between atoms: C_9  and  C_12
REMARK    3  A    between atoms: C_9  and  O_13
REMARK    4  A    between atoms: C_14  and  C_18
REMARK    5  A    between atoms: C_18  and  C_19
REMARK    6  A    between atoms: C_18  and  C_20
REMARK                            x       y       z     vdW  Elec       q    Type
REMARK                         _______ _______ _______ _____ _____    ______ ____
ROOT
ATOM      1  C   LIG A   1      -8.077   1.186 128.192  0.00  0.00    +0.008 C 
ATOM      2  C   LIG A   1      -7.792   0.268 127.000  0.00  0.00    -0.007 C 
ATOM      3  C   LIG A   1      -7.164  -1.047 127.425  0.00  0.00    -0.017 C 
ATOM      4  C   LIG A   1      -7.616  -2.340 126.754  0.00  0.00    +0.006 C 
ATOM      5  C   LIG A   1      -7.903  -2.078 128.223  0.00  0.00    +0.031 C 
ATOM      6  C   LIG A   1      -6.991  -2.588 129.312  0.00  0.00    +0.067 C 
ATOM      7  C   LIG A   1      -5.571  -2.249 128.819  0.00  0.00    +0.035 C 
ATOM      8  C   LIG A   1      -5.741  -0.983 127.962  0.00  0.00    +0.010 C 
ATOM      9  C   LIG A   1      -7.298  -1.931 130.655  0.00  0.00    +0.041 C 
ATOM     10  C   LIG A   1      -8.782  -2.377 125.783  0.00  0.00    -0.004 C 
ATOM     11  C   LIG A   1      -8.939  -0.999 125.121  0.00  0.00    +0.004 C 
ATOM     12  C   LIG A   1      -9.079   0.087 126.184  0.00  0.00    +0.004 C 
ENDROOT
BRANCH  10  13
ATOM     13  C   LIG A   1      -8.617  -3.534 124.751  0.00  0.00    -0.014 C 
ATOM     14  C   LIG A   1      -7.161  -3.756 124.326  0.00  0.00    +0.007 C 
ATOM     15  C   LIG A   1      -9.456  -3.268 123.491  0.00  0.00    +0.007 C 
ENDBRANCH  10  13
BRANCH   6  16
ATOM     16  O   LIG A   1      -7.149  -3.991 129.452  0.00  0.00    -0.389 OA
ATOM     17  H   LIG A   1      -6.949  -4.390 128.588  0.00  0.00    +0.210 HD
ENDBRANCH   6  16
TORSDOF 2
ENDMDL
MODEL 8
REMARK VINA RESULT:      -5.8      1.950      4.685
REMARK  Name = NuBBE_1941
REMARK  6 active torsions:
REMARK  status: ('A' for Active; 'I' for Inactive)
REMARK    1  A    between atoms: C_1  and  C_2
REMARK    2  A    between atoms: C_9  and  C_12
REMARK    3  A    between atoms: C_9  and  O_13
REMARK    4  A    between atoms: C_14  and  C_18
REMARK    5  A    between atoms: C_18  and  C_19
REMARK    6  A    between atoms: C_18  and  C_20
REMARK                            x       y       z     vdW  Elec       q    Type
REMARK                         _______ _______ _______ _____ _____    ______ ____
ROOT
ATOM      1  C   LIG A   1      -5.573  -3.671 124.318  0.00  0.00    +0.008 C 
ATOM      2  C   LIG A   1      -6.894  -2.982 123.965  0.00  0.00    -0.007 C 
ATOM      3  C   LIG A   1      -7.663  -2.548 125.199  0.00  0.00    -0.017 C 
ATOM      4  C   LIG A   1      -8.365  -1.193 125.202  0.00  0.00    +0.006 C 
ATOM      5  C   LIG A   1      -7.181  -1.465 126.116  0.00  0.00    +0.031 C 
ATOM      6  C   LIG A   1      -7.369  -1.923 127.542  0.00  0.00    +0.067 C 
ATOM      7  C   LIG A   1      -8.438  -3.029 127.456  0.00  0.00    +0.035 C 
ATOM      8  C   LIG A   1      -8.250  -3.655 126.063  0.00  0.00    +0.010 C 
ATOM      9  C   LIG A   1      -6.064  -2.439 128.143  0.00  0.00    +0.041 C 
ATOM     10  C   LIG A   1      -8.193  -0.196 124.070  0.00  0.00    -0.004 C 
ATOM     11  C   LIG A   1      -7.845  -0.948 122.776  0.00  0.00    +0.004 C 
ATOM     12  C   LIG A   1      -6.618  -1.830 122.989  0.00  0.00    +0.004 C 
ENDROOT
BRANCH  10  13
ATOM     13  C   LIG A   1      -9.451   0.713 123.928  0.00  0.00    -0.014 C 
ATOM     14  C   LIG A   1     -10.182   0.522 122.594  0.00  0.00    +0.007 C 
ATOM     15  C   LIG A   1      -9.073   2.196 124.067  0.00  0.00    +0.007 C 
ENDBRANCH  10  13
BRANCH   6  16
ATOM     16  O   LIG A   1      -7.832  -0.841 128.335  0.00  0.00    -0.389 OA
ATOM     17  H   LIG A   1      -8.726  -1.072 128.640  0.00  0.00    +0.210 HD
ENDBRANCH   6  16
TORSDOF 2
ENDMDL
MODEL 9
REMARK VINA RESULT:      -5.7      2.482      4.670
REMARK  Name = NuBBE_1941
REMARK  6 active torsions:
REMARK  status: ('A' for Active; 'I' for Inactive)
REMARK    1  A    between atoms: C_1  and  C_2
REMARK    2  A    between atoms: C_9  and  C_12
REMARK    3  A    between atoms: C_9  and  O_13
REMARK    4  A    between atoms: C_14  and  C_18
REMARK    5  A    between atoms: C_18  and  C_19
REMARK    6  A    between atoms: C_18  and  C_20
REMARK                            x       y       z     vdW  Elec       q    Type
REMARK                         _______ _______ _______ _____ _____    ______ ____
ROOT
ATOM      1  C   LIG A   1      -7.869   0.919 128.208  0.00  0.00    +0.008 C 
ATOM      2  C   LIG A   1      -7.890  -0.307 127.290  0.00  0.00    -0.007 C 
ATOM      3  C   LIG A   1      -8.301   0.044 125.872  0.00  0.00    -0.017 C 
ATOM      4  C   LIG A   1      -7.574  -0.608 124.701  0.00  0.00    +0.006 C 
ATOM      5  C   LIG A   1      -7.454   0.884 124.966  0.00  0.00    +0.031 C 
ATOM      6  C   LIG A   1      -8.340   1.887 124.268  0.00  0.00    +0.067 C 
ATOM      7  C   LIG A   1      -9.755   1.284 124.364  0.00  0.00    +0.035 C 
ATOM      8  C   LIG A   1      -9.750   0.464 125.665  0.00  0.00    +0.010 C 
ATOM      9  C   LIG A   1      -8.262   3.260 124.928  0.00  0.00    +0.041 C 
ATOM     10  C   LIG A   1      -6.348  -1.481 124.902  0.00  0.00    -0.004 C 
ATOM     11  C   LIG A   1      -6.391  -2.106 126.305  0.00  0.00    +0.004 C 
ATOM     12  C   LIG A   1      -6.532  -1.018 127.366  0.00  0.00    +0.004 C 
ENDROOT
BRANCH  10  13
ATOM     13  C   LIG A   1      -6.221  -2.541 123.766  0.00  0.00    -0.014 C 
ATOM     14  C   LIG A   1      -4.885  -3.291 123.791  0.00  0.00    +0.007 C 
ATOM     15  C   LIG A   1      -6.387  -1.887 122.386  0.00  0.00    +0.007 C 
ENDBRANCH  10  13
BRANCH   6  16
ATOM     16  O   LIG A   1      -7.943   2.016 122.912  0.00  0.00    -0.389 OA
ATOM     17  H   LIG A   1      -7.036   1.673 122.845  0.00  0.00    +0.210 HD
ENDBRANCH   6  16
TORSDOF 2
ENDMDL
