MODEL 1
REMARK VINA RESULT:      -6.9      0.000      0.000
REMARK  Name = NuBBE_967
REMARK  7 active torsions:
REMARK  status: ('A' for Active; 'I' for Inactive)
REMARK    1  A    between atoms: C_1  and  C_2
REMARK    2  A    between atoms: C_5  and  C_7
REMARK    3  A    between atoms: C_7  and  C_8
REMARK    4  A    between atoms: C_7  and  O_9
REMARK    5  A    between atoms: C_7  and  C_10
REMARK    6  A    between atoms: C_13  and  C_14
REMARK    7  A    between atoms: C_13  and  O_15
REMARK                            x       y       z     vdW  Elec       q    Type
REMARK                         _______ _______ _______ _____ _____    ______ ____
ROOT
ATOM      1  C   LIG A   1      -6.651  -1.640 122.594  0.00  0.00    +0.011 C 
ATOM      2  C   LIG A   1      -6.731  -1.625 124.138  0.00  0.00    -0.027 C 
ATOM      3  C   LIG A   1      -8.175  -1.600 124.720  0.00  0.00    +0.027 C 
ATOM      4  C   LIG A   1      -8.948  -0.336 124.289  0.00  0.00    +0.013 C 
ATOM      5  C   LIG A   1      -8.225   0.967 124.711  0.00  0.00    +0.021 C 
ATOM      6  C   LIG A   1      -6.750   0.943 124.250  0.00  0.00    +0.007 C 
ATOM      7  C   LIG A   1      -6.018  -0.344 124.639  0.00  0.00    +0.007 C 
ATOM      8  C   LIG A   1      -8.983  -2.920 124.568  0.00  0.00    +0.067 C 
ATOM      9  C   LIG A   1      -9.566  -3.182 123.176  0.00  0.00    +0.041 C 
ATOM     10  C   LIG A   1      -8.146  -4.113 125.066  0.00  0.00    +0.035 C 
ATOM     11  C   LIG A   1      -6.744  -4.172 124.471  0.00  0.00    +0.003 C 
ATOM     12  C   LIG A   1      -5.983  -2.864 124.688  0.00  0.00    +0.007 C 
ENDROOT
BRANCH   5  13
ATOM     13  C   LIG A   1      -8.977   2.249 124.223  0.00  0.00    +0.063 C 
ATOM     14  C   LIG A   1      -8.827   2.458 122.709  0.00  0.00    +0.041 C 
ATOM     15  C   LIG A   1      -8.486   3.512 124.944  0.00  0.00    +0.041 C 
BRANCH  13  16
ATOM     16  O   LIG A   1     -10.373   2.099 124.504  0.00  0.00    -0.389 OA
ATOM     17  H   LIG A   1     -10.706   1.354 123.977  0.00  0.00    +0.210 HD
ENDBRANCH  13  16
ENDBRANCH   5  13
BRANCH   8  18
ATOM     18  O   LIG A   1     -10.116  -2.816 125.454  0.00  0.00    -0.389 OA
ATOM     19  H   LIG A   1      -9.779  -2.744 126.364  0.00  0.00    +0.210 HD
ENDBRANCH   8  18
TORSDOF 3
ENDMDL
MODEL 2
REMARK VINA RESULT:      -6.8      8.948     10.923
REMARK  Name = NuBBE_967
REMARK  7 active torsions:
REMARK  status: ('A' for Active; 'I' for Inactive)
REMARK    1  A    between atoms: C_1  and  C_2
REMARK    2  A    between atoms: C_5  and  C_7
REMARK    3  A    between atoms: C_7  and  C_8
REMARK    4  A    between atoms: C_7  and  O_9
REMARK    5  A    between atoms: C_7  and  C_10
REMARK    6  A    between atoms: C_13  and  C_14
REMARK    7  A    between atoms: C_13  and  O_15
REMARK                            x       y       z     vdW  Elec       q    Type
REMARK                         _______ _______ _______ _____ _____    ______ ____
ROOT
ATOM      1  C   LIG A   1     -11.551   5.109 129.954  0.00  0.00    +0.011 C 
ATOM      2  C   LIG A   1     -11.491   6.527 130.566  0.00  0.00    -0.027 C 
ATOM      3  C   LIG A   1     -10.569   7.528 129.812  0.00  0.00    +0.027 C 
ATOM      4  C   LIG A   1      -9.098   7.060 129.799  0.00  0.00    +0.013 C 
ATOM      5  C   LIG A   1      -8.535   6.852 131.227  0.00  0.00    +0.021 C 
ATOM      6  C   LIG A   1      -9.477   5.949 132.055  0.00  0.00    +0.007 C 
ATOM      7  C   LIG A   1     -10.939   6.400 132.009  0.00  0.00    +0.007 C 
ATOM      8  C   LIG A   1     -11.091   8.013 128.429  0.00  0.00    +0.067 C 
ATOM      9  C   LIG A   1     -10.929   7.019 127.275  0.00  0.00    +0.041 C 
ATOM     10  C   LIG A   1     -12.547   8.502 128.556  0.00  0.00    +0.035 C 
ATOM     11  C   LIG A   1     -13.470   7.511 129.256  0.00  0.00    +0.003 C 
ATOM     12  C   LIG A   1     -12.926   7.105 130.627  0.00  0.00    +0.007 C 
ENDROOT
BRANCH   5  13
ATOM     13  C   LIG A   1      -7.065   6.320 131.214  0.00  0.00    +0.063 C 
ATOM     14  C   LIG A   1      -6.915   5.072 130.332  0.00  0.00    +0.041 C 
ATOM     15  C   LIG A   1      -6.563   5.987 132.626  0.00  0.00    +0.041 C 
BRANCH  13  16
ATOM     16  O   LIG A   1      -6.212   7.336 130.676  0.00  0.00    -0.389 OA
ATOM     17  H   LIG A   1      -5.291   7.069 130.835  0.00  0.00    +0.210 HD
ENDBRANCH  13  16
ENDBRANCH   5  13
BRANCH   8  18
ATOM     18  O   LIG A   1     -10.302   9.164 128.068  0.00  0.00    -0.389 OA
ATOM     19  H   LIG A   1      -9.833   9.468 128.865  0.00  0.00    +0.210 HD
ENDBRANCH   8  18
TORSDOF 3
ENDMDL
MODEL 3
REMARK VINA RESULT:      -6.6      2.224      2.743
REMARK  Name = NuBBE_967
REMARK  7 active torsions:
REMARK  status: ('A' for Active; 'I' for Inactive)
REMARK    1  A    between atoms: C_1  and  C_2
REMARK    2  A    between atoms: C_5  and  C_7
REMARK    3  A    between atoms: C_7  and  C_8
REMARK    4  A    between atoms: C_7  and  O_9
REMARK    5  A    between atoms: C_7  and  C_10
REMARK    6  A    between atoms: C_13  and  C_14
REMARK    7  A    between atoms: C_13  and  O_15
REMARK                            x       y       z     vdW  Elec       q    Type
REMARK                         _______ _______ _______ _____ _____    ______ ____
ROOT
ATOM      1  C   LIG A   1      -6.195  -1.147 127.029  0.00  0.00    +0.011 C 
ATOM      2  C   LIG A   1      -7.632  -1.019 127.584  0.00  0.00    -0.027 C 
ATOM      3  C   LIG A   1      -8.761  -1.352 126.565  0.00  0.00    +0.027 C 
ATOM      4  C   LIG A   1      -8.739  -0.402 125.348  0.00  0.00    +0.013 C 
ATOM      5  C   LIG A   1      -8.872   1.085 125.762  0.00  0.00    +0.021 C 
ATOM      6  C   LIG A   1      -7.841   1.439 126.856  0.00  0.00    +0.007 C 
ATOM      7  C   LIG A   1      -7.841   0.452 128.027  0.00  0.00    +0.007 C 
ATOM      8  C   LIG A   1      -8.907  -2.855 126.192  0.00  0.00    +0.067 C 
ATOM      9  C   LIG A   1      -7.873  -3.394 125.199  0.00  0.00    +0.041 C 
ATOM     10  C   LIG A   1      -8.967  -3.713 127.470  0.00  0.00    +0.035 C 
ATOM     11  C   LIG A   1      -7.842  -3.425 128.457  0.00  0.00    +0.003 C 
ATOM     12  C   LIG A   1      -7.774  -1.940 128.819  0.00  0.00    +0.007 C 
ENDROOT
BRANCH   5  13
ATOM     13  C   LIG A   1      -8.790   2.052 124.535  0.00  0.00    +0.063 C 
ATOM     14  C   LIG A   1      -9.733   1.621 123.402  0.00  0.00    +0.041 C 
ATOM     15  C   LIG A   1      -7.363   2.149 123.976  0.00  0.00    +0.041 C 
BRANCH  13  16
ATOM     16  O   LIG A   1      -9.186   3.362 124.954  0.00  0.00    -0.389 OA
ATOM     17  H   LIG A   1      -9.864   3.682 124.335  0.00  0.00    +0.210 HD
ENDBRANCH  13  16
ENDBRANCH   5  13
BRANCH   8  18
ATOM     18  O   LIG A   1     -10.186  -2.998 125.542  0.00  0.00    -0.389 OA
ATOM     19  H   LIG A   1     -10.040  -2.962 124.581  0.00  0.00    +0.210 HD
ENDBRANCH   8  18
TORSDOF 3
ENDMDL
MODEL 4
REMARK VINA RESULT:      -6.5      1.861      2.905
REMARK  Name = NuBBE_967
REMARK  7 active torsions:
REMARK  status: ('A' for Active; 'I' for Inactive)
REMARK    1  A    between atoms: C_1  and  C_2
REMARK    2  A    between atoms: C_5  and  C_7
REMARK    3  A    between atoms: C_7  and  C_8
REMARK    4  A    between atoms: C_7  and  O_9
REMARK    5  A    between atoms: C_7  and  C_10
REMARK    6  A    between atoms: C_13  and  C_14
REMARK    7  A    between atoms: C_13  and  O_15
REMARK                            x       y       z     vdW  Elec       q    Type
REMARK                         _______ _______ _______ _____ _____    ______ ____
ROOT
ATOM      1  C   LIG A   1      -7.692  -0.157 126.565  0.00  0.00    +0.011 C 
ATOM      2  C   LIG A   1      -8.602  -0.662 125.422  0.00  0.00    -0.027 C 
ATOM      3  C   LIG A   1      -7.902  -0.804 124.040  0.00  0.00    +0.027 C 
ATOM      4  C   LIG A   1      -7.363   0.547 123.524  0.00  0.00    +0.013 C 
ATOM      5  C   LIG A   1      -8.478   1.616 123.403  0.00  0.00    +0.021 C 
ATOM      6  C   LIG A   1      -9.277   1.718 124.722  0.00  0.00    +0.007 C 
ATOM      7  C   LIG A   1      -9.754   0.360 125.245  0.00  0.00    +0.007 C 
ATOM      8  C   LIG A   1      -6.889  -1.978 123.918  0.00  0.00    +0.067 C 
ATOM      9  C   LIG A   1      -5.522  -1.743 124.568  0.00  0.00    +0.041 C 
ATOM     10  C   LIG A   1      -7.534  -3.287 124.412  0.00  0.00    +0.035 C 
ATOM     11  C   LIG A   1      -8.187  -3.171 125.785  0.00  0.00    +0.003 C 
ATOM     12  C   LIG A   1      -9.203  -2.029 125.831  0.00  0.00    +0.007 C 
ENDROOT
BRANCH   5  13
ATOM     13  C   LIG A   1      -7.923   3.002 122.938  0.00  0.00    +0.063 C 
ATOM     14  C   LIG A   1      -8.520   3.434 121.591  0.00  0.00    +0.041 C 
ATOM     15  C   LIG A   1      -6.392   2.997 122.817  0.00  0.00    +0.041 C 
BRANCH  13  16
ATOM     16  O   LIG A   1      -8.281   3.991 123.909  0.00  0.00    -0.389 OA
ATOM     17  H   LIG A   1      -7.977   4.855 123.582  0.00  0.00    +0.210 HD
ENDBRANCH  13  16
ENDBRANCH   5  13
BRANCH   8  18
ATOM     18  O   LIG A   1      -6.628  -2.156 122.511  0.00  0.00    -0.389 OA
ATOM     19  H   LIG A   1      -5.668  -2.084 122.372  0.00  0.00    +0.210 HD
ENDBRANCH   8  18
TORSDOF 3
ENDMDL
MODEL 5
REMARK VINA RESULT:      -6.5      1.995      2.983
REMARK  Name = NuBBE_967
REMARK  7 active torsions:
REMARK  status: ('A' for Active; 'I' for Inactive)
REMARK    1  A    between atoms: C_1  and  C_2
REMARK    2  A    between atoms: C_5  and  C_7
REMARK    3  A    between atoms: C_7  and  C_8
REMARK    4  A    between atoms: C_7  and  O_9
REMARK    5  A    between atoms: C_7  and  C_10
REMARK    6  A    between atoms: C_13  and  C_14
REMARK    7  A    between atoms: C_13  and  O_15
REMARK                            x       y       z     vdW  Elec       q    Type
REMARK                         _______ _______ _______ _____ _____    ______ ____
ROOT
ATOM      1  C   LIG A   1      -9.329  -0.833 125.489  0.00  0.00    +0.011 C 
ATOM      2  C   LIG A   1      -8.774  -1.189 124.090  0.00  0.00    -0.027 C 
ATOM      3  C   LIG A   1      -7.231  -1.050 123.941  0.00  0.00    +0.027 C 
ATOM      4  C   LIG A   1      -6.757   0.400 124.178  0.00  0.00    +0.013 C 
ATOM      5  C   LIG A   1      -7.437   1.405 123.216  0.00  0.00    +0.021 C 
ATOM      6  C   LIG A   1      -8.972   1.231 123.245  0.00  0.00    +0.007 C 
ATOM      7  C   LIG A   1      -9.418  -0.222 123.064  0.00  0.00    +0.007 C 
ATOM      8  C   LIG A   1      -6.385  -2.122 124.685  0.00  0.00    +0.067 C 
ATOM      9  C   LIG A   1      -6.242  -1.920 126.197  0.00  0.00    +0.041 C 
ATOM     10  C   LIG A   1      -6.906  -3.533 124.348  0.00  0.00    +0.035 C 
ATOM     11  C   LIG A   1      -8.411  -3.693 124.531  0.00  0.00    +0.003 C 
ATOM     12  C   LIG A   1      -9.190  -2.639 123.743  0.00  0.00    +0.007 C 
ENDROOT
BRANCH   5  13
ATOM     13  C   LIG A   1      -7.003   2.881 123.494  0.00  0.00    +0.063 C 
ATOM     14  C   LIG A   1      -6.189   3.467 122.331  0.00  0.00    +0.041 C 
ATOM     15  C   LIG A   1      -6.175   3.003 124.782  0.00  0.00    +0.041 C 
BRANCH  13  16
ATOM     16  O   LIG A   1      -8.176   3.685 123.651  0.00  0.00    -0.389 OA
ATOM     17  H   LIG A   1      -7.980   4.573 123.306  0.00  0.00    +0.210 HD
ENDBRANCH  13  16
ENDBRANCH   5  13
BRANCH   8  18
ATOM     18  O   LIG A   1      -5.049  -2.040 124.150  0.00  0.00    -0.389 OA
ATOM     19  H   LIG A   1      -4.432  -2.348 124.837  0.00  0.00    +0.210 HD
ENDBRANCH   8  18
TORSDOF 3
ENDMDL
MODEL 6
REMARK VINA RESULT:      -6.5      3.033      5.259
REMARK  Name = NuBBE_967
REMARK  7 active torsions:
REMARK  status: ('A' for Active; 'I' for Inactive)
REMARK    1  A    between atoms: C_1  and  C_2
REMARK    2  A    between atoms: C_5  and  C_7
REMARK    3  A    between atoms: C_7  and  C_8
REMARK    4  A    between atoms: C_7  and  O_9
REMARK    5  A    between atoms: C_7  and  C_10
REMARK    6  A    between atoms: C_13  and  C_14
REMARK    7  A    between atoms: C_13  and  O_15
REMARK                            x       y       z     vdW  Elec       q    Type
REMARK                         _______ _______ _______ _____ _____    ______ ____
ROOT
ATOM      1  C   LIG A   1      -7.742  -4.552 124.985  0.00  0.00    +0.011 C 
ATOM      2  C   LIG A   1      -8.473  -3.215 125.250  0.00  0.00    -0.027 C 
ATOM      3  C   LIG A   1      -7.542  -1.979 125.412  0.00  0.00    +0.027 C 
ATOM      4  C   LIG A   1      -6.585  -2.131 126.614  0.00  0.00    +0.013 C 
ATOM      5  C   LIG A   1      -7.345  -2.353 127.945  0.00  0.00    +0.021 C 
ATOM      6  C   LIG A   1      -8.365  -3.504 127.803  0.00  0.00    +0.007 C 
ATOM      7  C   LIG A   1      -9.267  -3.362 126.573  0.00  0.00    +0.007 C 
ATOM      8  C   LIG A   1      -6.850  -1.484 124.110  0.00  0.00    +0.067 C 
ATOM      9  C   LIG A   1      -5.646  -2.310 123.645  0.00  0.00    +0.041 C 
ATOM     10  C   LIG A   1      -7.892  -1.319 122.987  0.00  0.00    +0.035 C 
ATOM     11  C   LIG A   1      -8.783  -2.541 122.791  0.00  0.00    +0.003 C 
ATOM     12  C   LIG A   1      -9.469  -2.954 124.094  0.00  0.00    +0.007 C 
ENDROOT
BRANCH   5  13
ATOM     13  C   LIG A   1      -6.375  -2.567 129.153  0.00  0.00    +0.063 C 
ATOM     14  C   LIG A   1      -4.911  -2.669 128.701  0.00  0.00    +0.041 C 
ATOM     15  C   LIG A   1      -6.729  -3.826 129.957  0.00  0.00    +0.041 C 
BRANCH  13  16
ATOM     16  O   LIG A   1      -6.480  -1.443 130.033  0.00  0.00    -0.389 OA
ATOM     17  H   LIG A   1      -5.982  -0.707 129.640  0.00  0.00    +0.210 HD
ENDBRANCH  13  16
ENDBRANCH   5  13
BRANCH   8  18
ATOM     18  O   LIG A   1      -6.337  -0.166 124.389  0.00  0.00    -0.389 OA
ATOM     19  H   LIG A   1      -7.014   0.482 124.126  0.00  0.00    +0.210 HD
ENDBRANCH   8  18
TORSDOF 3
ENDMDL
MODEL 7
REMARK VINA RESULT:      -6.4      1.571      2.049
REMARK  Name = NuBBE_967
REMARK  7 active torsions:
REMARK  status: ('A' for Active; 'I' for Inactive)
REMARK    1  A    between atoms: C_1  and  C_2
REMARK    2  A    between atoms: C_5  and  C_7
REMARK    3  A    between atoms: C_7  and  C_8
REMARK    4  A    between atoms: C_7  and  O_9
REMARK    5  A    between atoms: C_7  and  C_10
REMARK    6  A    between atoms: C_13  and  C_14
REMARK    7  A    between atoms: C_13  and  O_15
REMARK                            x       y       z     vdW  Elec       q    Type
REMARK                         _______ _______ _______ _____ _____    ______ ____
ROOT
ATOM      1  C   LIG A   1      -6.316  -1.400 125.405  0.00  0.00    +0.011 C 
ATOM      2  C   LIG A   1      -7.818  -1.337 125.766  0.00  0.00    -0.027 C 
ATOM      3  C   LIG A   1      -8.754  -0.902 124.602  0.00  0.00    +0.027 C 
ATOM      4  C   LIG A   1      -8.427   0.520 124.099  0.00  0.00    +0.013 C 
ATOM      5  C   LIG A   1      -8.520   1.577 125.226  0.00  0.00    +0.021 C 
ATOM      6  C   LIG A   1      -7.691   1.137 126.453  0.00  0.00    +0.007 C 
ATOM      7  C   LIG A   1      -7.991  -0.296 126.901  0.00  0.00    +0.007 C 
ATOM      8  C   LIG A   1      -8.944  -1.948 123.466  0.00  0.00    +0.067 C 
ATOM      9  C   LIG A   1      -7.786  -2.062 122.471  0.00  0.00    +0.041 C 
ATOM     10  C   LIG A   1      -9.313  -3.318 124.066  0.00  0.00    +0.035 C 
ATOM     11  C   LIG A   1      -8.377  -3.774 125.179  0.00  0.00    +0.003 C 
ATOM     12  C   LIG A   1      -8.264  -2.725 126.287  0.00  0.00    +0.007 C 
ENDROOT
BRANCH   5  13
ATOM     13  C   LIG A   1      -8.130   3.009 124.731  0.00  0.00    +0.063 C 
ATOM     14  C   LIG A   1      -8.177   3.117 123.199  0.00  0.00    +0.041 C 
ATOM     15  C   LIG A   1      -6.730   3.420 125.209  0.00  0.00    +0.041 C 
BRANCH  13  16
ATOM     16  O   LIG A   1      -9.068   3.952 125.261  0.00  0.00    -0.389 OA
ATOM     17  H   LIG A   1      -9.177   3.765 126.209  0.00  0.00    +0.210 HD
ENDBRANCH  13  16
ENDBRANCH   5  13
BRANCH   8  18
ATOM     18  O   LIG A   1     -10.084  -1.519 122.694  0.00  0.00    -0.389 OA
ATOM     19  H   LIG A   1     -10.678  -1.025 123.286  0.00  0.00    +0.210 HD
ENDBRANCH   8  18
TORSDOF 3
ENDMDL
MODEL 8
REMARK VINA RESULT:      -6.3      9.240     10.818
REMARK  Name = NuBBE_967
REMARK  7 active torsions:
REMARK  status: ('A' for Active; 'I' for Inactive)
REMARK    1  A    between atoms: C_1  and  C_2
REMARK    2  A    between atoms: C_5  and  C_7
REMARK    3  A    between atoms: C_7  and  C_8
REMARK    4  A    between atoms: C_7  and  O_9
REMARK    5  A    between atoms: C_7  and  C_10
REMARK    6  A    between atoms: C_13  and  C_14
REMARK    7  A    between atoms: C_13  and  O_15
REMARK                            x       y       z     vdW  Elec       q    Type
REMARK                         _______ _______ _______ _____ _____    ______ ____
ROOT
ATOM      1  C   LIG A   1      -6.746   4.574 131.166  0.00  0.00    +0.011 C 
ATOM      2  C   LIG A   1      -6.897   5.872 131.993  0.00  0.00    -0.027 C 
ATOM      3  C   LIG A   1      -7.939   5.797 133.146  0.00  0.00    +0.027 C 
ATOM      4  C   LIG A   1      -9.363   5.516 132.620  0.00  0.00    +0.013 C 
ATOM      5  C   LIG A   1      -9.833   6.582 131.601  0.00  0.00    +0.021 C 
ATOM      6  C   LIG A   1      -8.778   6.774 130.489  0.00  0.00    +0.007 C 
ATOM      7  C   LIG A   1      -7.363   6.995 131.032  0.00  0.00    +0.007 C 
ATOM      8  C   LIG A   1      -7.530   4.922 134.366  0.00  0.00    +0.067 C 
ATOM      9  C   LIG A   1      -7.664   3.408 134.168  0.00  0.00    +0.041 C 
ATOM     10  C   LIG A   1      -6.118   5.309 134.844  0.00  0.00    +0.035 C 
ATOM     11  C   LIG A   1      -5.079   5.344 133.729  0.00  0.00    +0.003 C 
ATOM     12  C   LIG A   1      -5.516   6.253 132.579  0.00  0.00    +0.007 C 
ENDROOT
BRANCH   5  13
ATOM     13  C   LIG A   1     -11.252   6.266 131.022  0.00  0.00    +0.063 C 
ATOM     14  C   LIG A   1     -11.280   4.922 130.281  0.00  0.00    +0.041 C 
ATOM     15  C   LIG A   1     -11.739   7.364 130.066  0.00  0.00    +0.041 C 
BRANCH  13  16
ATOM     16  O   LIG A   1     -12.184   6.184 132.105  0.00  0.00    -0.389 OA
ATOM     17  H   LIG A   1     -13.019   6.587 131.813  0.00  0.00    +0.210 HD
ENDBRANCH  13  16
ENDBRANCH   5  13
BRANCH   8  18
ATOM     18  O   LIG A   1      -8.433   5.258 135.438  0.00  0.00    -0.389 OA
ATOM     19  H   LIG A   1      -7.972   5.871 136.037  0.00  0.00    +0.210 HD
ENDBRANCH   8  18
TORSDOF 3
ENDMDL
MODEL 9
REMARK VINA RESULT:      -5.9      2.820      4.566
REMARK  Name = NuBBE_967
REMARK  7 active torsions:
REMARK  status: ('A' for Active; 'I' for Inactive)
REMARK    1  A    between atoms: C_1  and  C_2
REMARK    2  A    between atoms: C_5  and  C_7
REMARK    3  A    between atoms: C_7  and  C_8
REMARK    4  A    between atoms: C_7  and  O_9
REMARK    5  A    between atoms: C_7  and  C_10
REMARK    6  A    between atoms: C_13  and  C_14
REMARK    7  A    between atoms: C_13  and  O_15
REMARK                            x       y       z     vdW  Elec       q    Type
REMARK                         _______ _______ _______ _____ _____    ______ ____
ROOT
ATOM      1  C   LIG A   1      -6.975  -3.379 124.789  0.00  0.00    +0.011 C 
ATOM      2  C   LIG A   1      -8.404  -2.874 125.093  0.00  0.00    -0.027 C 
ATOM      3  C   LIG A   1      -8.528  -1.336 125.292  0.00  0.00    +0.027 C 
ATOM      4  C   LIG A   1      -7.689  -0.840 126.490  0.00  0.00    +0.013 C 
ATOM      5  C   LIG A   1      -8.084  -1.541 127.813  0.00  0.00    +0.021 C 
ATOM      6  C   LIG A   1      -8.083  -3.076 127.636  0.00  0.00    +0.007 C 
ATOM      7  C   LIG A   1      -8.874  -3.542 126.410  0.00  0.00    +0.007 C 
ATOM      8  C   LIG A   1      -8.365  -0.476 124.006  0.00  0.00    +0.067 C 
ATOM      9  C   LIG A   1      -6.926  -0.282 123.518  0.00  0.00    +0.041 C 
ATOM     10  C   LIG A   1      -9.274  -1.021 122.888  0.00  0.00    +0.035 C 
ATOM     11  C   LIG A   1      -9.131  -2.520 122.655  0.00  0.00    +0.003 C 
ATOM     12  C   LIG A   1      -9.344  -3.315 123.944  0.00  0.00    +0.007 C 
ENDROOT
BRANCH   5  13
ATOM     13  C   LIG A   1      -7.195  -1.084 129.016  0.00  0.00    +0.063 C 
ATOM     14  C   LIG A   1      -5.705  -1.047 128.644  0.00  0.00    +0.041 C 
ATOM     15  C   LIG A   1      -7.373  -1.994 130.240  0.00  0.00    +0.041 C 
BRANCH  13  16
ATOM     16  O   LIG A   1      -7.580   0.241 129.396  0.00  0.00    -0.389 OA
ATOM     17  H   LIG A   1      -8.239   0.169 130.107  0.00  0.00    +0.210 HD
ENDBRANCH  13  16
ENDBRANCH   5  13
BRANCH   8  18
ATOM     18  O   LIG A   1      -8.852   0.843 124.325  0.00  0.00    -0.389 OA
ATOM     19  H   LIG A   1      -8.101   1.459 124.281  0.00  0.00    +0.210 HD
ENDBRANCH   8  18
TORSDOF 3
ENDMDL
