MODEL 1
REMARK VINA RESULT:      -9.0      0.000      0.000
REMARK  Name = NuBBE_72
REMARK  11 active torsions:
REMARK  status: ('A' for Active; 'I' for Inactive)
REMARK    1  A    between atoms: C_1  and  C_2
REMARK    2  A    between atoms: C_4  and  C_5
REMARK    3  A    between atoms: C_4  and  C_14
REMARK    4  A    between atoms: C_6  and  O_10
REMARK    5  A    between atoms: O_10  and  C_11
REMARK    6  A    between atoms: C_11  and  C_12
REMARK    7  A    between atoms: C_18  and  C_19
REMARK    8  A    between atoms: C_24  and  C_38
REMARK    9  A    between atoms: C_28  and  C_29
REMARK   10  A    between atoms: C_33  and  C_34
REMARK   11  A    between atoms: C_33  and  C_37
REMARK                            x       y       z     vdW  Elec       q    Type
REMARK                         _______ _______ _______ _____ _____    ______ ____
ROOT
ATOM      1  C   LIG A   1      -5.015  -1.974 126.192  0.00  0.00    +0.012 C 
ATOM      2  C   LIG A   1      -6.306  -1.220 126.552  0.00  0.00    -0.025 C 
ATOM      3  C   LIG A   1      -7.662  -2.022 126.325  0.00  0.00    +0.004 C 
ATOM      4  C   LIG A   1      -7.896  -2.663 124.890  0.00  0.00    +0.005 C 
ATOM      5  C   LIG A   1      -6.756  -3.542 124.325  0.00  0.00    +0.015 C 
ATOM      6  C   LIG A   1      -8.134  -1.407 123.977  0.00  0.00    +0.182 C 
ATOM      7  C   LIG A   1      -6.920  -0.438 124.069  0.00  0.00    +0.046 C 
ATOM      8  C   LIG A   1      -6.449  -0.039 125.502  0.00  0.00    +0.011 C 
ATOM      9  C   LIG A   1      -9.088  -3.659 124.858  0.00  0.00    +0.015 C 
ATOM     10  C   LIG A   1      -8.296  -2.770 127.485  0.00  0.00    +0.005 C 
ATOM     11  C   LIG A   1      -8.477  -1.797 128.635  0.00  0.00    +0.012 C 
ATOM     12  C   LIG A   1      -7.225  -1.021 129.086  0.00  0.00    -0.007 C 
ATOM     13  C   LIG A   1      -7.811   0.299 129.666  0.00  0.00    +0.016 C 
ATOM     14  C   LIG A   1      -6.139  -0.590 128.056  0.00  0.00    +0.005 C 
ATOM     15  C   LIG A   1      -4.654  -0.591 128.778  0.00  0.00    +0.006 C 
ATOM     16  C   LIG A   1      -4.432  -0.905 130.362  0.00  0.00    +0.012 C 
ATOM     17  C   LIG A   1      -5.682  -1.367 131.186  0.00  0.00    -0.007 C 
ATOM     18  C   LIG A   1      -6.455  -1.946 130.007  0.00  0.00    -0.061 C 
ATOM     19  C   LIG A   1      -6.039  -3.176 129.585  0.00  0.00    -0.026 C 
ATOM     20  C   LIG A   1      -5.037  -4.059 130.264  0.00  0.00    +0.034 C 
ATOM     21  C   LIG A   1      -5.046  -3.910 131.792  0.00  0.00    -0.025 C 
ATOM     22  C   LIG A   1      -3.594  -3.947 132.303  0.00  0.00    +0.012 C 
ATOM     23  C   LIG A   1      -5.795  -2.609 132.189  0.00  0.00    +0.006 C 
ATOM     24  C   LIG A   1      -5.913  -2.464 133.725  0.00  0.00    +0.011 C 
ATOM     25  C   LIG A   1      -6.715  -3.668 134.333  0.00  0.00    -0.035 C 
ATOM     26  C   LIG A   1      -6.686  -3.573 135.868  0.00  0.00    +0.011 C 
ATOM     27  C   LIG A   1      -6.091  -5.012 133.895  0.00  0.00    +0.007 C 
ATOM     28  C   LIG A   1      -5.827  -5.118 132.390  0.00  0.00    +0.008 C 
ATOM     29  C   LIG A   1      -8.212  -3.622 133.917  0.00  0.00    +0.011 C 
ATOM     30  C   LIG A   1      -6.131  -0.130 131.990  0.00  0.00    +0.016 C 
ENDROOT
BRANCH   6  31
ATOM     31  O   LIG A   1      -9.298  -0.677 124.465  0.00  0.00    -0.461 OA
BRANCH  31  32
ATOM     32  C   LIG A   1      -9.819   0.279 123.683  0.00  0.00    +0.304 C 
ATOM     33  C   LIG A   1      -9.901   1.598 124.377  0.00  0.00    +0.136 C 
ATOM     34  O   LIG A   1     -10.312   0.055 122.571  0.00  0.00    -0.251 OA
ENDBRANCH  31  32
ENDBRANCH   6  31
TORSDOF 2
ENDMDL
MODEL 2
REMARK VINA RESULT:      -9.0      3.374      5.436
REMARK  Name = NuBBE_72
REMARK  11 active torsions:
REMARK  status: ('A' for Active; 'I' for Inactive)
REMARK    1  A    between atoms: C_1  and  C_2
REMARK    2  A    between atoms: C_4  and  C_5
REMARK    3  A    between atoms: C_4  and  C_14
REMARK    4  A    between atoms: C_6  and  O_10
REMARK    5  A    between atoms: O_10  and  C_11
REMARK    6  A    between atoms: C_11  and  C_12
REMARK    7  A    between atoms: C_18  and  C_19
REMARK    8  A    between atoms: C_24  and  C_38
REMARK    9  A    between atoms: C_28  and  C_29
REMARK   10  A    between atoms: C_33  and  C_34
REMARK   11  A    between atoms: C_33  and  C_37
REMARK                            x       y       z     vdW  Elec       q    Type
REMARK                         _______ _______ _______ _____ _____    ______ ____
ROOT
ATOM      1  C   LIG A   1      -7.412   0.917 129.526  0.00  0.00    +0.012 C 
ATOM      2  C   LIG A   1      -6.011   0.434 129.116  0.00  0.00    -0.025 C 
ATOM      3  C   LIG A   1      -4.790   1.198 129.795  0.00  0.00    +0.004 C 
ATOM      4  C   LIG A   1      -4.775   2.784 129.687  0.00  0.00    +0.005 C 
ATOM      5  C   LIG A   1      -6.062   3.524 130.119  0.00  0.00    +0.015 C 
ATOM      6  C   LIG A   1      -4.474   3.031 128.165  0.00  0.00    +0.182 C 
ATOM      7  C   LIG A   1      -5.547   2.327 127.285  0.00  0.00    +0.046 C 
ATOM      8  C   LIG A   1      -5.826   0.822 127.589  0.00  0.00    +0.011 C 
ATOM      9  C   LIG A   1      -3.721   3.444 130.619  0.00  0.00    +0.015 C 
ATOM     10  C   LIG A   1      -4.144   0.622 131.043  0.00  0.00    +0.005 C 
ATOM     11  C   LIG A   1      -3.737  -0.809 130.750  0.00  0.00    +0.012 C 
ATOM     12  C   LIG A   1      -4.836  -1.742 130.207  0.00  0.00    -0.007 C 
ATOM     13  C   LIG A   1      -4.041  -2.780 129.362  0.00  0.00    +0.016 C 
ATOM     14  C   LIG A   1      -5.956  -1.196 129.271  0.00  0.00    +0.005 C 
ATOM     15  C   LIG A   1      -7.353  -2.038 129.525  0.00  0.00    +0.006 C 
ATOM     16  C   LIG A   1      -7.460  -3.307 130.542  0.00  0.00    +0.012 C 
ATOM     17  C   LIG A   1      -6.202  -3.634 131.417  0.00  0.00    -0.007 C 
ATOM     18  C   LIG A   1      -5.621  -2.225 131.410  0.00  0.00    -0.061 C 
ATOM     19  C   LIG A   1      -6.222  -1.343 132.262  0.00  0.00    -0.026 C 
ATOM     20  C   LIG A   1      -7.255  -1.668 133.297  0.00  0.00    +0.034 C 
ATOM     21  C   LIG A   1      -7.082  -3.071 133.896  0.00  0.00    -0.025 C 
ATOM     22  C   LIG A   1      -8.472  -3.707 134.082  0.00  0.00    +0.012 C 
ATOM     23  C   LIG A   1      -6.146  -3.917 132.991  0.00  0.00    +0.006 C 
ATOM     24  C   LIG A   1      -5.864  -5.310 133.604  0.00  0.00    +0.011 C 
ATOM     25  C   LIG A   1      -5.160  -5.167 134.999  0.00  0.00    -0.035 C 
ATOM     26  C   LIG A   1      -5.031  -6.556 135.646  0.00  0.00    +0.011 C 
ATOM     27  C   LIG A   1      -5.982  -4.248 135.930  0.00  0.00    +0.007 C 
ATOM     28  C   LIG A   1      -6.400  -2.921 135.289  0.00  0.00    +0.008 C 
ATOM     29  C   LIG A   1      -3.715  -4.613 134.853  0.00  0.00    +0.011 C 
ATOM     30  C   LIG A   1      -5.531  -4.849 130.744  0.00  0.00    +0.016 C 
ENDROOT
BRANCH   6  31
ATOM     31  O   LIG A   1      -3.188   2.430 127.830  0.00  0.00    -0.461 OA
BRANCH  31  32
ATOM     32  C   LIG A   1      -2.276   3.192 127.211  0.00  0.00    +0.304 C 
ATOM     33  C   LIG A   1      -2.561   4.650 127.354  0.00  0.00    +0.136 C 
ATOM     34  O   LIG A   1      -1.388   2.733 126.481  0.00  0.00    -0.251 OA
ENDBRANCH  31  32
ENDBRANCH   6  31
TORSDOF 2
ENDMDL
MODEL 3
REMARK VINA RESULT:      -8.9      3.430      8.415
REMARK  Name = NuBBE_72
REMARK  11 active torsions:
REMARK  status: ('A' for Active; 'I' for Inactive)
REMARK    1  A    between atoms: C_1  and  C_2
REMARK    2  A    between atoms: C_4  and  C_5
REMARK    3  A    between atoms: C_4  and  C_14
REMARK    4  A    between atoms: C_6  and  O_10
REMARK    5  A    between atoms: O_10  and  C_11
REMARK    6  A    between atoms: C_11  and  C_12
REMARK    7  A    between atoms: C_18  and  C_19
REMARK    8  A    between atoms: C_24  and  C_38
REMARK    9  A    between atoms: C_28  and  C_29
REMARK   10  A    between atoms: C_33  and  C_34
REMARK   11  A    between atoms: C_33  and  C_37
REMARK                            x       y       z     vdW  Elec       q    Type
REMARK                         _______ _______ _______ _____ _____    ______ ____
ROOT
ATOM      1  C   LIG A   1      -7.662  -2.232 132.338  0.00  0.00    +0.012 C 
ATOM      2  C   LIG A   1      -6.175  -1.929 132.088  0.00  0.00    -0.025 C 
ATOM      3  C   LIG A   1      -5.211  -3.195 132.037  0.00  0.00    +0.004 C 
ATOM      4  C   LIG A   1      -5.270  -4.204 133.263  0.00  0.00    +0.005 C 
ATOM      5  C   LIG A   1      -6.667  -4.723 133.672  0.00  0.00    +0.015 C 
ATOM      6  C   LIG A   1      -4.618  -3.380 134.430  0.00  0.00    +0.182 C 
ATOM      7  C   LIG A   1      -5.394  -2.047 134.643  0.00  0.00    +0.046 C 
ATOM      8  C   LIG A   1      -5.644  -1.171 133.377  0.00  0.00    +0.011 C 
ATOM      9  C   LIG A   1      -4.523  -5.538 132.985  0.00  0.00    +0.015 C 
ATOM     10  C   LIG A   1      -4.858  -3.816 130.696  0.00  0.00    +0.005 C 
ATOM     11  C   LIG A   1      -4.301  -2.726 129.799  0.00  0.00    +0.012 C 
ATOM     12  C   LIG A   1      -5.171  -1.467 129.622  0.00  0.00    -0.007 C 
ATOM     13  C   LIG A   1      -4.128  -0.348 129.336  0.00  0.00    +0.016 C 
ATOM     14  C   LIG A   1      -6.057  -0.938 130.789  0.00  0.00    +0.005 C 
ATOM     15  C   LIG A   1      -7.418  -0.230 130.179  0.00  0.00    +0.006 C 
ATOM     16  C   LIG A   1      -7.692  -0.049 128.582  0.00  0.00    +0.012 C 
ATOM     17  C   LIG A   1      -6.671  -0.716 127.598  0.00  0.00    -0.007 C 
ATOM     18  C   LIG A   1      -6.196  -1.801 128.558  0.00  0.00    -0.061 C 
ATOM     19  C   LIG A   1      -7.044  -2.862 128.702  0.00  0.00    -0.026 C 
ATOM     20  C   LIG A   1      -8.278  -3.132 127.896  0.00  0.00    +0.034 C 
ATOM     21  C   LIG A   1      -8.169  -2.631 126.448  0.00  0.00    -0.025 C 
ATOM     22  C   LIG A   1      -9.520  -2.018 126.033  0.00  0.00    +0.012 C 
ATOM     23  C   LIG A   1      -6.987  -1.633 126.325  0.00  0.00    +0.006 C 
ATOM     24  C   LIG A   1      -6.779  -1.173 124.862  0.00  0.00    +0.011 C 
ATOM     25  C   LIG A   1      -6.451  -2.399 123.940  0.00  0.00    -0.035 C 
ATOM     26  C   LIG A   1      -6.398  -1.931 122.476  0.00  0.00    +0.011 C 
ATOM     27  C   LIG A   1      -7.535  -3.491 124.085  0.00  0.00    +0.007 C 
ATOM     28  C   LIG A   1      -7.864  -3.856 125.536  0.00  0.00    +0.008 C 
ATOM     29  C   LIG A   1      -5.053  -2.996 124.262  0.00  0.00    +0.011 C 
ATOM     30  C   LIG A   1      -5.779   0.432 127.083  0.00  0.00    +0.016 C 
ENDROOT
BRANCH   6  31
ATOM     31  O   LIG A   1      -3.254  -3.022 134.058  0.00  0.00    -0.461 OA
BRANCH  31  32
ATOM     32  C   LIG A   1      -2.246  -3.559 134.759  0.00  0.00    +0.304 C 
ATOM     33  C   LIG A   1      -2.706  -4.170 136.041  0.00  0.00    +0.136 C 
ATOM     34  O   LIG A   1      -1.055  -3.427 134.448  0.00  0.00    -0.251 OA
ENDBRANCH  31  32
ENDBRANCH   6  31
TORSDOF 2
ENDMDL
MODEL 4
REMARK VINA RESULT:      -8.8      7.524     10.395
REMARK  Name = NuBBE_72
REMARK  11 active torsions:
REMARK  status: ('A' for Active; 'I' for Inactive)
REMARK    1  A    between atoms: C_1  and  C_2
REMARK    2  A    between atoms: C_4  and  C_5
REMARK    3  A    between atoms: C_4  and  C_14
REMARK    4  A    between atoms: C_6  and  O_10
REMARK    5  A    between atoms: O_10  and  C_11
REMARK    6  A    between atoms: C_11  and  C_12
REMARK    7  A    between atoms: C_18  and  C_19
REMARK    8  A    between atoms: C_24  and  C_38
REMARK    9  A    between atoms: C_28  and  C_29
REMARK   10  A    between atoms: C_33  and  C_34
REMARK   11  A    between atoms: C_33  and  C_37
REMARK                            x       y       z     vdW  Elec       q    Type
REMARK                         _______ _______ _______ _____ _____    ______ ____
ROOT
ATOM      1  C   LIG A   1      -6.080   3.139 133.550  0.00  0.00    +0.012 C 
ATOM      2  C   LIG A   1      -6.240   3.822 132.182  0.00  0.00    -0.025 C 
ATOM      3  C   LIG A   1      -7.376   4.933 132.092  0.00  0.00    +0.004 C 
ATOM      4  C   LIG A   1      -8.835   4.521 132.568  0.00  0.00    +0.005 C 
ATOM      5  C   LIG A   1      -8.955   3.871 133.966  0.00  0.00    +0.015 C 
ATOM      6  C   LIG A   1      -9.303   3.525 131.449  0.00  0.00    +0.182 C 
ATOM      7  C   LIG A   1      -8.298   2.343 131.328  0.00  0.00    +0.046 C 
ATOM      8  C   LIG A   1      -6.790   2.717 131.185  0.00  0.00    +0.011 C 
ATOM      9  C   LIG A   1      -9.789   5.739 132.720  0.00  0.00    +0.015 C 
ATOM     10  C   LIG A   1      -7.013   6.395 132.289  0.00  0.00    +0.005 C 
ATOM     11  C   LIG A   1      -5.897   6.742 131.322  0.00  0.00    +0.012 C 
ATOM     12  C   LIG A   1      -4.645   5.844 131.362  0.00  0.00    -0.007 C 
ATOM     13  C   LIG A   1      -4.089   5.940 129.911  0.00  0.00    +0.016 C 
ATOM     14  C   LIG A   1      -4.764   4.323 131.675  0.00  0.00    +0.005 C 
ATOM     15  C   LIG A   1      -3.412   3.811 132.472  0.00  0.00    +0.006 C 
ATOM     16  C   LIG A   1      -2.131   4.774 132.769  0.00  0.00    +0.012 C 
ATOM     17  C   LIG A   1      -2.273   6.291 132.401  0.00  0.00    -0.007 C 
ATOM     18  C   LIG A   1      -3.792   6.349 132.507  0.00  0.00    -0.061 C 
ATOM     19  C   LIG A   1      -4.284   6.414 133.779  0.00  0.00    -0.026 C 
ATOM     20  C   LIG A   1      -3.488   6.604 135.034  0.00  0.00    +0.034 C 
ATOM     21  C   LIG A   1      -2.232   7.461 134.822  0.00  0.00    -0.025 C 
ATOM     22  C   LIG A   1      -1.076   6.859 135.643  0.00  0.00    +0.012 C 
ATOM     23  C   LIG A   1      -1.913   7.560 133.306  0.00  0.00    +0.006 C 
ATOM     24  C   LIG A   1      -0.708   8.494 133.037  0.00  0.00    +0.011 C 
ATOM     25  C   LIG A   1      -1.013   9.947 133.544  0.00  0.00    -0.035 C 
ATOM     26  C   LIG A   1       0.252  10.810 133.399  0.00  0.00    +0.011 C 
ATOM     27  C   LIG A   1      -1.443   9.924 135.028  0.00  0.00    +0.007 C 
ATOM     28  C   LIG A   1      -2.534   8.897 135.346  0.00  0.00    +0.008 C 
ATOM     29  C   LIG A   1      -2.113  10.631 132.686  0.00  0.00    +0.011 C 
ATOM     30  C   LIG A   1      -1.491   6.474 131.084  0.00  0.00    +0.016 C 
ENDROOT
BRANCH   6  31
ATOM     31  O   LIG A   1      -9.302   4.216 130.164  0.00  0.00    -0.461 OA
BRANCH  31  32
ATOM     32  C   LIG A   1     -10.425   4.841 129.781  0.00  0.00    +0.304 C 
ATOM     33  C   LIG A   1     -10.163   6.220 129.275  0.00  0.00    +0.136 C 
ATOM     34  O   LIG A   1     -11.558   4.380 129.970  0.00  0.00    -0.251 OA
ENDBRANCH  31  32
ENDBRANCH   6  31
TORSDOF 2
ENDMDL
MODEL 5
REMARK VINA RESULT:      -8.8      5.396      9.772
REMARK  Name = NuBBE_72
REMARK  11 active torsions:
REMARK  status: ('A' for Active; 'I' for Inactive)
REMARK    1  A    between atoms: C_1  and  C_2
REMARK    2  A    between atoms: C_4  and  C_5
REMARK    3  A    between atoms: C_4  and  C_14
REMARK    4  A    between atoms: C_6  and  O_10
REMARK    5  A    between atoms: O_10  and  C_11
REMARK    6  A    between atoms: C_11  and  C_12
REMARK    7  A    between atoms: C_18  and  C_19
REMARK    8  A    between atoms: C_24  and  C_38
REMARK    9  A    between atoms: C_28  and  C_29
REMARK   10  A    between atoms: C_33  and  C_34
REMARK   11  A    between atoms: C_33  and  C_37
REMARK                            x       y       z     vdW  Elec       q    Type
REMARK                         _______ _______ _______ _____ _____    ______ ____
ROOT
ATOM      1  C   LIG A   1      -3.378   6.009 128.486  0.00  0.00    +0.012 C 
ATOM      2  C   LIG A   1      -3.792   4.885 129.450  0.00  0.00    -0.025 C 
ATOM      3  C   LIG A   1      -5.104   5.160 130.309  0.00  0.00    +0.004 C 
ATOM      4  C   LIG A   1      -5.161   6.514 131.138  0.00  0.00    +0.005 C 
ATOM      5  C   LIG A   1      -4.851   7.817 130.366  0.00  0.00    +0.015 C 
ATOM      6  C   LIG A   1      -4.104   6.276 132.276  0.00  0.00    +0.182 C 
ATOM      7  C   LIG A   1      -2.715   5.946 131.656  0.00  0.00    +0.046 C 
ATOM      8  C   LIG A   1      -2.677   4.820 130.577  0.00  0.00    +0.011 C 
ATOM      9  C   LIG A   1      -6.578   6.825 131.696  0.00  0.00    +0.015 C 
ATOM     10  C   LIG A   1      -6.444   4.637 129.820  0.00  0.00    +0.005 C 
ATOM     11  C   LIG A   1      -6.311   3.147 129.573  0.00  0.00    +0.012 C 
ATOM     12  C   LIG A   1      -5.164   2.700 128.646  0.00  0.00    -0.007 C 
ATOM     13  C   LIG A   1      -4.832   1.266 129.151  0.00  0.00    +0.016 C 
ATOM     14  C   LIG A   1      -3.811   3.471 128.624  0.00  0.00    +0.005 C 
ATOM     15  C   LIG A   1      -3.157   3.404 127.109  0.00  0.00    +0.006 C 
ATOM     16  C   LIG A   1      -3.822   2.558 125.885  0.00  0.00    +0.012 C 
ATOM     17  C   LIG A   1      -5.223   1.905 126.141  0.00  0.00    -0.007 C 
ATOM     18  C   LIG A   1      -5.666   2.878 127.227  0.00  0.00    -0.061 C 
ATOM     19  C   LIG A   1      -6.101   4.092 126.779  0.00  0.00    -0.026 C 
ATOM     20  C   LIG A   1      -6.339   4.482 125.352  0.00  0.00    +0.034 C 
ATOM     21  C   LIG A   1      -6.807   3.307 124.481  0.00  0.00    -0.025 C 
ATOM     22  C   LIG A   1      -6.120   3.403 123.106  0.00  0.00    +0.012 C 
ATOM     23  C   LIG A   1      -6.522   1.966 125.209  0.00  0.00    +0.006 C 
ATOM     24  C   LIG A   1      -7.064   0.756 124.410  0.00  0.00    +0.011 C 
ATOM     25  C   LIG A   1      -8.619   0.866 124.230  0.00  0.00    -0.035 C 
ATOM     26  C   LIG A   1      -9.104  -0.266 123.309  0.00  0.00    +0.011 C 
ATOM     27  C   LIG A   1      -8.996   2.227 123.603  0.00  0.00    +0.007 C 
ATOM     28  C   LIG A   1      -8.348   3.433 124.289  0.00  0.00    +0.008 C 
ATOM     29  C   LIG A   1      -9.363   0.684 125.582  0.00  0.00    +0.011 C 
ATOM     30  C   LIG A   1      -4.945   0.407 126.383  0.00  0.00    +0.016 C 
ENDROOT
BRANCH   6  31
ATOM     31  O   LIG A   1      -4.504   5.115 133.062  0.00  0.00    -0.461 OA
BRANCH  31  32
ATOM     32  C   LIG A   1      -4.207   5.103 134.369  0.00  0.00    +0.304 C 
ATOM     33  C   LIG A   1      -4.421   6.433 135.013  0.00  0.00    +0.136 C 
ATOM     34  O   LIG A   1      -3.673   4.142 134.937  0.00  0.00    -0.251 OA
ENDBRANCH  31  32
ENDBRANCH   6  31
TORSDOF 2
ENDMDL
MODEL 6
REMARK VINA RESULT:      -8.7      4.678      7.343
REMARK  Name = NuBBE_72
REMARK  11 active torsions:
REMARK  status: ('A' for Active; 'I' for Inactive)
REMARK    1  A    between atoms: C_1  and  C_2
REMARK    2  A    between atoms: C_4  and  C_5
REMARK    3  A    between atoms: C_4  and  C_14
REMARK    4  A    between atoms: C_6  and  O_10
REMARK    5  A    between atoms: O_10  and  C_11
REMARK    6  A    between atoms: C_11  and  C_12
REMARK    7  A    between atoms: C_18  and  C_19
REMARK    8  A    between atoms: C_24  and  C_38
REMARK    9  A    between atoms: C_28  and  C_29
REMARK   10  A    between atoms: C_33  and  C_34
REMARK   11  A    between atoms: C_33  and  C_37
REMARK                            x       y       z     vdW  Elec       q    Type
REMARK                         _______ _______ _______ _____ _____    ______ ____
ROOT
ATOM      1  C   LIG A   1      -7.308   4.213 132.902  0.00  0.00    +0.012 C 
ATOM      2  C   LIG A   1      -6.790   4.163 131.455  0.00  0.00    -0.025 C 
ATOM      3  C   LIG A   1      -5.218   4.347 131.276  0.00  0.00    +0.004 C 
ATOM      4  C   LIG A   1      -4.554   5.622 131.955  0.00  0.00    +0.005 C 
ATOM      5  C   LIG A   1      -4.864   5.857 133.451  0.00  0.00    +0.015 C 
ATOM      6  C   LIG A   1      -5.094   6.809 131.080  0.00  0.00    +0.182 C 
ATOM      7  C   LIG A   1      -6.651   6.808 131.078  0.00  0.00    +0.046 C 
ATOM      8  C   LIG A   1      -7.350   5.457 130.728  0.00  0.00    +0.011 C 
ATOM      9  C   LIG A   1      -3.001   5.555 131.977  0.00  0.00    +0.015 C 
ATOM     10  C   LIG A   1      -4.326   3.122 131.174  0.00  0.00    +0.005 C 
ATOM     11  C   LIG A   1      -4.856   2.240 130.059  0.00  0.00    +0.012 C 
ATOM     12  C   LIG A   1      -6.343   1.845 130.140  0.00  0.00    -0.007 C 
ATOM     13  C   LIG A   1      -6.740   1.635 128.649  0.00  0.00    +0.016 C 
ATOM     14  C   LIG A   1      -7.399   2.827 130.729  0.00  0.00    +0.005 C 
ATOM     15  C   LIG A   1      -8.600   1.973 131.472  0.00  0.00    +0.006 C 
ATOM     16  C   LIG A   1      -8.672   0.344 131.470  0.00  0.00    +0.012 C 
ATOM     17  C   LIG A   1      -7.456  -0.427 130.853  0.00  0.00    -0.007 C 
ATOM     18  C   LIG A   1      -6.423   0.668 131.091  0.00  0.00    -0.061 C 
ATOM     19  C   LIG A   1      -5.959   0.763 132.371  0.00  0.00    -0.026 C 
ATOM     20  C   LIG A   1      -6.233  -0.194 133.491  0.00  0.00    +0.034 C 
ATOM     21  C   LIG A   1      -6.408  -1.643 133.012  0.00  0.00    -0.025 C 
ATOM     22  C   LIG A   1      -7.549  -2.296 133.813  0.00  0.00    +0.012 C 
ATOM     23  C   LIG A   1      -6.654  -1.663 131.479  0.00  0.00    +0.006 C 
ATOM     24  C   LIG A   1      -6.742  -3.108 130.934  0.00  0.00    +0.011 C 
ATOM     25  C   LIG A   1      -5.402  -3.880 131.200  0.00  0.00    -0.035 C 
ATOM     26  C   LIG A   1      -5.574  -5.351 130.784  0.00  0.00    +0.011 C 
ATOM     27  C   LIG A   1      -5.030  -3.817 132.699  0.00  0.00    +0.007 C 
ATOM     28  C   LIG A   1      -5.082  -2.408 133.297  0.00  0.00    +0.008 C 
ATOM     29  C   LIG A   1      -4.237  -3.313 130.343  0.00  0.00    +0.011 C 
ATOM     30  C   LIG A   1      -7.921  -0.888 129.456  0.00  0.00    +0.016 C 
ENDROOT
BRANCH   6  31
ATOM     31  O   LIG A   1      -4.667   6.617 129.699  0.00  0.00    -0.461 OA
BRANCH  31  32
ATOM     32  C   LIG A   1      -3.810   7.503 129.173  0.00  0.00    +0.304 C 
ATOM     33  C   LIG A   1      -2.709   6.845 128.410  0.00  0.00    +0.136 C 
ATOM     34  O   LIG A   1      -3.847   8.715 129.421  0.00  0.00    -0.251 OA
ENDBRANCH  31  32
ENDBRANCH   6  31
TORSDOF 2
ENDMDL
MODEL 7
REMARK VINA RESULT:      -8.6      3.126      4.962
REMARK  Name = NuBBE_72
REMARK  11 active torsions:
REMARK  status: ('A' for Active; 'I' for Inactive)
REMARK    1  A    between atoms: C_1  and  C_2
REMARK    2  A    between atoms: C_4  and  C_5
REMARK    3  A    between atoms: C_4  and  C_14
REMARK    4  A    between atoms: C_6  and  O_10
REMARK    5  A    between atoms: O_10  and  C_11
REMARK    6  A    between atoms: C_11  and  C_12
REMARK    7  A    between atoms: C_18  and  C_19
REMARK    8  A    between atoms: C_24  and  C_38
REMARK    9  A    between atoms: C_28  and  C_29
REMARK   10  A    between atoms: C_33  and  C_34
REMARK   11  A    between atoms: C_33  and  C_37
REMARK                            x       y       z     vdW  Elec       q    Type
REMARK                         _______ _______ _______ _____ _____    ______ ____
ROOT
ATOM      1  C   LIG A   1      -6.850   3.926 128.660  0.00  0.00    +0.012 C 
ATOM      2  C   LIG A   1      -6.928   2.975 127.454  0.00  0.00    -0.025 C 
ATOM      3  C   LIG A   1      -5.573   2.771 126.645  0.00  0.00    +0.004 C 
ATOM      4  C   LIG A   1      -4.821   4.078 126.145  0.00  0.00    +0.005 C 
ATOM      5  C   LIG A   1      -4.550   5.174 127.201  0.00  0.00    +0.015 C 
ATOM      6  C   LIG A   1      -5.766   4.618 125.013  0.00  0.00    +0.182 C 
ATOM      7  C   LIG A   1      -7.195   4.862 125.578  0.00  0.00    +0.046 C 
ATOM      8  C   LIG A   1      -7.845   3.687 126.373  0.00  0.00    +0.011 C 
ATOM      9  C   LIG A   1      -3.381   3.791 125.634  0.00  0.00    +0.015 C 
ATOM     10  C   LIG A   1      -4.678   1.585 126.966  0.00  0.00    +0.005 C 
ATOM     11  C   LIG A   1      -5.512   0.322 126.871  0.00  0.00    +0.012 C 
ATOM     12  C   LIG A   1      -6.809   0.286 127.703  0.00  0.00    -0.007 C 
ATOM     13  C   LIG A   1      -7.728  -0.674 126.893  0.00  0.00    +0.016 C 
ATOM     14  C   LIG A   1      -7.642   1.581 127.936  0.00  0.00    +0.005 C 
ATOM     15  C   LIG A   1      -8.377   1.511 129.413  0.00  0.00    +0.006 C 
ATOM     16  C   LIG A   1      -8.291   0.212 130.394  0.00  0.00    +0.012 C 
ATOM     17  C   LIG A   1      -7.340  -0.955 129.958  0.00  0.00    -0.007 C 
ATOM     18  C   LIG A   1      -6.404  -0.102 129.110  0.00  0.00    -0.061 C 
ATOM     19  C   LIG A   1      -5.492   0.634 129.811  0.00  0.00    -0.026 C 
ATOM     20  C   LIG A   1      -5.222   0.550 131.283  0.00  0.00    +0.034 C 
ATOM     21  C   LIG A   1      -5.431  -0.861 131.850  0.00  0.00    -0.025 C 
ATOM     22  C   LIG A   1      -6.108  -0.746 133.229  0.00  0.00    +0.012 C 
ATOM     23  C   LIG A   1      -6.247  -1.716 130.844  0.00  0.00    +0.006 C 
ATOM     24  C   LIG A   1      -6.402  -3.177 131.331  0.00  0.00    +0.011 C 
ATOM     25  C   LIG A   1      -4.997  -3.858 131.489  0.00  0.00    -0.035 C 
ATOM     26  C   LIG A   1      -5.177  -5.251 132.115  0.00  0.00    +0.011 C 
ATOM     27  C   LIG A   1      -4.083  -3.007 132.399  0.00  0.00    +0.007 C 
ATOM     28  C   LIG A   1      -4.032  -1.524 132.024  0.00  0.00    +0.008 C 
ATOM     29  C   LIG A   1      -4.312  -4.078 130.112  0.00  0.00    +0.011 C 
ATOM     30  C   LIG A   1      -8.263  -2.052 129.389  0.00  0.00    +0.016 C 
ENDROOT
BRANCH   6  31
ATOM     31  O   LIG A   1      -5.889   3.603 123.971  0.00  0.00    -0.461 OA
BRANCH  31  32
ATOM     32  C   LIG A   1      -5.719   3.982 122.697  0.00  0.00    +0.304 C 
ATOM     33  C   LIG A   1      -6.280   2.992 121.730  0.00  0.00    +0.136 C 
ATOM     34  O   LIG A   1      -5.042   4.962 122.363  0.00  0.00    -0.251 OA
ENDBRANCH  31  32
ENDBRANCH   6  31
TORSDOF 2
ENDMDL
MODEL 8
REMARK VINA RESULT:      -8.4      4.552      7.753
REMARK  Name = NuBBE_72
REMARK  11 active torsions:
REMARK  status: ('A' for Active; 'I' for Inactive)
REMARK    1  A    between atoms: C_1  and  C_2
REMARK    2  A    between atoms: C_4  and  C_5
REMARK    3  A    between atoms: C_4  and  C_14
REMARK    4  A    between atoms: C_6  and  O_10
REMARK    5  A    between atoms: O_10  and  C_11
REMARK    6  A    between atoms: C_11  and  C_12
REMARK    7  A    between atoms: C_18  and  C_19
REMARK    8  A    between atoms: C_24  and  C_38
REMARK    9  A    between atoms: C_28  and  C_29
REMARK   10  A    between atoms: C_33  and  C_34
REMARK   11  A    between atoms: C_33  and  C_37
REMARK                            x       y       z     vdW  Elec       q    Type
REMARK                         _______ _______ _______ _____ _____    ______ ____
ROOT
ATOM      1  C   LIG A   1      -7.231   0.167 128.759  0.00  0.00    +0.012 C 
ATOM      2  C   LIG A   1      -6.764  -0.314 130.143  0.00  0.00    -0.025 C 
ATOM      3  C   LIG A   1      -5.417  -1.162 130.162  0.00  0.00    +0.004 C 
ATOM      4  C   LIG A   1      -5.335  -2.419 129.193  0.00  0.00    +0.005 C 
ATOM      5  C   LIG A   1      -5.690  -2.177 127.707  0.00  0.00    +0.015 C 
ATOM      6  C   LIG A   1      -6.337  -3.435 129.847  0.00  0.00    +0.182 C 
ATOM      7  C   LIG A   1      -7.750  -2.794 129.967  0.00  0.00    +0.046 C 
ATOM      8  C   LIG A   1      -7.827  -1.385 130.634  0.00  0.00    +0.011 C 
ATOM      9  C   LIG A   1      -3.897  -2.994 129.068  0.00  0.00    +0.015 C 
ATOM     10  C   LIG A   1      -4.096  -0.466 130.443  0.00  0.00    +0.005 C 
ATOM     11  C   LIG A   1      -4.227   0.293 131.750  0.00  0.00    +0.012 C 
ATOM     12  C   LIG A   1      -5.411   1.272 131.863  0.00  0.00    -0.007 C 
ATOM     13  C   LIG A   1      -5.708   1.301 133.390  0.00  0.00    +0.016 C 
ATOM     14  C   LIG A   1      -6.771   0.964 131.168  0.00  0.00    +0.005 C 
ATOM     15  C   LIG A   1      -7.492   2.375 130.705  0.00  0.00    +0.006 C 
ATOM     16  C   LIG A   1      -6.876   3.846 131.042  0.00  0.00    +0.012 C 
ATOM     17  C   LIG A   1      -5.459   3.896 131.709  0.00  0.00    -0.007 C 
ATOM     18  C   LIG A   1      -4.975   2.552 131.178  0.00  0.00    -0.061 C 
ATOM     19  C   LIG A   1      -4.572   2.552 129.873  0.00  0.00    -0.026 C 
ATOM     20  C   LIG A   1      -4.402   3.753 128.994  0.00  0.00    +0.034 C 
ATOM     21  C   LIG A   1      -3.963   5.005 129.768  0.00  0.00    -0.025 C 
ATOM     22  C   LIG A   1      -4.713   6.226 129.204  0.00  0.00    +0.012 C 
ATOM     23  C   LIG A   1      -4.204   4.795 131.287  0.00  0.00    +0.006 C 
ATOM     24  C   LIG A   1      -3.688   5.994 132.118  0.00  0.00    +0.011 C 
ATOM     25  C   LIG A   1      -2.144   6.183 131.914  0.00  0.00    -0.035 C 
ATOM     26  C   LIG A   1      -1.692   7.467 132.630  0.00  0.00    +0.011 C 
ATOM     27  C   LIG A   1      -1.807   6.296 130.410  0.00  0.00    +0.007 C 
ATOM     28  C   LIG A   1      -2.434   5.199 129.544  0.00  0.00    +0.008 C 
ATOM     29  C   LIG A   1      -1.338   5.017 132.549  0.00  0.00    +0.011 C 
ATOM     30  C   LIG A   1      -5.712   4.195 133.201  0.00  0.00    +0.016 C 
ENDROOT
BRANCH   6  31
ATOM     31  O   LIG A   1      -5.892  -3.738 131.203  0.00  0.00    -0.461 OA
BRANCH  31  32
ATOM     32  C   LIG A   1      -5.590  -5.010 131.500  0.00  0.00    +0.304 C 
ATOM     33  C   LIG A   1      -5.056  -5.158 132.886  0.00  0.00    +0.136 C 
ATOM     34  O   LIG A   1      -5.610  -5.926 130.668  0.00  0.00    -0.251 OA
ENDBRANCH  31  32
ENDBRANCH   6  31
TORSDOF 2
ENDMDL
MODEL 9
REMARK VINA RESULT:      -8.3      4.894      7.321
REMARK  Name = NuBBE_72
REMARK  11 active torsions:
REMARK  status: ('A' for Active; 'I' for Inactive)
REMARK    1  A    between atoms: C_1  and  C_2
REMARK    2  A    between atoms: C_4  and  C_5
REMARK    3  A    between atoms: C_4  and  C_14
REMARK    4  A    between atoms: C_6  and  O_10
REMARK    5  A    between atoms: O_10  and  C_11
REMARK    6  A    between atoms: C_11  and  C_12
REMARK    7  A    between atoms: C_18  and  C_19
REMARK    8  A    between atoms: C_24  and  C_38
REMARK    9  A    between atoms: C_28  and  C_29
REMARK   10  A    between atoms: C_33  and  C_34
REMARK   11  A    between atoms: C_33  and  C_37
REMARK                            x       y       z     vdW  Elec       q    Type
REMARK                         _______ _______ _______ _____ _____    ______ ____
ROOT
ATOM      1  C   LIG A   1      -7.624   3.614 126.912  0.00  0.00    +0.012 C 
ATOM      2  C   LIG A   1      -7.495   2.470 127.931  0.00  0.00    -0.025 C 
ATOM      3  C   LIG A   1      -6.384   1.376 127.606  0.00  0.00    +0.004 C 
ATOM      4  C   LIG A   1      -6.426   0.702 126.168  0.00  0.00    +0.005 C 
ATOM      5  C   LIG A   1      -6.484   1.656 124.952  0.00  0.00    +0.015 C 
ATOM      6  C   LIG A   1      -7.716  -0.193 126.235  0.00  0.00    +0.182 C 
ATOM      7  C   LIG A   1      -8.956   0.680 126.584  0.00  0.00    +0.046 C 
ATOM      8  C   LIG A   1      -8.828   1.616 127.826  0.00  0.00    +0.011 C 
ATOM      9  C   LIG A   1      -5.147  -0.118 125.845  0.00  0.00    +0.015 C 
ATOM     10  C   LIG A   1      -5.004   1.500 128.229  0.00  0.00    +0.005 C 
ATOM     11  C   LIG A   1      -5.170   1.613 129.733  0.00  0.00    +0.012 C 
ATOM     12  C   LIG A   1      -6.115   2.717 130.242  0.00  0.00    -0.007 C 
ATOM     13  C   LIG A   1      -6.634   2.150 131.595  0.00  0.00    +0.016 C 
ATOM     14  C   LIG A   1      -7.384   3.118 129.432  0.00  0.00    +0.005 C 
ATOM     15  C   LIG A   1      -7.699   4.724 129.649  0.00  0.00    +0.006 C 
ATOM     16  C   LIG A   1      -6.838   5.676 130.655  0.00  0.00    +0.012 C 
ATOM     17  C   LIG A   1      -5.567   5.050 131.323  0.00  0.00    -0.007 C 
ATOM     18  C   LIG A   1      -5.310   4.001 130.247  0.00  0.00    -0.061 C 
ATOM     19  C   LIG A   1      -4.717   4.468 129.110  0.00  0.00    -0.026 C 
ATOM     20  C   LIG A   1      -4.155   5.840 128.896  0.00  0.00    +0.034 C 
ATOM     21  C   LIG A   1      -3.581   6.458 130.180  0.00  0.00    -0.025 C 
ATOM     22  C   LIG A   1      -3.950   7.952 130.219  0.00  0.00    +0.012 C 
ATOM     23  C   LIG A   1      -4.097   5.674 131.417  0.00  0.00    +0.006 C 
ATOM     24  C   LIG A   1      -3.469   6.201 132.729  0.00  0.00    +0.011 C 
ATOM     25  C   LIG A   1      -1.908   6.045 132.696  0.00  0.00    -0.035 C 
ATOM     26  C   LIG A   1      -1.305   6.712 133.944  0.00  0.00    +0.011 C 
ATOM     27  C   LIG A   1      -1.323   6.713 131.431  0.00  0.00    +0.007 C 
ATOM     28  C   LIG A   1      -2.030   6.317 130.131  0.00  0.00    +0.008 C 
ATOM     29  C   LIG A   1      -1.484   4.551 132.747  0.00  0.00    +0.011 C 
ATOM     30  C   LIG A   1      -5.980   4.718 132.772  0.00  0.00    +0.016 C 
ENDROOT
BRANCH   6  31
ATOM     31  O   LIG A   1      -7.564  -1.166 127.311  0.00  0.00    -0.461 OA
BRANCH  31  32
ATOM     32  C   LIG A   1      -8.025  -2.408 127.109  0.00  0.00    +0.304 C 
ATOM     33  C   LIG A   1      -7.872  -2.849 125.691  0.00  0.00    +0.136 C 
ATOM     34  O   LIG A   1      -8.644  -3.052 127.967  0.00  0.00    -0.251 OA
ENDBRANCH  31  32
ENDBRANCH   6  31
TORSDOF 2
ENDMDL
