MODEL 1
REMARK VINA RESULT:      -9.4      0.000      0.000
REMARK  Name = NuBBE_1426
REMARK  12 active torsions:
REMARK  status: ('A' for Active; 'I' for Inactive)
REMARK    1  A    between atoms: C_5  and  C_6
REMARK    2  A    between atoms: C_16  and  C_17
REMARK    3  A    between atoms: C_20  and  C_22
REMARK    4  A    between atoms: C_25  and  C_26
REMARK    5  A    between atoms: C_26  and  O_28
REMARK    6  A    between atoms: C_26  and  C_29
REMARK    7  A    between atoms: C_29  and  C_30
REMARK    8  A    between atoms: C_29  and  O_31
REMARK    9  A    between atoms: C_29  and  C_32
REMARK   10  A    between atoms: C_34  and  O_35
REMARK   11  A    between atoms: C_36  and  C_37
REMARK   12  A    between atoms: C_36  and  C_38
REMARK                            x       y       z     vdW  Elec       q    Type
REMARK                         _______ _______ _______ _____ _____    ______ ____
ROOT
ATOM      1  O   LIG A   1      -7.651  -2.276 123.073  0.00  0.00    -0.297 OA
ATOM      2  C   LIG A   1      -7.389  -1.847 124.185  0.00  0.00    +0.139 C 
ATOM      3  C   LIG A   1      -6.351  -0.755 124.355  0.00  0.00    +0.075 C 
ATOM      4  C   LIG A   1      -6.770   0.179 125.475  0.00  0.00    +0.015 C 
ATOM      5  C   LIG A   1      -6.801  -0.525 126.859  0.00  0.00    -0.021 C 
ATOM      6  C   LIG A   1      -5.357  -0.442 127.434  0.00  0.00    +0.012 C 
ATOM      7  C   LIG A   1      -7.190  -2.047 126.716  0.00  0.00    +0.012 C 
ATOM      8  C   LIG A   1      -7.726  -2.674 128.040  0.00  0.00    +0.032 C 
ATOM      9  C   LIG A   1      -7.777  -1.792 129.260  0.00  0.00    -0.026 C 
ATOM     10  C   LIG A   1      -7.808  -0.445 129.213  0.00  0.00    -0.064 C 
ATOM     11  C   LIG A   1      -7.818   0.172 127.821  0.00  0.00    +0.021 C 
ATOM     12  C   LIG A   1      -7.761   1.697 127.848  0.00  0.00    +0.009 C 
ATOM     13  C   LIG A   1      -8.862   2.193 128.769  0.00  0.00    +0.005 C 
ATOM     14  C   LIG A   1      -8.631   1.822 130.241  0.00  0.00    +0.002 C 
ATOM     15  C   LIG A   1      -7.833   0.484 130.448  0.00  0.00    -0.008 C 
ATOM     16  C   LIG A   1      -8.423  -0.231 131.695  0.00  0.00    +0.016 C 
ATOM     17  C   LIG A   1      -6.389   0.943 130.805  0.00  0.00    +0.011 C 
ATOM     18  C   LIG A   1      -6.391   2.464 130.931  0.00  0.00    +0.005 C 
ATOM     19  C   LIG A   1      -7.853   2.876 131.077  0.00  0.00    -0.001 C 
ATOM     20  C   LIG A   1      -8.075  -2.384 125.458  0.00  0.00    +0.027 C 
ATOM     21  C   LIG A   1      -9.494  -1.788 125.499  0.00  0.00    +0.019 C 
ATOM     22  C   LIG A   1      -8.201  -3.914 125.290  0.00  0.00    +0.019 C 
ENDROOT
BRANCH  19  23
ATOM     23  C   LIG A   1      -8.112   4.354 130.721  0.00  0.00    +0.021 C 
ATOM     24  C   LIG A   1      -9.499   4.847 131.144  0.00  0.00    +0.012 C 
ATOM     25  C   LIG A   1      -9.433   6.381 130.977  0.00  0.00    +0.023 C 
ATOM     26  C   LIG A   1      -7.951   6.700 131.260  0.00  0.00    +0.037 C 
ATOM     27  C   LIG A   1      -7.218   5.367 131.437  0.00  0.00    +0.118 C 
BRANCH  27  28
ATOM     28  O   LIG A   1      -5.931   5.418 130.845  0.00  0.00    -0.392 OA
ATOM     29  H   LIG A   1      -5.718   4.522 130.533  0.00  0.00    +0.210 HD
ENDBRANCH  27  28
BRANCH  25  30
ATOM     30  C   LIG A   1      -9.950   6.892 129.597  0.00  0.00    +0.149 C 
BRANCH  30  31
ATOM     31  C   LIG A   1     -11.503   7.120 129.479  0.00  0.00    +0.086 C 
ATOM     32  C   LIG A   1     -11.867   8.355 128.646  0.00  0.00    +0.043 C 
ATOM     33  C   LIG A   1     -12.140   7.255 130.871  0.00  0.00    +0.043 C 
BRANCH  31  34
ATOM     34  O   LIG A   1     -12.129   5.982 128.876  0.00  0.00    -0.387 OA
ATOM     35  H   LIG A   1     -11.551   5.210 129.003  0.00  0.00    +0.210 HD
ENDBRANCH  31  34
ENDBRANCH  30  31
BRANCH  30  36
ATOM     36  O   LIG A   1      -9.560   5.946 128.587  0.00  0.00    -0.389 OA
ATOM     37  H   LIG A   1     -10.358   5.481 128.284  0.00  0.00    +0.210 HD
ENDBRANCH  30  36
ENDBRANCH  25  30
ENDBRANCH  19  23
TORSDOF 6
ENDMDL
MODEL 2
REMARK VINA RESULT:      -8.8      4.890      8.652
REMARK  Name = NuBBE_1426
REMARK  12 active torsions:
REMARK  status: ('A' for Active; 'I' for Inactive)
REMARK    1  A    between atoms: C_5  and  C_6
REMARK    2  A    between atoms: C_16  and  C_17
REMARK    3  A    between atoms: C_20  and  C_22
REMARK    4  A    between atoms: C_25  and  C_26
REMARK    5  A    between atoms: C_26  and  O_28
REMARK    6  A    between atoms: C_26  and  C_29
REMARK    7  A    between atoms: C_29  and  C_30
REMARK    8  A    between atoms: C_29  and  O_31
REMARK    9  A    between atoms: C_29  and  C_32
REMARK   10  A    between atoms: C_34  and  O_35
REMARK   11  A    between atoms: C_36  and  C_37
REMARK   12  A    between atoms: C_36  and  C_38
REMARK                            x       y       z     vdW  Elec       q    Type
REMARK                         _______ _______ _______ _____ _____    ______ ____
ROOT
ATOM      1  O   LIG A   1      -1.232   8.833 136.000  0.00  0.00    -0.297 OA
ATOM      2  C   LIG A   1      -1.798   7.944 135.385  0.00  0.00    +0.139 C 
ATOM      3  C   LIG A   1      -2.924   7.166 136.037  0.00  0.00    +0.075 C 
ATOM      4  C   LIG A   1      -3.978   6.826 134.999  0.00  0.00    +0.015 C 
ATOM      5  C   LIG A   1      -3.447   5.865 133.901  0.00  0.00    -0.021 C 
ATOM      6  C   LIG A   1      -3.628   4.419 134.446  0.00  0.00    +0.012 C 
ATOM      7  C   LIG A   1      -1.911   6.102 133.630  0.00  0.00    +0.012 C 
ATOM      8  C   LIG A   1      -1.438   5.564 132.244  0.00  0.00    +0.032 C 
ATOM      9  C   LIG A   1      -2.460   4.880 131.375  0.00  0.00    -0.026 C 
ATOM     10  C   LIG A   1      -3.791   5.065 131.492  0.00  0.00    -0.064 C 
ATOM     11  C   LIG A   1      -4.233   6.052 132.562  0.00  0.00    +0.021 C 
ATOM     12  C   LIG A   1      -5.752   6.139 132.698  0.00  0.00    +0.009 C 
ATOM     13  C   LIG A   1      -6.333   6.396 131.319  0.00  0.00    +0.005 C 
ATOM     14  C   LIG A   1      -6.148   5.215 130.355  0.00  0.00    +0.002 C 
ATOM     15  C   LIG A   1      -4.862   4.355 130.632  0.00  0.00    -0.008 C 
ATOM     16  C   LIG A   1      -4.292   3.900 129.261  0.00  0.00    +0.016 C 
ATOM     17  C   LIG A   1      -5.390   3.089 131.368  0.00  0.00    +0.011 C 
ATOM     18  C   LIG A   1      -6.915   3.154 131.390  0.00  0.00    +0.005 C 
ATOM     19  C   LIG A   1      -7.312   4.184 130.337  0.00  0.00    -0.001 C 
ATOM     20  C   LIG A   1      -1.405   7.560 133.943  0.00  0.00    +0.027 C 
ATOM     21  C   LIG A   1      -1.973   8.646 133.011  0.00  0.00    +0.019 C 
ATOM     22  C   LIG A   1       0.136   7.617 133.867  0.00  0.00    +0.019 C 
ENDROOT
BRANCH  19  23
ATOM     23  C   LIG A   1      -8.730   4.755 130.540  0.00  0.00    +0.021 C 
ATOM     24  C   LIG A   1      -9.307   5.410 129.282  0.00  0.00    +0.012 C 
ATOM     25  C   LIG A   1     -10.801   5.630 129.610  0.00  0.00    +0.023 C 
ATOM     26  C   LIG A   1     -11.125   4.463 130.565  0.00  0.00    +0.037 C 
ATOM     27  C   LIG A   1      -9.814   3.722 130.848  0.00  0.00    +0.118 C 
BRANCH  27  28
ATOM     28  O   LIG A   1      -9.753   3.307 132.202  0.00  0.00    -0.392 OA
ATOM     29  H   LIG A   1     -10.580   3.587 132.631  0.00  0.00    +0.210 HD
ENDBRANCH  27  28
BRANCH  25  30
ATOM     30  C   LIG A   1     -11.124   7.042 130.188  0.00  0.00    +0.149 C 
BRANCH  30  31
ATOM     31  C   LIG A   1     -12.622   7.509 130.079  0.00  0.00    +0.086 C 
ATOM     32  C   LIG A   1     -13.360   6.890 128.884  0.00  0.00    +0.043 C 
ATOM     33  C   LIG A   1     -12.709   9.040 129.976  0.00  0.00    +0.043 C 
BRANCH  31  34
ATOM     34  O   LIG A   1     -13.341   7.161 131.268  0.00  0.00    -0.387 OA
ATOM     35  H   LIG A   1     -13.466   7.966 131.798  0.00  0.00    +0.210 HD
ENDBRANCH  31  34
ENDBRANCH  30  31
BRANCH  30  36
ATOM     36  O   LIG A   1     -10.305   8.009 129.508  0.00  0.00    -0.389 OA
ATOM     37  H   LIG A   1     -10.699   8.887 129.642  0.00  0.00    +0.210 HD
ENDBRANCH  30  36
ENDBRANCH  25  30
ENDBRANCH  19  23
TORSDOF 6
ENDMDL
MODEL 3
REMARK VINA RESULT:      -8.8      2.087      3.412
REMARK  Name = NuBBE_1426
REMARK  12 active torsions:
REMARK  status: ('A' for Active; 'I' for Inactive)
REMARK    1  A    between atoms: C_5  and  C_6
REMARK    2  A    between atoms: C_16  and  C_17
REMARK    3  A    between atoms: C_20  and  C_22
REMARK    4  A    between atoms: C_25  and  C_26
REMARK    5  A    between atoms: C_26  and  O_28
REMARK    6  A    between atoms: C_26  and  C_29
REMARK    7  A    between atoms: C_29  and  C_30
REMARK    8  A    between atoms: C_29  and  O_31
REMARK    9  A    between atoms: C_29  and  C_32
REMARK   10  A    between atoms: C_34  and  O_35
REMARK   11  A    between atoms: C_36  and  C_37
REMARK   12  A    between atoms: C_36  and  C_38
REMARK                            x       y       z     vdW  Elec       q    Type
REMARK                         _______ _______ _______ _____ _____    ______ ____
ROOT
ATOM      1  O   LIG A   1      -7.890  -3.283 127.879  0.00  0.00    -0.297 OA
ATOM      2  C   LIG A   1      -7.479  -2.184 128.214  0.00  0.00    +0.139 C 
ATOM      3  C   LIG A   1      -7.623  -1.001 127.276  0.00  0.00    +0.075 C 
ATOM      4  C   LIG A   1      -7.902   0.256 128.079  0.00  0.00    +0.015 C 
ATOM      5  C   LIG A   1      -6.715   0.652 129.000  0.00  0.00    -0.021 C 
ATOM      6  C   LIG A   1      -5.746   1.510 128.137  0.00  0.00    +0.012 C 
ATOM      7  C   LIG A   1      -5.933  -0.623 129.501  0.00  0.00    +0.012 C 
ATOM      8  C   LIG A   1      -5.086  -0.363 130.785  0.00  0.00    +0.032 C 
ATOM      9  C   LIG A   1      -5.091   1.032 131.354  0.00  0.00    -0.026 C 
ATOM     10  C   LIG A   1      -6.063   1.936 131.119  0.00  0.00    -0.064 C 
ATOM     11  C   LIG A   1      -7.213   1.462 130.241  0.00  0.00    +0.021 C 
ATOM     12  C   LIG A   1      -8.225   2.566 129.943  0.00  0.00    +0.009 C 
ATOM     13  C   LIG A   1      -8.648   3.185 131.264  0.00  0.00    +0.005 C 
ATOM     14  C   LIG A   1      -7.514   3.948 131.964  0.00  0.00    +0.002 C 
ATOM     15  C   LIG A   1      -6.080   3.381 131.667  0.00  0.00    -0.008 C 
ATOM     16  C   LIG A   1      -5.239   3.514 132.966  0.00  0.00    +0.016 C 
ATOM     17  C   LIG A   1      -5.483   4.362 130.616  0.00  0.00    +0.011 C 
ATOM     18  C   LIG A   1      -6.471   5.510 130.423  0.00  0.00    +0.005 C 
ATOM     19  C   LIG A   1      -7.419   5.461 131.617  0.00  0.00    -0.001 C 
ATOM     20  C   LIG A   1      -6.797  -1.938 129.575  0.00  0.00    +0.027 C 
ATOM     21  C   LIG A   1      -7.905  -1.914 130.644  0.00  0.00    +0.019 C 
ATOM     22  C   LIG A   1      -5.889  -3.157 129.850  0.00  0.00    +0.019 C 
ENDROOT
BRANCH  19  23
ATOM     23  C   LIG A   1      -8.756   6.188 131.370  0.00  0.00    +0.021 C 
ATOM     24  C   LIG A   1      -9.390   5.852 130.018  0.00  0.00    +0.012 C 
ATOM     25  C   LIG A   1     -10.821   6.427 130.107  0.00  0.00    +0.023 C 
ATOM     26  C   LIG A   1     -11.154   6.306 131.608  0.00  0.00    +0.037 C 
ATOM     27  C   LIG A   1      -9.892   5.810 132.321  0.00  0.00    +0.118 C 
BRANCH  27  28
ATOM     28  O   LIG A   1      -9.739   6.450 133.577  0.00  0.00    -0.392 OA
ATOM     29  H   LIG A   1      -9.248   7.276 133.426  0.00  0.00    +0.210 HD
ENDBRANCH  27  28
BRANCH  25  30
ATOM     30  C   LIG A   1     -10.963   7.870 129.531  0.00  0.00    +0.149 C 
BRANCH  30  31
ATOM     31  C   LIG A   1     -12.101   8.081 128.464  0.00  0.00    +0.086 C 
ATOM     32  C   LIG A   1     -13.307   7.157 128.682  0.00  0.00    +0.043 C 
ATOM     33  C   LIG A   1     -11.560   7.864 127.042  0.00  0.00    +0.043 C 
BRANCH  31  34
ATOM     34  O   LIG A   1     -12.571   9.433 128.498  0.00  0.00    -0.387 OA
ATOM     35  H   LIG A   1     -12.749   9.719 127.586  0.00  0.00    +0.210 HD
ENDBRANCH  31  34
ENDBRANCH  30  31
BRANCH  30  36
ATOM     36  O   LIG A   1      -9.712   8.243 128.927  0.00  0.00    -0.389 OA
ATOM     37  H   LIG A   1      -9.905   8.745 128.118  0.00  0.00    +0.210 HD
ENDBRANCH  30  36
ENDBRANCH  25  30
ENDBRANCH  19  23
TORSDOF 6
ENDMDL
MODEL 4
REMARK VINA RESULT:      -8.6      3.215      7.686
REMARK  Name = NuBBE_1426
REMARK  12 active torsions:
REMARK  status: ('A' for Active; 'I' for Inactive)
REMARK    1  A    between atoms: C_5  and  C_6
REMARK    2  A    between atoms: C_16  and  C_17
REMARK    3  A    between atoms: C_20  and  C_22
REMARK    4  A    between atoms: C_25  and  C_26
REMARK    5  A    between atoms: C_26  and  O_28
REMARK    6  A    between atoms: C_26  and  C_29
REMARK    7  A    between atoms: C_29  and  C_30
REMARK    8  A    between atoms: C_29  and  O_31
REMARK    9  A    between atoms: C_29  and  C_32
REMARK   10  A    between atoms: C_34  and  O_35
REMARK   11  A    between atoms: C_36  and  C_37
REMARK   12  A    between atoms: C_36  and  C_38
REMARK                            x       y       z     vdW  Elec       q    Type
REMARK                         _______ _______ _______ _____ _____    ______ ____
ROOT
ATOM      1  O   LIG A   1      -8.173   4.102 134.144  0.00  0.00    -0.297 OA
ATOM      2  C   LIG A   1      -8.123   3.095 133.456  0.00  0.00    +0.139 C 
ATOM      3  C   LIG A   1      -9.394   2.507 132.875  0.00  0.00    +0.075 C 
ATOM      4  C   LIG A   1      -9.112   1.936 131.498  0.00  0.00    +0.015 C 
ATOM      5  C   LIG A   1      -8.129   0.734 131.540  0.00  0.00    -0.021 C 
ATOM      6  C   LIG A   1      -8.987  -0.536 131.806  0.00  0.00    +0.012 C 
ATOM      7  C   LIG A   1      -7.093   0.886 132.721  0.00  0.00    +0.012 C 
ATOM      8  C   LIG A   1      -5.806   0.025 132.526  0.00  0.00    +0.032 C 
ATOM      9  C   LIG A   1      -5.723  -0.840 131.296  0.00  0.00    -0.026 C 
ATOM     10  C   LIG A   1      -6.438  -0.621 130.174  0.00  0.00    -0.064 C 
ATOM     11  C   LIG A   1      -7.348   0.600 130.193  0.00  0.00    +0.021 C 
ATOM     12  C   LIG A   1      -8.192   0.729 128.927  0.00  0.00    +0.009 C 
ATOM     13  C   LIG A   1      -7.260   0.651 127.730  0.00  0.00    +0.005 C 
ATOM     14  C   LIG A   1      -6.609  -0.730 127.560  0.00  0.00    +0.002 C 
ATOM     15  C   LIG A   1      -6.393  -1.507 128.908  0.00  0.00    -0.008 C 
ATOM     16  C   LIG A   1      -5.053  -2.285 128.797  0.00  0.00    +0.016 C 
ATOM     17  C   LIG A   1      -7.544  -2.554 128.943  0.00  0.00    +0.011 C 
ATOM     18  C   LIG A   1      -8.301  -2.473 127.620  0.00  0.00    +0.005 C 
ATOM     19  C   LIG A   1      -7.388  -1.724 126.654  0.00  0.00    -0.001 C 
ATOM     20  C   LIG A   1      -6.796   2.372 133.148  0.00  0.00    +0.027 C 
ATOM     21  C   LIG A   1      -6.057   3.206 132.085  0.00  0.00    +0.019 C 
ATOM     22  C   LIG A   1      -5.959   2.395 134.446  0.00  0.00    +0.019 C 
ENDROOT
BRANCH  19  23
ATOM     23  C   LIG A   1      -8.136  -1.108 125.454  0.00  0.00    +0.021 C 
ATOM     24  C   LIG A   1      -7.246  -0.232 124.568  0.00  0.00    +0.012 C 
ATOM     25  C   LIG A   1      -8.092   0.022 123.300  0.00  0.00    +0.023 C 
ATOM     26  C   LIG A   1      -8.944  -1.259 123.186  0.00  0.00    +0.037 C 
ATOM     27  C   LIG A   1      -8.664  -2.111 124.428  0.00  0.00    +0.118 C 
BRANCH  27  28
ATOM     28  O   LIG A   1      -9.851  -2.735 124.888  0.00  0.00    -0.392 OA
ATOM     29  H   LIG A   1     -10.014  -2.419 125.793  0.00  0.00    +0.210 HD
ENDBRANCH  27  28
BRANCH  25  30
ATOM     30  C   LIG A   1      -8.919   1.343 123.342  0.00  0.00    +0.149 C 
BRANCH  30  31
ATOM     31  C   LIG A   1      -8.106   2.676 123.147  0.00  0.00    +0.086 C 
ATOM     32  C   LIG A   1      -6.698   2.444 122.583  0.00  0.00    +0.043 C 
ATOM     33  C   LIG A   1      -7.989   3.441 124.475  0.00  0.00    +0.043 C 
BRANCH  31  34
ATOM     34  O   LIG A   1      -8.798   3.556 122.254  0.00  0.00    -0.387 OA
ATOM     35  H   LIG A   1      -8.465   3.404 121.353  0.00  0.00    +0.210 HD
ENDBRANCH  31  34
ENDBRANCH  30  31
BRANCH  30  36
ATOM     36  O   LIG A   1      -9.595   1.415 124.609  0.00  0.00    -0.389 OA
ATOM     37  H   LIG A   1      -8.957   1.188 125.306  0.00  0.00    +0.210 HD
ENDBRANCH  30  36
ENDBRANCH  25  30
ENDBRANCH  19  23
TORSDOF 6
ENDMDL
MODEL 5
REMARK VINA RESULT:      -8.6      1.044      1.197
REMARK  Name = NuBBE_1426
REMARK  12 active torsions:
REMARK  status: ('A' for Active; 'I' for Inactive)
REMARK    1  A    between atoms: C_5  and  C_6
REMARK    2  A    between atoms: C_16  and  C_17
REMARK    3  A    between atoms: C_20  and  C_22
REMARK    4  A    between atoms: C_25  and  C_26
REMARK    5  A    between atoms: C_26  and  O_28
REMARK    6  A    between atoms: C_26  and  C_29
REMARK    7  A    between atoms: C_29  and  C_30
REMARK    8  A    between atoms: C_29  and  O_31
REMARK    9  A    between atoms: C_29  and  C_32
REMARK   10  A    between atoms: C_34  and  O_35
REMARK   11  A    between atoms: C_36  and  C_37
REMARK   12  A    between atoms: C_36  and  C_38
REMARK                            x       y       z     vdW  Elec       q    Type
REMARK                         _______ _______ _______ _____ _____    ______ ____
ROOT
ATOM      1  O   LIG A   1      -7.247  -2.138 123.453  0.00  0.00    -0.297 OA
ATOM      2  C   LIG A   1      -7.055  -1.824 124.616  0.00  0.00    +0.139 C 
ATOM      3  C   LIG A   1      -5.924  -0.879 124.972  0.00  0.00    +0.075 C 
ATOM      4  C   LIG A   1      -6.348   0.018 126.119  0.00  0.00    +0.015 C 
ATOM      5  C   LIG A   1      -6.602  -0.772 127.432  0.00  0.00    -0.021 C 
ATOM      6  C   LIG A   1      -5.226  -0.906 128.146  0.00  0.00    +0.012 C 
ATOM      7  C   LIG A   1      -7.144  -2.222 127.129  0.00  0.00    +0.012 C 
ATOM      8  C   LIG A   1      -7.882  -2.870 128.341  0.00  0.00    +0.032 C 
ATOM      9  C   LIG A   1      -7.959  -2.076 129.618  0.00  0.00    -0.026 C 
ATOM     10  C   LIG A   1      -7.833  -0.736 129.678  0.00  0.00    -0.064 C 
ATOM     11  C   LIG A   1      -7.628  -0.027 128.347  0.00  0.00    +0.021 C 
ATOM     12  C   LIG A   1      -7.401   1.475 128.504  0.00  0.00    +0.009 C 
ATOM     13  C   LIG A   1      -8.528   2.035 129.353  0.00  0.00    +0.005 C 
ATOM     14  C   LIG A   1      -8.495   1.536 130.806  0.00  0.00    +0.002 C 
ATOM     15  C   LIG A   1      -7.880   0.101 130.977  0.00  0.00    -0.008 C 
ATOM     16  C   LIG A   1      -8.673  -0.622 132.100  0.00  0.00    +0.016 C 
ATOM     17  C   LIG A   1      -6.438   0.355 131.506  0.00  0.00    +0.011 C 
ATOM     18  C   LIG A   1      -6.281   1.853 131.755  0.00  0.00    +0.005 C 
ATOM     19  C   LIG A   1      -7.693   2.428 131.795  0.00  0.00    -0.001 C 
ATOM     20  C   LIG A   1      -7.927  -2.361 125.770  0.00  0.00    +0.027 C 
ATOM     21  C   LIG A   1      -9.265  -1.602 125.724  0.00  0.00    +0.019 C 
ATOM     22  C   LIG A   1      -8.207  -3.849 125.466  0.00  0.00    +0.019 C 
ENDROOT
BRANCH  19  23
ATOM     23  C   LIG A   1      -7.745   3.948 131.538  0.00  0.00    +0.021 C 
ATOM     24  C   LIG A   1      -8.936   4.638 132.209  0.00  0.00    +0.012 C 
ATOM     25  C   LIG A   1      -8.631   6.147 132.084  0.00  0.00    +0.023 C 
ATOM     26  C   LIG A   1      -7.090   6.196 132.118  0.00  0.00    +0.037 C 
ATOM     27  C   LIG A   1      -6.582   4.750 132.122  0.00  0.00    +0.118 C 
BRANCH  27  28
ATOM     28  O   LIG A   1      -5.420   4.622 131.320  0.00  0.00    -0.392 OA
ATOM     29  H   LIG A   1      -5.197   3.677 131.279  0.00  0.00    +0.210 HD
ENDBRANCH  27  28
BRANCH  25  30
ATOM     30  C   LIG A   1      -9.269   6.822 130.831  0.00  0.00    +0.149 C 
BRANCH  30  31
ATOM     31  C   LIG A   1     -10.831   6.689 130.692  0.00  0.00    +0.086 C 
ATOM     32  C   LIG A   1     -11.555   6.675 132.045  0.00  0.00    +0.043 C 
ATOM     33  C   LIG A   1     -11.202   5.414 129.918  0.00  0.00    +0.043 C 
BRANCH  31  34
ATOM     34  O   LIG A   1     -11.357   7.776 129.923  0.00  0.00    -0.387 OA
ATOM     35  H   LIG A   1     -11.919   7.410 129.219  0.00  0.00    +0.210 HD
ENDBRANCH  31  34
ENDBRANCH  30  31
BRANCH  30  36
ATOM     36  O   LIG A   1      -8.667   6.256 129.654  0.00  0.00    -0.389 OA
ATOM     37  H   LIG A   1      -8.055   5.556 129.934  0.00  0.00    +0.210 HD
ENDBRANCH  30  36
ENDBRANCH  25  30
ENDBRANCH  19  23
TORSDOF 6
ENDMDL
MODEL 6
REMARK VINA RESULT:      -8.6      3.305      5.001
REMARK  Name = NuBBE_1426
REMARK  12 active torsions:
REMARK  status: ('A' for Active; 'I' for Inactive)
REMARK    1  A    between atoms: C_5  and  C_6
REMARK    2  A    between atoms: C_16  and  C_17
REMARK    3  A    between atoms: C_20  and  C_22
REMARK    4  A    between atoms: C_25  and  C_26
REMARK    5  A    between atoms: C_26  and  O_28
REMARK    6  A    between atoms: C_26  and  C_29
REMARK    7  A    between atoms: C_29  and  C_30
REMARK    8  A    between atoms: C_29  and  O_31
REMARK    9  A    between atoms: C_29  and  C_32
REMARK   10  A    between atoms: C_34  and  O_35
REMARK   11  A    between atoms: C_36  and  C_37
REMARK   12  A    between atoms: C_36  and  C_38
REMARK                            x       y       z     vdW  Elec       q    Type
REMARK                         _______ _______ _______ _____ _____    ______ ____
ROOT
ATOM      1  O   LIG A   1      -5.356  -3.002 130.770  0.00  0.00    -0.297 OA
ATOM      2  C   LIG A   1      -5.216  -1.790 130.792  0.00  0.00    +0.139 C 
ATOM      3  C   LIG A   1      -5.556  -0.963 129.568  0.00  0.00    +0.075 C 
ATOM      4  C   LIG A   1      -6.151   0.365 129.998  0.00  0.00    +0.015 C 
ATOM      5  C   LIG A   1      -5.138   1.249 130.777  0.00  0.00    -0.021 C 
ATOM      6  C   LIG A   1      -4.328   2.044 129.713  0.00  0.00    +0.012 C 
ATOM      7  C   LIG A   1      -4.130   0.364 131.606  0.00  0.00    +0.012 C 
ATOM      8  C   LIG A   1      -3.441   1.141 132.771  0.00  0.00    +0.032 C 
ATOM      9  C   LIG A   1      -3.785   2.597 132.939  0.00  0.00    -0.026 C 
ATOM     10  C   LIG A   1      -4.914   3.162 132.465  0.00  0.00    -0.064 C 
ATOM     11  C   LIG A   1      -5.877   2.225 131.750  0.00  0.00    +0.021 C 
ATOM     12  C   LIG A   1      -7.084   2.952 131.162  0.00  0.00    +0.009 C 
ATOM     13  C   LIG A   1      -7.713   3.786 132.264  0.00  0.00    +0.005 C 
ATOM     14  C   LIG A   1      -6.818   4.944 132.731  0.00  0.00    +0.002 C 
ATOM     15  C   LIG A   1      -5.279   4.658 132.599  0.00  0.00    -0.008 C 
ATOM     16  C   LIG A   1      -4.570   5.318 133.814  0.00  0.00    +0.016 C 
ATOM     17  C   LIG A   1      -4.846   5.434 131.321  0.00  0.00    +0.011 C 
ATOM     18  C   LIG A   1      -6.047   6.235 130.823  0.00  0.00    +0.005 C 
ATOM     19  C   LIG A   1      -7.033   6.291 131.985  0.00  0.00    -0.001 C 
ATOM     20  C   LIG A   1      -4.690  -1.044 132.035  0.00  0.00    +0.027 C 
ATOM     21  C   LIG A   1      -5.840  -0.989 133.057  0.00  0.00    +0.019 C 
ATOM     22  C   LIG A   1      -3.557  -1.908 132.632  0.00  0.00    +0.019 C 
ENDROOT
BRANCH  19  23
ATOM     23  C   LIG A   1      -8.479   6.605 131.549  0.00  0.00    +0.021 C 
ATOM     24  C   LIG A   1      -8.802   6.130 130.129  0.00  0.00    +0.012 C 
ATOM     25  C   LIG A   1     -10.337   6.263 130.016  0.00  0.00    +0.023 C 
ATOM     26  C   LIG A   1     -10.816   6.017 131.461  0.00  0.00    +0.037 C 
ATOM     27  C   LIG A   1      -9.572   5.892 132.345  0.00  0.00    +0.118 C 
BRANCH  27  28
ATOM     28  O   LIG A   1      -9.780   6.520 133.599  0.00  0.00    -0.392 OA
ATOM     29  H   LIG A   1     -10.345   5.932 134.129  0.00  0.00    +0.210 HD
ENDBRANCH  27  28
BRANCH  25  30
ATOM     30  C   LIG A   1     -10.813   7.615 129.402  0.00  0.00    +0.149 C 
BRANCH  30  31
ATOM     31  C   LIG A   1     -11.905   7.516 128.272  0.00  0.00    +0.086 C 
ATOM     32  C   LIG A   1     -11.313   7.581 126.858  0.00  0.00    +0.043 C 
ATOM     33  C   LIG A   1     -12.949   8.633 128.425  0.00  0.00    +0.043 C 
BRANCH  31  34
ATOM     34  O   LIG A   1     -12.632   6.288 128.388  0.00  0.00    -0.387 OA
ATOM     35  H   LIG A   1     -12.306   5.810 129.168  0.00  0.00    +0.210 HD
ENDBRANCH  31  34
ENDBRANCH  30  31
BRANCH  30  36
ATOM     36  O   LIG A   1      -9.669   8.295 128.857  0.00  0.00    -0.389 OA
ATOM     37  H   LIG A   1      -9.202   8.733 129.587  0.00  0.00    +0.210 HD
ENDBRANCH  30  36
ENDBRANCH  25  30
ENDBRANCH  19  23
TORSDOF 6
ENDMDL
MODEL 7
REMARK VINA RESULT:      -8.4      2.046      8.309
REMARK  Name = NuBBE_1426
REMARK  12 active torsions:
REMARK  status: ('A' for Active; 'I' for Inactive)
REMARK    1  A    between atoms: C_5  and  C_6
REMARK    2  A    between atoms: C_16  and  C_17
REMARK    3  A    between atoms: C_20  and  C_22
REMARK    4  A    between atoms: C_25  and  C_26
REMARK    5  A    between atoms: C_26  and  O_28
REMARK    6  A    between atoms: C_26  and  C_29
REMARK    7  A    between atoms: C_29  and  C_30
REMARK    8  A    between atoms: C_29  and  O_31
REMARK    9  A    between atoms: C_29  and  C_32
REMARK   10  A    between atoms: C_34  and  O_35
REMARK   11  A    between atoms: C_36  and  C_37
REMARK   12  A    between atoms: C_36  and  C_38
REMARK                            x       y       z     vdW  Elec       q    Type
REMARK                         _______ _______ _______ _____ _____    ______ ____
ROOT
ATOM      1  O   LIG A   1      -9.748   6.847 131.505  0.00  0.00    -0.297 OA
ATOM      2  C   LIG A   1      -9.559   5.645 131.593  0.00  0.00    +0.139 C 
ATOM      3  C   LIG A   1     -10.497   4.675 130.903  0.00  0.00    +0.075 C 
ATOM      4  C   LIG A   1      -9.712   3.483 130.388  0.00  0.00    +0.015 C 
ATOM      5  C   LIG A   1      -9.082   2.643 131.532  0.00  0.00    -0.021 C 
ATOM      6  C   LIG A   1     -10.170   1.630 131.993  0.00  0.00    +0.012 C 
ATOM      7  C   LIG A   1      -8.701   3.553 132.763  0.00  0.00    +0.012 C 
ATOM      8  C   LIG A   1      -7.638   2.904 133.704  0.00  0.00    +0.032 C 
ATOM      9  C   LIG A   1      -7.145   1.525 133.354  0.00  0.00    -0.026 C 
ATOM     10  C   LIG A   1      -7.211   0.994 132.116  0.00  0.00    -0.064 C 
ATOM     11  C   LIG A   1      -7.803   1.892 131.039  0.00  0.00    +0.021 C 
ATOM     12  C   LIG A   1      -7.930   1.192 129.688  0.00  0.00    +0.009 C 
ATOM     13  C   LIG A   1      -6.579   0.591 129.341  0.00  0.00    +0.005 C 
ATOM     14  C   LIG A   1      -6.170  -0.556 130.277  0.00  0.00    +0.002 C 
ATOM     15  C   LIG A   1      -6.739  -0.427 131.736  0.00  0.00    -0.008 C 
ATOM     16  C   LIG A   1      -5.654  -0.955 132.715  0.00  0.00    +0.016 C 
ATOM     17  C   LIG A   1      -7.936  -1.421 131.777  0.00  0.00    +0.011 C 
ATOM     18  C   LIG A   1      -7.968  -2.181 130.454  0.00  0.00    +0.005 C 
ATOM     19  C   LIG A   1      -6.599  -1.977 129.813  0.00  0.00    -0.001 C 
ATOM     20  C   LIG A   1      -8.386   5.052 132.400  0.00  0.00    +0.027 C 
ATOM     21  C   LIG A   1      -7.109   5.251 131.563  0.00  0.00    +0.019 C 
ATOM     22  C   LIG A   1      -8.254   5.895 133.687  0.00  0.00    +0.019 C 
ENDROOT
BRANCH  19  23
ATOM     23  C   LIG A   1      -6.590  -2.227 128.291  0.00  0.00    +0.021 C 
ATOM     24  C   LIG A   1      -7.637  -1.405 127.534  0.00  0.00    +0.012 C 
ATOM     25  C   LIG A   1      -7.258  -1.571 126.045  0.00  0.00    +0.023 C 
ATOM     26  C   LIG A   1      -5.726  -1.741 126.091  0.00  0.00    +0.037 C 
ATOM     27  C   LIG A   1      -5.313  -1.802 127.565  0.00  0.00    +0.118 C 
BRANCH  27  28
ATOM     28  O   LIG A   1      -4.277  -2.751 127.759  0.00  0.00    -0.392 OA
ATOM     29  H   LIG A   1      -3.903  -2.956 126.886  0.00  0.00    +0.210 HD
ENDBRANCH  27  28
BRANCH  25  30
ATOM     30  C   LIG A   1      -8.013  -2.730 125.323  0.00  0.00    +0.149 C 
BRANCH  30  31
ATOM     31  C   LIG A   1      -8.678  -2.369 123.944  0.00  0.00    +0.086 C 
ATOM     32  C   LIG A   1      -9.602  -3.475 123.415  0.00  0.00    +0.043 C 
ATOM     33  C   LIG A   1      -7.606  -2.071 122.884  0.00  0.00    +0.043 C 
BRANCH  31  34
ATOM     34  O   LIG A   1      -9.450  -1.169 124.061  0.00  0.00    -0.387 OA
ATOM     35  H   LIG A   1     -10.193  -1.219 123.436  0.00  0.00    +0.210 HD
ENDBRANCH  31  34
ENDBRANCH  30  31
BRANCH  30  36
ATOM     36  O   LIG A   1      -9.043  -3.217 126.201  0.00  0.00    -0.389 OA
ATOM     37  H   LIG A   1      -9.589  -3.849 125.704  0.00  0.00    +0.210 HD
ENDBRANCH  30  36
ENDBRANCH  25  30
ENDBRANCH  19  23
TORSDOF 6
ENDMDL
MODEL 8
REMARK VINA RESULT:      -8.4      3.970      4.723
REMARK  Name = NuBBE_1426
REMARK  12 active torsions:
REMARK  status: ('A' for Active; 'I' for Inactive)
REMARK    1  A    between atoms: C_5  and  C_6
REMARK    2  A    between atoms: C_16  and  C_17
REMARK    3  A    between atoms: C_20  and  C_22
REMARK    4  A    between atoms: C_25  and  C_26
REMARK    5  A    between atoms: C_26  and  O_28
REMARK    6  A    between atoms: C_26  and  C_29
REMARK    7  A    between atoms: C_29  and  C_30
REMARK    8  A    between atoms: C_29  and  O_31
REMARK    9  A    between atoms: C_29  and  C_32
REMARK   10  A    between atoms: C_34  and  O_35
REMARK   11  A    between atoms: C_36  and  C_37
REMARK   12  A    between atoms: C_36  and  C_38
REMARK                            x       y       z     vdW  Elec       q    Type
REMARK                         _______ _______ _______ _____ _____    ______ ____
ROOT
ATOM      1  O   LIG A   1      -7.582  -2.201 123.377  0.00  0.00    -0.297 OA
ATOM      2  C   LIG A   1      -7.210  -2.197 124.539  0.00  0.00    +0.139 C 
ATOM      3  C   LIG A   1      -5.729  -2.209 124.863  0.00  0.00    +0.075 C 
ATOM      4  C   LIG A   1      -5.470  -1.368 126.099  0.00  0.00    +0.015 C 
ATOM      5  C   LIG A   1      -6.136  -1.956 127.373  0.00  0.00    -0.021 C 
ATOM      6  C   LIG A   1      -5.136  -2.993 127.962  0.00  0.00    +0.012 C 
ATOM      7  C   LIG A   1      -7.477  -2.709 127.019  0.00  0.00    +0.012 C 
ATOM      8  C   LIG A   1      -8.432  -2.875 128.241  0.00  0.00    +0.032 C 
ATOM      9  C   LIG A   1      -7.965  -2.344 129.570  0.00  0.00    -0.026 C 
ATOM     10  C   LIG A   1      -7.021  -1.391 129.709  0.00  0.00    -0.064 C 
ATOM     11  C   LIG A   1      -6.444  -0.833 128.416  0.00  0.00    +0.021 C 
ATOM     12  C   LIG A   1      -5.319   0.171 128.653  0.00  0.00    +0.009 C 
ATOM     13  C   LIG A   1      -5.824   1.222 129.627  0.00  0.00    +0.005 C 
ATOM     14  C   LIG A   1      -6.081   0.665 131.035  0.00  0.00    +0.002 C 
ATOM     15  C   LIG A   1      -6.503  -0.848 131.060  0.00  0.00    -0.008 C 
ATOM     16  C   LIG A   1      -7.551  -1.028 132.193  0.00  0.00    +0.016 C 
ATOM     17  C   LIG A   1      -5.213  -1.606 131.486  0.00  0.00    +0.011 C 
ATOM     18  C   LIG A   1      -4.142  -0.570 131.821  0.00  0.00    +0.005 C 
ATOM     19  C   LIG A   1      -4.876   0.753 132.014  0.00  0.00    -0.001 C 
ATOM     20  C   LIG A   1      -8.201  -2.188 125.721  0.00  0.00    +0.027 C 
ATOM     21  C   LIG A   1      -8.763  -0.759 125.835  0.00  0.00    +0.019 C 
ATOM     22  C   LIG A   1      -9.362  -3.133 125.343  0.00  0.00    +0.019 C 
ENDROOT
BRANCH  19  23
ATOM     23  C   LIG A   1      -3.965   1.988 131.863  0.00  0.00    +0.021 C 
ATOM     24  C   LIG A   1      -4.730   3.268 131.512  0.00  0.00    +0.012 C 
ATOM     25  C   LIG A   1      -3.699   4.401 131.708  0.00  0.00    +0.023 C 
ATOM     26  C   LIG A   1      -2.795   3.861 132.834  0.00  0.00    +0.037 C 
ATOM     27  C   LIG A   1      -3.242   2.427 133.137  0.00  0.00    +0.118 C 
BRANCH  27  28
ATOM     28  O   LIG A   1      -2.124   1.596 133.401  0.00  0.00    -0.392 OA
ATOM     29  H   LIG A   1      -1.478   2.126 133.898  0.00  0.00    +0.210 HD
ENDBRANCH  27  28
BRANCH  25  30
ATOM     30  C   LIG A   1      -2.937   4.799 130.407  0.00  0.00    +0.149 C 
BRANCH  30  31
ATOM     31  C   LIG A   1      -2.516   6.311 130.285  0.00  0.00    +0.086 C 
ATOM     32  C   LIG A   1      -3.580   7.276 130.824  0.00  0.00    +0.043 C 
ATOM     33  C   LIG A   1      -2.211   6.674 128.823  0.00  0.00    +0.043 C 
BRANCH  31  34
ATOM     34  O   LIG A   1      -1.301   6.549 131.004  0.00  0.00    -0.387 OA
ATOM     35  H   LIG A   1      -1.062   5.738 131.482  0.00  0.00    +0.210 HD
ENDBRANCH  31  34
ENDBRANCH  30  31
BRANCH  30  36
ATOM     36  O   LIG A   1      -3.766   4.476 129.277  0.00  0.00    -0.389 OA
ATOM     37  H   LIG A   1      -4.562   5.031 129.318  0.00  0.00    +0.210 HD
ENDBRANCH  30  36
ENDBRANCH  25  30
ENDBRANCH  19  23
TORSDOF 6
ENDMDL
MODEL 9
REMARK VINA RESULT:      -8.3      3.190      4.374
REMARK  Name = NuBBE_1426
REMARK  12 active torsions:
REMARK  status: ('A' for Active; 'I' for Inactive)
REMARK    1  A    between atoms: C_5  and  C_6
REMARK    2  A    between atoms: C_16  and  C_17
REMARK    3  A    between atoms: C_20  and  C_22
REMARK    4  A    between atoms: C_25  and  C_26
REMARK    5  A    between atoms: C_26  and  O_28
REMARK    6  A    between atoms: C_26  and  C_29
REMARK    7  A    between atoms: C_29  and  C_30
REMARK    8  A    between atoms: C_29  and  O_31
REMARK    9  A    between atoms: C_29  and  C_32
REMARK   10  A    between atoms: C_34  and  O_35
REMARK   11  A    between atoms: C_36  and  C_37
REMARK   12  A    between atoms: C_36  and  C_38
REMARK                            x       y       z     vdW  Elec       q    Type
REMARK                         _______ _______ _______ _____ _____    ______ ____
ROOT
ATOM      1  O   LIG A   1      -6.012  -5.084 130.357  0.00  0.00    -0.297 OA
ATOM      2  C   LIG A   1      -5.834  -3.903 130.606  0.00  0.00    +0.139 C 
ATOM      3  C   LIG A   1      -5.602  -2.914 129.480  0.00  0.00    +0.075 C 
ATOM      4  C   LIG A   1      -6.254  -1.588 129.823  0.00  0.00    +0.015 C 
ATOM      5  C   LIG A   1      -5.607  -0.905 131.059  0.00  0.00    -0.021 C 
ATOM      6  C   LIG A   1      -4.393  -0.086 130.532  0.00  0.00    +0.012 C 
ATOM      7  C   LIG A   1      -5.071  -1.976 132.085  0.00  0.00    +0.012 C 
ATOM      8  C   LIG A   1      -4.881  -1.408 133.526  0.00  0.00    +0.032 C 
ATOM      9  C   LIG A   1      -5.191   0.048 133.749  0.00  0.00    -0.026 C 
ATOM     10  C   LIG A   1      -5.998   0.776 132.951  0.00  0.00    -0.064 C 
ATOM     11  C   LIG A   1      -6.629   0.028 131.785  0.00  0.00    +0.021 C 
ATOM     12  C   LIG A   1      -7.453   0.936 130.875  0.00  0.00    +0.009 C 
ATOM     13  C   LIG A   1      -8.435   1.704 131.742  0.00  0.00    +0.005 C 
ATOM     14  C   LIG A   1      -7.754   2.704 132.687  0.00  0.00    +0.002 C 
ATOM     15  C   LIG A   1      -6.311   2.278 133.141  0.00  0.00    -0.008 C 
ATOM     16  C   LIG A   1      -6.129   2.722 134.618  0.00  0.00    +0.016 C 
ATOM     17  C   LIG A   1      -5.356   3.141 132.267  0.00  0.00    +0.011 C 
ATOM     18  C   LIG A   1      -6.206   4.112 131.451  0.00  0.00    +0.005 C 
ATOM     19  C   LIG A   1      -7.577   4.141 132.118  0.00  0.00    -0.001 C 
ATOM     20  C   LIG A   1      -5.826  -3.358 132.049  0.00  0.00    +0.027 C 
ATOM     21  C   LIG A   1      -7.289  -3.297 132.523  0.00  0.00    +0.019 C 
ATOM     22  C   LIG A   1      -5.081  -4.394 132.918  0.00  0.00    +0.019 C 
ENDROOT
BRANCH  19  23
ATOM     23  C   LIG A   1      -8.700   4.649 131.192  0.00  0.00    +0.021 C 
ATOM     24  C   LIG A   1      -9.262   6.012 131.609  0.00  0.00    +0.012 C 
ATOM     25  C   LIG A   1     -10.127   6.457 130.409  0.00  0.00    +0.023 C 
ATOM     26  C   LIG A   1      -9.410   5.816 129.203  0.00  0.00    +0.037 C 
ATOM     27  C   LIG A   1      -8.278   4.942 129.752  0.00  0.00    +0.118 C 
BRANCH  27  28
ATOM     28  O   LIG A   1      -8.159   3.744 129.002  0.00  0.00    -0.392 OA
ATOM     29  H   LIG A   1      -8.525   3.024 129.543  0.00  0.00    +0.210 HD
ENDBRANCH  27  28
BRANCH  25  30
ATOM     30  C   LIG A   1     -11.634   6.079 130.537  0.00  0.00    +0.149 C 
BRANCH  30  31
ATOM     31  C   LIG A   1     -12.666   7.183 130.098  0.00  0.00    +0.086 C 
ATOM     32  C   LIG A   1     -13.538   6.752 128.910  0.00  0.00    +0.043 C 
ATOM     33  C   LIG A   1     -11.943   8.489 129.733  0.00  0.00    +0.043 C 
BRANCH  31  34
ATOM     34  O   LIG A   1     -13.537   7.513 131.185  0.00  0.00    -0.387 OA
ATOM     35  H   LIG A   1     -14.442   7.596 130.841  0.00  0.00    +0.210 HD
ENDBRANCH  31  34
ENDBRANCH  30  31
BRANCH  30  36
ATOM     36  O   LIG A   1     -11.902   5.740 131.909  0.00  0.00    -0.389 OA
ATOM     37  H   LIG A   1     -11.229   5.103 132.200  0.00  0.00    +0.210 HD
ENDBRANCH  30  36
ENDBRANCH  25  30
ENDBRANCH  19  23
TORSDOF 6
ENDMDL
