MODEL 1
REMARK VINA RESULT:      -9.1      0.000      0.000
REMARK  Name = NuBBE_391
REMARK  19 active torsions:
REMARK  status: ('A' for Active; 'I' for Inactive)
REMARK    1  A    between atoms: C_1  and  C_2
REMARK    2  A    between atoms: C_11  and  C_12
REMARK    3  A    between atoms: C_17  and  O_21
REMARK    4  A    between atoms: O_21  and  C_22
REMARK    5  A    between atoms: C_25  and  C_27
REMARK    6  A    between atoms: C_27  and  O_28
REMARK    7  A    between atoms: C_29  and  O_37
REMARK    8  A    between atoms: C_31  and  O_36
REMARK    9  A    between atoms: C_33  and  O_35
REMARK   10  A    between atoms: C_40  and  C_42
REMARK   11  A    between atoms: C_42  and  C_44
REMARK   12  A    between atoms: C_42  and  C_53
REMARK   13  A    between atoms: C_44  and  C_45
REMARK   14  A    between atoms: C_45  and  C_46
REMARK   15  A    between atoms: C_46  and  C_48
REMARK   16  A    between atoms: C_46  and  C_51
REMARK   17  A    between atoms: C_48  and  C_49
REMARK   18  A    between atoms: C_48  and  C_50
REMARK   19  A    between atoms: C_51  and  C_52
REMARK                            x       y       z     vdW  Elec       q    Type
REMARK                         _______ _______ _______ _____ _____    ______ ____
ROOT
ATOM      1  C   LIG A   1      -8.311  -0.747 127.042  0.00  0.00    +0.012 C 
ATOM      2  C   LIG A   1      -7.778  -2.147 126.662  0.00  0.00    -0.026 C 
ATOM      3  C   LIG A   1      -6.278  -2.339 127.006  0.00  0.00    -0.001 C 
ATOM      4  C   LIG A   1      -5.889  -2.606 128.472  0.00  0.00    +0.000 C 
ATOM      5  C   LIG A   1      -7.034  -2.647 129.541  0.00  0.00    +0.003 C 
ATOM      6  C   LIG A   1      -8.459  -2.910 128.964  0.00  0.00    +0.005 C 
ATOM      7  C   LIG A   1      -8.516  -3.231 127.457  0.00  0.00    +0.007 C 
ATOM      8  C   LIG A   1      -6.902  -1.619 130.773  0.00  0.00    -0.008 C 
ATOM      9  C   LIG A   1      -6.612  -2.483 132.037  0.00  0.00    +0.016 C 
ATOM     10  C   LIG A   1      -5.756  -0.614 130.643  0.00  0.00    -0.065 C 
ATOM     11  C   LIG A   1      -4.726  -0.782 129.776  0.00  0.00    -0.027 C 
ATOM     12  C   LIG A   1      -4.576  -1.980 128.931  0.00  0.00    +0.031 C 
ATOM     13  C   LIG A   1      -5.689   0.555 131.606  0.00  0.00    +0.062 C 
ATOM     14  C   LIG A   1      -7.034   1.253 131.866  0.00  0.00    +0.126 C 
ATOM     15  C   LIG A   1      -8.106   0.209 132.169  0.00  0.00    +0.033 C 
ATOM     16  C   LIG A   1      -8.212  -0.818 131.039  0.00  0.00    +0.013 C 
ATOM     17  C   LIG A   1      -5.595  -1.304 126.124  0.00  0.00    +0.004 C 
ATOM     18  C   LIG A   1      -6.379  -1.437 124.796  0.00  0.00    +0.004 C 
ATOM     19  C   LIG A   1      -7.660  -2.294 125.106  0.00  0.00    -0.002 C 
ENDROOT
BRANCH  19  20
ATOM     20  C   LIG A   1      -8.839  -2.058 124.106  0.00  0.00    -0.010 C 
ATOM     21  C   LIG A   1      -9.388  -3.320 123.431  0.00  0.00    +0.008 C 
BRANCH  20  22
ATOM     22  C   LIG A   1      -8.540  -0.949 123.058  0.00  0.00    +0.004 C 
BRANCH  22  23
ATOM     23  C   LIG A   1      -9.144   0.438 123.412  0.00  0.00    +0.004 C 
BRANCH  23  24
ATOM     24  C   LIG A   1      -8.163   1.649 123.346  0.00  0.00    -0.009 C 
BRANCH  24  25
ATOM     25  C   LIG A   1      -7.752   2.165 124.774  0.00  0.00    -0.014 C 
ATOM     26  C   LIG A   1      -6.232   2.260 124.986  0.00  0.00    +0.007 C 
ATOM     27  C   LIG A   1      -8.341   3.546 125.102  0.00  0.00    +0.007 C 
ENDBRANCH  24  25
BRANCH  24  28
ATOM     28  C   LIG A   1      -8.721   2.788 122.449  0.00  0.00    +0.000 C 
ATOM     29  C   LIG A   1      -7.723   3.447 121.501  0.00  0.00    +0.004 C 
ENDBRANCH  24  28
ENDBRANCH  23  24
ENDBRANCH  22  23
ENDBRANCH  20  22
ENDBRANCH  19  20
BRANCH  14  30
ATOM     30  O   LIG A   1      -7.332   2.080 130.738  0.00  0.00    -0.345 OA
BRANCH  30  31
ATOM     31  C   LIG A   1      -7.841   3.392 131.007  0.00  0.00    +0.282 C 
ATOM     32  O   LIG A   1      -7.541   3.649 132.391  0.00  0.00    -0.341 OA
ATOM     33  C   LIG A   1      -7.957   4.940 132.842  0.00  0.00    +0.178 C 
ATOM     34  C   LIG A   1      -9.485   5.060 132.743  0.00  0.00    +0.177 C 
ATOM     35  C   LIG A   1      -9.884   4.856 131.286  0.00  0.00    +0.179 C 
ATOM     36  C   LIG A   1      -9.362   3.530 130.738  0.00  0.00    +0.201 C 
BRANCH  36  37
ATOM     37  O   LIG A   1      -9.688   3.512 129.336  0.00  0.00    -0.384 OA
ATOM     38  H   LIG A   1     -10.560   3.069 129.287  0.00  0.00    +0.210 HD
ENDBRANCH  36  37
BRANCH  35  39
ATOM     39  O   LIG A   1     -11.315   4.892 131.151  0.00  0.00    -0.386 OA
ATOM     40  H   LIG A   1     -11.581   5.725 131.593  0.00  0.00    +0.210 HD
ENDBRANCH  35  39
BRANCH  34  41
ATOM     41  O   LIG A   1      -9.991   6.336 133.148  0.00  0.00    -0.387 OA
ATOM     42  H   LIG A   1      -9.410   7.011 132.731  0.00  0.00    +0.210 HD
ENDBRANCH  34  41
BRANCH  33  43
ATOM     43  C   LIG A   1      -7.467   5.125 134.283  0.00  0.00    +0.190 C 
BRANCH  43  44
ATOM     44  O   LIG A   1      -8.536   4.946 135.212  0.00  0.00    -0.392 OA
ATOM     45  H   LIG A   1      -8.135   4.592 136.029  0.00  0.00    +0.209 HD
ENDBRANCH  43  44
ENDBRANCH  33  43
ENDBRANCH  30  31
ENDBRANCH  14  30
TORSDOF 13
ENDMDL
MODEL 2
REMARK VINA RESULT:      -8.8      3.246      7.769
REMARK  Name = NuBBE_391
REMARK  19 active torsions:
REMARK  status: ('A' for Active; 'I' for Inactive)
REMARK    1  A    between atoms: C_1  and  C_2
REMARK    2  A    between atoms: C_11  and  C_12
REMARK    3  A    between atoms: C_17  and  O_21
REMARK    4  A    between atoms: O_21  and  C_22
REMARK    5  A    between atoms: C_25  and  C_27
REMARK    6  A    between atoms: C_27  and  O_28
REMARK    7  A    between atoms: C_29  and  O_37
REMARK    8  A    between atoms: C_31  and  O_36
REMARK    9  A    between atoms: C_33  and  O_35
REMARK   10  A    between atoms: C_40  and  C_42
REMARK   11  A    between atoms: C_42  and  C_44
REMARK   12  A    between atoms: C_42  and  C_53
REMARK   13  A    between atoms: C_44  and  C_45
REMARK   14  A    between atoms: C_45  and  C_46
REMARK   15  A    between atoms: C_46  and  C_48
REMARK   16  A    between atoms: C_46  and  C_51
REMARK   17  A    between atoms: C_48  and  C_49
REMARK   18  A    between atoms: C_48  and  C_50
REMARK   19  A    between atoms: C_51  and  C_52
REMARK                            x       y       z     vdW  Elec       q    Type
REMARK                         _______ _______ _______ _____ _____    ______ ____
ROOT
ATOM      1  C   LIG A   1      -7.837   2.961 129.164  0.00  0.00    +0.012 C 
ATOM      2  C   LIG A   1      -7.279   3.165 130.591  0.00  0.00    -0.026 C 
ATOM      3  C   LIG A   1      -7.653   2.012 131.559  0.00  0.00    -0.001 C 
ATOM      4  C   LIG A   1      -6.872   0.688 131.460  0.00  0.00    +0.000 C 
ATOM      5  C   LIG A   1      -5.754   0.573 130.368  0.00  0.00    +0.003 C 
ATOM      6  C   LIG A   1      -5.212   1.936 129.839  0.00  0.00    +0.005 C 
ATOM      7  C   LIG A   1      -5.746   3.188 130.564  0.00  0.00    +0.007 C 
ATOM      8  C   LIG A   1      -5.906  -0.633 129.312  0.00  0.00    -0.008 C 
ATOM      9  C   LIG A   1      -4.758  -1.639 129.627  0.00  0.00    +0.016 C 
ATOM     10  C   LIG A   1      -7.222  -1.407 129.414  0.00  0.00    -0.065 C 
ATOM     11  C   LIG A   1      -8.031  -1.341 130.502  0.00  0.00    -0.027 C 
ATOM     12  C   LIG A   1      -7.685  -0.578 131.713  0.00  0.00    +0.031 C 
ATOM     13  C   LIG A   1      -7.585  -2.389 128.318  0.00  0.00    +0.062 C 
ATOM     14  C   LIG A   1      -7.329  -1.884 126.888  0.00  0.00    +0.126 C 
ATOM     15  C   LIG A   1      -5.929  -1.283 126.798  0.00  0.00    +0.033 C 
ATOM     16  C   LIG A   1      -5.737  -0.171 127.833  0.00  0.00    +0.013 C 
ATOM     17  C   LIG A   1      -9.170   2.098 131.616  0.00  0.00    +0.004 C 
ATOM     18  C   LIG A   1      -9.410   3.626 131.682  0.00  0.00    +0.004 C 
ATOM     19  C   LIG A   1      -8.044   4.317 131.328  0.00  0.00    -0.002 C 
ENDROOT
BRANCH  19  20
ATOM     20  C   LIG A   1      -8.193   5.772 130.772  0.00  0.00    -0.010 C 
ATOM     21  C   LIG A   1      -7.101   6.755 131.208  0.00  0.00    +0.008 C 
BRANCH  20  22
ATOM     22  C   LIG A   1      -9.609   6.372 131.003  0.00  0.00    +0.004 C 
BRANCH  22  23
ATOM     23  C   LIG A   1     -10.445   6.543 129.706  0.00  0.00    +0.004 C 
BRANCH  23  24
ATOM     24  C   LIG A   1     -10.967   7.984 129.411  0.00  0.00    -0.009 C 
BRANCH  24  25
ATOM     25  C   LIG A   1     -12.511   8.125 129.673  0.00  0.00    -0.014 C 
ATOM     26  C   LIG A   1     -12.941   7.710 131.090  0.00  0.00    +0.007 C 
ATOM     27  C   LIG A   1     -13.026   9.556 129.445  0.00  0.00    +0.007 C 
ENDBRANCH  24  25
BRANCH  24  28
ATOM     28  C   LIG A   1     -10.568   8.456 127.986  0.00  0.00    +0.000 C 
ATOM     29  C   LIG A   1     -10.875   7.487 126.847  0.00  0.00    +0.004 C 
ENDBRANCH  24  28
ENDBRANCH  23  24
ENDBRANCH  22  23
ENDBRANCH  20  22
ENDBRANCH  19  20
BRANCH  14  30
ATOM     30  O   LIG A   1      -8.376  -0.971 126.545  0.00  0.00    -0.345 OA
BRANCH  30  31
ATOM     31  C   LIG A   1      -8.249  -0.273 125.300  0.00  0.00    +0.282 C 
ATOM     32  O   LIG A   1      -8.137   1.120 125.644  0.00  0.00    -0.341 OA
ATOM     33  C   LIG A   1      -7.975   1.982 124.516  0.00  0.00    +0.178 C 
ATOM     34  C   LIG A   1      -9.215   1.900 123.614  0.00  0.00    +0.177 C 
ATOM     35  C   LIG A   1      -9.374   0.455 123.155  0.00  0.00    +0.179 C 
ATOM     36  C   LIG A   1      -9.442  -0.508 124.338  0.00  0.00    +0.201 C 
BRANCH  36  37
ATOM     37  O   LIG A   1      -9.461  -1.836 123.781  0.00  0.00    -0.384 OA
ATOM     38  H   LIG A   1      -8.954  -1.765 122.946  0.00  0.00    +0.210 HD
ENDBRANCH  36  37
BRANCH  35  39
ATOM     39  O   LIG A   1     -10.563   0.311 122.361  0.00  0.00    -0.386 OA
ATOM     40  H   LIG A   1     -10.314  -0.327 121.660  0.00  0.00    +0.210 HD
ENDBRANCH  35  39
BRANCH  34  41
ATOM     41  O   LIG A   1      -9.129   2.712 122.439  0.00  0.00    -0.387 OA
ATOM     42  H   LIG A   1      -8.206   2.630 122.111  0.00  0.00    +0.210 HD
ENDBRANCH  34  41
BRANCH  33  43
ATOM     43  C   LIG A   1      -7.744   3.408 125.031  0.00  0.00    +0.190 C 
BRANCH  43  44
ATOM     44  O   LIG A   1      -8.979   4.110 125.160  0.00  0.00    -0.392 OA
ATOM     45  H   LIG A   1      -9.103   4.278 126.114  0.00  0.00    +0.209 HD
ENDBRANCH  43  44
ENDBRANCH  33  43
ENDBRANCH  30  31
ENDBRANCH  14  30
TORSDOF 13
ENDMDL
MODEL 3
REMARK VINA RESULT:      -8.5      3.136      7.737
REMARK  Name = NuBBE_391
REMARK  19 active torsions:
REMARK  status: ('A' for Active; 'I' for Inactive)
REMARK    1  A    between atoms: C_1  and  C_2
REMARK    2  A    between atoms: C_11  and  C_12
REMARK    3  A    between atoms: C_17  and  O_21
REMARK    4  A    between atoms: O_21  and  C_22
REMARK    5  A    between atoms: C_25  and  C_27
REMARK    6  A    between atoms: C_27  and  O_28
REMARK    7  A    between atoms: C_29  and  O_37
REMARK    8  A    between atoms: C_31  and  O_36
REMARK    9  A    between atoms: C_33  and  O_35
REMARK   10  A    between atoms: C_40  and  C_42
REMARK   11  A    between atoms: C_42  and  C_44
REMARK   12  A    between atoms: C_42  and  C_53
REMARK   13  A    between atoms: C_44  and  C_45
REMARK   14  A    between atoms: C_45  and  C_46
REMARK   15  A    between atoms: C_46  and  C_48
REMARK   16  A    between atoms: C_46  and  C_51
REMARK   17  A    between atoms: C_48  and  C_49
REMARK   18  A    between atoms: C_48  and  C_50
REMARK   19  A    between atoms: C_51  and  C_52
REMARK                            x       y       z     vdW  Elec       q    Type
REMARK                         _______ _______ _______ _____ _____    ______ ____
ROOT
ATOM      1  C   LIG A   1      -7.581   1.907 129.920  0.00  0.00    +0.012 C 
ATOM      2  C   LIG A   1      -7.189   1.537 131.368  0.00  0.00    -0.026 C 
ATOM      3  C   LIG A   1      -7.700   0.137 131.796  0.00  0.00    -0.001 C 
ATOM      4  C   LIG A   1      -6.944  -1.107 131.291  0.00  0.00    +0.000 C 
ATOM      5  C   LIG A   1      -5.710  -0.886 130.351  0.00  0.00    +0.003 C 
ATOM      6  C   LIG A   1      -5.078   0.537 130.424  0.00  0.00    +0.005 C 
ATOM      7  C   LIG A   1      -5.662   1.468 131.505  0.00  0.00    +0.007 C 
ATOM      8  C   LIG A   1      -5.766  -1.608 128.913  0.00  0.00    -0.008 C 
ATOM      9  C   LIG A   1      -4.687  -2.733 128.945  0.00  0.00    +0.016 C 
ATOM     10  C   LIG A   1      -7.103  -2.278 128.589  0.00  0.00    -0.065 C 
ATOM     11  C   LIG A   1      -8.031  -2.563 129.537  0.00  0.00    -0.027 C 
ATOM     12  C   LIG A   1      -7.811  -2.321 130.973  0.00  0.00    +0.031 C 
ATOM     13  C   LIG A   1      -7.359  -2.764 127.176  0.00  0.00    +0.062 C 
ATOM     14  C   LIG A   1      -6.925  -1.788 126.070  0.00  0.00    +0.126 C 
ATOM     15  C   LIG A   1      -5.510  -1.289 126.349  0.00  0.00    +0.033 C 
ATOM     16  C   LIG A   1      -5.414  -0.648 127.737  0.00  0.00    +0.013 C 
ATOM     17  C   LIG A   1      -9.211   0.295 131.729  0.00  0.00    +0.004 C 
ATOM     18  C   LIG A   1      -9.420   1.704 132.334  0.00  0.00    +0.004 C 
ATOM     19  C   LIG A   1      -8.006   2.387 132.400  0.00  0.00    -0.002 C 
ENDROOT
BRANCH  19  20
ATOM     20  C   LIG A   1      -8.056   3.951 132.413  0.00  0.00    -0.010 C 
ATOM     21  C   LIG A   1      -6.740   4.644 132.781  0.00  0.00    +0.008 C 
BRANCH  20  22
ATOM     22  C   LIG A   1      -9.239   4.518 133.247  0.00  0.00    +0.004 C 
BRANCH  22  23
ATOM     23  C   LIG A   1      -9.760   5.895 132.754  0.00  0.00    +0.004 C 
BRANCH  23  24
ATOM     24  C   LIG A   1     -10.569   5.884 131.420  0.00  0.00    -0.009 C 
BRANCH  24  25
ATOM     25  C   LIG A   1      -9.723   6.408 130.202  0.00  0.00    -0.014 C 
ATOM     26  C   LIG A   1      -8.462   7.186 130.612  0.00  0.00    +0.007 C 
ATOM     27  C   LIG A   1      -9.272   5.281 129.259  0.00  0.00    +0.007 C 
ENDBRANCH  24  25
BRANCH  24  28
ATOM     28  C   LIG A   1     -11.919   6.639 131.565  0.00  0.00    +0.000 C 
ATOM     29  C   LIG A   1     -12.289   7.579 130.421  0.00  0.00    +0.004 C 
ENDBRANCH  24  28
ENDBRANCH  23  24
ENDBRANCH  22  23
ENDBRANCH  20  22
ENDBRANCH  19  20
BRANCH  14  30
ATOM     30  O   LIG A   1      -7.903  -0.746 125.987  0.00  0.00    -0.345 OA
BRANCH  30  31
ATOM     31  C   LIG A   1      -7.888   0.069 124.810  0.00  0.00    +0.282 C 
ATOM     32  O   LIG A   1      -7.627   1.409 125.267  0.00  0.00    -0.341 OA
ATOM     33  C   LIG A   1      -7.549   2.373 124.215  0.00  0.00    +0.178 C 
ATOM     34  C   LIG A   1      -8.900   2.463 123.490  0.00  0.00    +0.177 C 
ATOM     35  C   LIG A   1      -9.226   1.087 122.921  0.00  0.00    +0.179 C 
ATOM     36  C   LIG A   1      -9.211   0.011 124.003  0.00  0.00    +0.201 C 
BRANCH  36  37
ATOM     37  O   LIG A   1      -9.404  -1.247 123.330  0.00  0.00    -0.384 OA
ATOM     38  H   LIG A   1      -9.956  -1.776 123.941  0.00  0.00    +0.210 HD
ENDBRANCH  36  37
BRANCH  35  39
ATOM     39  O   LIG A   1     -10.517   1.102 122.288  0.00  0.00    -0.386 OA
ATOM     40  H   LIG A   1     -10.318   1.113 121.329  0.00  0.00    +0.210 HD
ENDBRANCH  35  39
BRANCH  34  41
ATOM     41  O   LIG A   1      -8.907   3.388 122.398  0.00  0.00    -0.387 OA
ATOM     42  H   LIG A   1      -9.601   3.077 121.774  0.00  0.00    +0.210 HD
ENDBRANCH  34  41
BRANCH  33  43
ATOM     43  C   LIG A   1      -7.145   3.719 124.828  0.00  0.00    +0.190 C 
BRANCH  43  44
ATOM     44  O   LIG A   1      -8.274   4.584 124.948  0.00  0.00    -0.392 OA
ATOM     45  H   LIG A   1      -8.737   4.321 125.767  0.00  0.00    +0.209 HD
ENDBRANCH  43  44
ENDBRANCH  33  43
ENDBRANCH  30  31
ENDBRANCH  14  30
TORSDOF 13
ENDMDL
MODEL 4
REMARK VINA RESULT:      -8.5      3.463      7.590
REMARK  Name = NuBBE_391
REMARK  19 active torsions:
REMARK  status: ('A' for Active; 'I' for Inactive)
REMARK    1  A    between atoms: C_1  and  C_2
REMARK    2  A    between atoms: C_11  and  C_12
REMARK    3  A    between atoms: C_17  and  O_21
REMARK    4  A    between atoms: O_21  and  C_22
REMARK    5  A    between atoms: C_25  and  C_27
REMARK    6  A    between atoms: C_27  and  O_28
REMARK    7  A    between atoms: C_29  and  O_37
REMARK    8  A    between atoms: C_31  and  O_36
REMARK    9  A    between atoms: C_33  and  O_35
REMARK   10  A    between atoms: C_40  and  C_42
REMARK   11  A    between atoms: C_42  and  C_44
REMARK   12  A    between atoms: C_42  and  C_53
REMARK   13  A    between atoms: C_44  and  C_45
REMARK   14  A    between atoms: C_45  and  C_46
REMARK   15  A    between atoms: C_46  and  C_48
REMARK   16  A    between atoms: C_46  and  C_51
REMARK   17  A    between atoms: C_48  and  C_49
REMARK   18  A    between atoms: C_48  and  C_50
REMARK   19  A    between atoms: C_51  and  C_52
REMARK                            x       y       z     vdW  Elec       q    Type
REMARK                         _______ _______ _______ _____ _____    ______ ____
ROOT
ATOM      1  C   LIG A   1      -4.548   1.475 129.945  0.00  0.00    +0.012 C 
ATOM      2  C   LIG A   1      -4.701   2.116 131.343  0.00  0.00    -0.026 C 
ATOM      3  C   LIG A   1      -6.159   2.080 131.871  0.00  0.00    -0.001 C 
ATOM      4  C   LIG A   1      -6.703   0.755 132.436  0.00  0.00    +0.000 C 
ATOM      5  C   LIG A   1      -5.755  -0.493 132.426  0.00  0.00    +0.003 C 
ATOM      6  C   LIG A   1      -4.236  -0.161 132.316  0.00  0.00    +0.005 C 
ATOM      7  C   LIG A   1      -3.879   1.338 132.377  0.00  0.00    +0.007 C 
ATOM      8  C   LIG A   1      -6.295  -1.797 131.650  0.00  0.00    -0.008 C 
ATOM      9  C   LIG A   1      -6.583  -2.869 132.743  0.00  0.00    +0.016 C 
ATOM     10  C   LIG A   1      -7.597  -1.583 130.876  0.00  0.00    -0.065 C 
ATOM     11  C   LIG A   1      -8.420  -0.527 131.099  0.00  0.00    -0.027 C 
ATOM     12  C   LIG A   1      -8.175   0.471 132.154  0.00  0.00    +0.031 C 
ATOM     13  C   LIG A   1      -8.062  -2.654 129.909  0.00  0.00    +0.062 C 
ATOM     14  C   LIG A   1      -6.957  -3.241 129.016  0.00  0.00    +0.126 C 
ATOM     15  C   LIG A   1      -5.745  -3.605 129.870  0.00  0.00    +0.033 C 
ATOM     16  C   LIG A   1      -5.246  -2.396 130.666  0.00  0.00    +0.013 C 
ATOM     17  C   LIG A   1      -6.904   2.939 130.860  0.00  0.00    +0.004 C 
ATOM     18  C   LIG A   1      -5.914   4.106 130.628  0.00  0.00    +0.004 C 
ATOM     19  C   LIG A   1      -4.543   3.673 131.262  0.00  0.00    -0.002 C 
ENDROOT
BRANCH  19  20
ATOM     20  C   LIG A   1      -3.302   4.403 130.649  0.00  0.00    -0.010 C 
ATOM     21  C   LIG A   1      -2.308   4.972 131.667  0.00  0.00    +0.008 C 
BRANCH  20  22
ATOM     22  C   LIG A   1      -3.684   5.469 129.584  0.00  0.00    +0.004 C 
BRANCH  22  23
ATOM     23  C   LIG A   1      -2.779   5.457 128.321  0.00  0.00    +0.004 C 
BRANCH  23  24
ATOM     24  C   LIG A   1      -3.151   4.414 127.222  0.00  0.00    -0.009 C 
BRANCH  24  25
ATOM     25  C   LIG A   1      -4.700   4.150 127.147  0.00  0.00    -0.014 C 
ATOM     26  C   LIG A   1      -5.446   5.098 126.193  0.00  0.00    +0.007 C 
ATOM     27  C   LIG A   1      -5.040   2.714 126.715  0.00  0.00    +0.007 C 
ENDBRANCH  24  25
BRANCH  24  28
ATOM     28  C   LIG A   1      -2.339   3.099 127.384  0.00  0.00    +0.000 C 
ATOM     29  C   LIG A   1      -1.259   2.843 126.337  0.00  0.00    +0.004 C 
ENDBRANCH  24  28
ENDBRANCH  23  24
ENDBRANCH  22  23
ENDBRANCH  20  22
ENDBRANCH  19  20
BRANCH  14  30
ATOM     30  O   LIG A   1      -6.673  -2.297 127.979  0.00  0.00    -0.345 OA
BRANCH  30  31
ATOM     31  C   LIG A   1      -7.784  -1.821 127.210  0.00  0.00    +0.282 C 
ATOM     32  O   LIG A   1      -7.845  -2.667 126.048  0.00  0.00    -0.341 OA
ATOM     33  C   LIG A   1      -8.922  -2.356 125.162  0.00  0.00    +0.178 C 
ATOM     34  C   LIG A   1      -8.744  -0.936 124.604  0.00  0.00    +0.177 C 
ATOM     35  C   LIG A   1      -8.727   0.037 125.776  0.00  0.00    +0.179 C 
ATOM     36  C   LIG A   1      -7.655  -0.331 126.800  0.00  0.00    +0.201 C 
BRANCH  36  37
ATOM     37  O   LIG A   1      -7.822   0.574 127.907  0.00  0.00    -0.384 OA
ATOM     38  H   LIG A   1      -6.951   0.585 128.355  0.00  0.00    +0.210 HD
ENDBRANCH  36  37
BRANCH  35  39
ATOM     39  O   LIG A   1      -8.494   1.377 125.310  0.00  0.00    -0.386 OA
ATOM     40  H   LIG A   1      -8.927   1.408 124.431  0.00  0.00    +0.210 HD
ENDBRANCH  35  39
BRANCH  34  41
ATOM     41  O   LIG A   1      -9.797  -0.526 123.725  0.00  0.00    -0.387 OA
ATOM     42  H   LIG A   1     -10.012  -1.306 123.166  0.00  0.00    +0.210 HD
ENDBRANCH  34  41
BRANCH  33  43
ATOM     43  C   LIG A   1      -8.943  -3.405 124.045  0.00  0.00    +0.190 C 
BRANCH  43  44
ATOM     44  O   LIG A   1     -10.221  -3.451 123.412  0.00  0.00    -0.392 OA
ATOM     45  H   LIG A   1     -10.602  -4.325 123.622  0.00  0.00    +0.209 HD
ENDBRANCH  43  44
ENDBRANCH  33  43
ENDBRANCH  30  31
ENDBRANCH  14  30
TORSDOF 13
ENDMDL
MODEL 5
REMARK VINA RESULT:      -8.4      2.696      5.655
REMARK  Name = NuBBE_391
REMARK  19 active torsions:
REMARK  status: ('A' for Active; 'I' for Inactive)
REMARK    1  A    between atoms: C_1  and  C_2
REMARK    2  A    between atoms: C_11  and  C_12
REMARK    3  A    between atoms: C_17  and  O_21
REMARK    4  A    between atoms: O_21  and  C_22
REMARK    5  A    between atoms: C_25  and  C_27
REMARK    6  A    between atoms: C_27  and  O_28
REMARK    7  A    between atoms: C_29  and  O_37
REMARK    8  A    between atoms: C_31  and  O_36
REMARK    9  A    between atoms: C_33  and  O_35
REMARK   10  A    between atoms: C_40  and  C_42
REMARK   11  A    between atoms: C_42  and  C_44
REMARK   12  A    between atoms: C_42  and  C_53
REMARK   13  A    between atoms: C_44  and  C_45
REMARK   14  A    between atoms: C_45  and  C_46
REMARK   15  A    between atoms: C_46  and  C_48
REMARK   16  A    between atoms: C_46  and  C_51
REMARK   17  A    between atoms: C_48  and  C_49
REMARK   18  A    between atoms: C_48  and  C_50
REMARK   19  A    between atoms: C_51  and  C_52
REMARK                            x       y       z     vdW  Elec       q    Type
REMARK                         _______ _______ _______ _____ _____    ______ ____
ROOT
ATOM      1  C   LIG A   1      -7.232   1.397 128.992  0.00  0.00    +0.012 C 
ATOM      2  C   LIG A   1      -5.724   1.111 129.175  0.00  0.00    -0.026 C 
ATOM      3  C   LIG A   1      -4.857   2.397 129.162  0.00  0.00    -0.001 C 
ATOM      4  C   LIG A   1      -4.828   3.276 130.427  0.00  0.00    +0.000 C 
ATOM      5  C   LIG A   1      -5.696   2.830 131.653  0.00  0.00    +0.003 C 
ATOM      6  C   LIG A   1      -6.097   1.323 131.658  0.00  0.00    +0.005 C 
ATOM      7  C   LIG A   1      -5.467   0.465 130.542  0.00  0.00    +0.007 C 
ATOM      8  C   LIG A   1      -6.778   3.894 132.190  0.00  0.00    -0.008 C 
ATOM      9  C   LIG A   1      -6.270   4.371 133.583  0.00  0.00    +0.016 C 
ATOM     10  C   LIG A   1      -6.931   5.142 131.317  0.00  0.00    -0.065 C 
ATOM     11  C   LIG A   1      -6.010   5.506 130.389  0.00  0.00    -0.027 C 
ATOM     12  C   LIG A   1      -4.746   4.779 130.184  0.00  0.00    +0.031 C 
ATOM     13  C   LIG A   1      -8.088   6.085 131.578  0.00  0.00    +0.062 C 
ATOM     14  C   LIG A   1      -9.439   5.395 131.829  0.00  0.00    +0.126 C 
ATOM     15  C   LIG A   1      -9.261   4.272 132.848  0.00  0.00    +0.033 C 
ATOM     16  C   LIG A   1      -8.194   3.274 132.390  0.00  0.00    +0.013 C 
ATOM     17  C   LIG A   1      -5.080   2.940 127.759  0.00  0.00    +0.004 C 
ATOM     18  C   LIG A   1      -5.039   1.654 126.900  0.00  0.00    +0.004 C 
ATOM     19  C   LIG A   1      -5.126   0.439 127.892  0.00  0.00    -0.002 C 
ENDROOT
BRANCH  19  20
ATOM     20  C   LIG A   1      -5.680  -0.873 127.244  0.00  0.00    -0.010 C 
ATOM     21  C   LIG A   1      -5.272  -2.173 127.946  0.00  0.00    +0.008 C 
BRANCH  20  22
ATOM     22  C   LIG A   1      -5.417  -0.958 125.714  0.00  0.00    +0.004 C 
BRANCH  22  23
ATOM     23  C   LIG A   1      -6.704  -1.102 124.856  0.00  0.00    +0.004 C 
BRANCH  23  24
ATOM     24  C   LIG A   1      -6.959  -2.511 124.236  0.00  0.00    -0.009 C 
BRANCH  24  25
ATOM     25  C   LIG A   1      -8.277  -3.174 124.782  0.00  0.00    -0.014 C 
ATOM     26  C   LIG A   1      -8.923  -2.404 125.946  0.00  0.00    +0.007 C 
ATOM     27  C   LIG A   1      -9.354  -3.340 123.698  0.00  0.00    +0.007 C 
ENDBRANCH  24  25
BRANCH  24  28
ATOM     28  C   LIG A   1      -5.725  -3.440 124.399  0.00  0.00    +0.000 C 
ATOM     29  C   LIG A   1      -4.678  -3.365 123.291  0.00  0.00    +0.004 C 
ENDBRANCH  24  28
ENDBRANCH  23  24
ENDBRANCH  22  23
ENDBRANCH  20  22
ENDBRANCH  19  20
BRANCH  14  30
ATOM     30  O   LIG A   1      -9.958   4.959 130.569  0.00  0.00    -0.345 OA
BRANCH  30  31
ATOM     31  C   LIG A   1     -11.087   5.671 130.048  0.00  0.00    +0.282 C 
ATOM     32  O   LIG A   1     -10.645   6.249 128.807  0.00  0.00    -0.341 OA
ATOM     33  C   LIG A   1     -11.657   6.987 128.120  0.00  0.00    +0.178 C 
ATOM     34  C   LIG A   1     -12.101   8.184 128.974  0.00  0.00    +0.177 C 
ATOM     35  C   LIG A   1     -12.641   7.651 130.295  0.00  0.00    +0.179 C 
ATOM     36  C   LIG A   1     -11.620   6.767 131.007  0.00  0.00    +0.201 C 
BRANCH  36  37
ATOM     37  O   LIG A   1     -12.285   6.226 132.164  0.00  0.00    -0.384 OA
ATOM     38  H   LIG A   1     -12.022   5.283 132.187  0.00  0.00    +0.210 HD
ENDBRANCH  36  37
BRANCH  35  39
ATOM     39  O   LIG A   1     -13.008   8.738 131.160  0.00  0.00    -0.386 OA
ATOM     40  H   LIG A   1     -13.574   9.313 130.604  0.00  0.00    +0.210 HD
ENDBRANCH  35  39
BRANCH  34  41
ATOM     41  O   LIG A   1     -13.138   8.967 128.375  0.00  0.00    -0.387 OA
ATOM     42  H   LIG A   1     -12.695   9.584 127.750  0.00  0.00    +0.210 HD
ENDBRANCH  34  41
BRANCH  33  43
ATOM     43  C   LIG A   1     -11.090   7.435 126.768  0.00  0.00    +0.190 C 
BRANCH  43  44
ATOM     44  O   LIG A   1     -12.027   7.198 125.718  0.00  0.00    -0.392 OA
ATOM     45  H   LIG A   1     -11.670   6.457 125.192  0.00  0.00    +0.209 HD
ENDBRANCH  43  44
ENDBRANCH  33  43
ENDBRANCH  30  31
ENDBRANCH  14  30
TORSDOF 13
ENDMDL
MODEL 6
REMARK VINA RESULT:      -8.3      2.256      5.080
REMARK  Name = NuBBE_391
REMARK  19 active torsions:
REMARK  status: ('A' for Active; 'I' for Inactive)
REMARK    1  A    between atoms: C_1  and  C_2
REMARK    2  A    between atoms: C_11  and  C_12
REMARK    3  A    between atoms: C_17  and  O_21
REMARK    4  A    between atoms: O_21  and  C_22
REMARK    5  A    between atoms: C_25  and  C_27
REMARK    6  A    between atoms: C_27  and  O_28
REMARK    7  A    between atoms: C_29  and  O_37
REMARK    8  A    between atoms: C_31  and  O_36
REMARK    9  A    between atoms: C_33  and  O_35
REMARK   10  A    between atoms: C_40  and  C_42
REMARK   11  A    between atoms: C_42  and  C_44
REMARK   12  A    between atoms: C_42  and  C_53
REMARK   13  A    between atoms: C_44  and  C_45
REMARK   14  A    between atoms: C_45  and  C_46
REMARK   15  A    between atoms: C_46  and  C_48
REMARK   16  A    between atoms: C_46  and  C_51
REMARK   17  A    between atoms: C_48  and  C_49
REMARK   18  A    between atoms: C_48  and  C_50
REMARK   19  A    between atoms: C_51  and  C_52
REMARK                            x       y       z     vdW  Elec       q    Type
REMARK                         _______ _______ _______ _____ _____    ______ ____
ROOT
ATOM      1  C   LIG A   1      -8.095   0.590 130.562  0.00  0.00    +0.012 C 
ATOM      2  C   LIG A   1      -6.747  -0.147 130.729  0.00  0.00    -0.026 C 
ATOM      3  C   LIG A   1      -5.520   0.785 130.552  0.00  0.00    -0.001 C 
ATOM      4  C   LIG A   1      -5.135   1.720 131.713  0.00  0.00    +0.000 C 
ATOM      5  C   LIG A   1      -6.021   1.693 133.005  0.00  0.00    +0.003 C 
ATOM      6  C   LIG A   1      -6.878   0.403 133.184  0.00  0.00    +0.005 C 
ATOM      7  C   LIG A   1      -6.623  -0.712 132.150  0.00  0.00    +0.007 C 
ATOM      8  C   LIG A   1      -6.674   3.094 133.456  0.00  0.00    -0.008 C 
ATOM      9  C   LIG A   1      -5.954   3.509 134.774  0.00  0.00    +0.016 C 
ATOM     10  C   LIG A   1      -6.478   4.237 132.459  0.00  0.00    -0.065 C 
ATOM     11  C   LIG A   1      -5.550   4.199 131.469  0.00  0.00    -0.027 C 
ATOM     12  C   LIG A   1      -4.596   3.088 131.307  0.00  0.00    +0.031 C 
ATOM     13  C   LIG A   1      -7.258   5.523 132.651  0.00  0.00    +0.062 C 
ATOM     14  C   LIG A   1      -8.739   5.331 133.015  0.00  0.00    +0.126 C 
ATOM     15  C   LIG A   1      -8.863   4.309 134.143  0.00  0.00    +0.033 C 
ATOM     16  C   LIG A   1      -8.198   2.983 133.764  0.00  0.00    +0.013 C 
ATOM     17  C   LIG A   1      -5.648   1.238 129.106  0.00  0.00    +0.004 C 
ATOM     18  C   LIG A   1      -6.070  -0.067 128.389  0.00  0.00    +0.004 C 
ATOM     19  C   LIG A   1      -6.475  -1.092 129.509  0.00  0.00    -0.002 C 
ENDROOT
BRANCH  19  20
ATOM     20  C   LIG A   1      -7.456  -2.210 129.023  0.00  0.00    -0.010 C 
ATOM     21  C   LIG A   1      -7.418  -3.511 129.832  0.00  0.00    +0.008 C 
BRANCH  20  22
ATOM     22  C   LIG A   1      -7.350  -2.496 127.499  0.00  0.00    +0.004 C 
BRANCH  22  23
ATOM     23  C   LIG A   1      -8.706  -2.835 126.821  0.00  0.00    +0.004 C 
BRANCH  23  24
ATOM     24  C   LIG A   1      -8.992  -2.118 125.465  0.00  0.00    -0.009 C 
BRANCH  24  25
ATOM     25  C   LIG A   1      -8.545  -2.979 124.227  0.00  0.00    -0.014 C 
ATOM     26  C   LIG A   1      -9.710  -3.423 123.327  0.00  0.00    +0.007 C 
ATOM     27  C   LIG A   1      -7.531  -2.252 123.329  0.00  0.00    +0.007 C 
ENDBRANCH  24  25
BRANCH  24  28
ATOM     28  C   LIG A   1      -8.386  -0.689 125.435  0.00  0.00    +0.000 C 
ATOM     29  C   LIG A   1      -9.270   0.428 125.983  0.00  0.00    +0.004 C 
ENDBRANCH  24  28
ENDBRANCH  23  24
ENDBRANCH  22  23
ENDBRANCH  20  22
ENDBRANCH  19  20
BRANCH  14  30
ATOM     30  O   LIG A   1      -9.448   4.970 131.826  0.00  0.00    -0.345 OA
BRANCH  30  31
ATOM     31  C   LIG A   1      -9.700   6.013 130.876  0.00  0.00    +0.282 C 
ATOM     32  O   LIG A   1     -11.100   6.322 131.000  0.00  0.00    -0.341 OA
ATOM     33  C   LIG A   1     -11.538   7.373 130.136  0.00  0.00    +0.178 C 
ATOM     34  C   LIG A   1     -11.358   6.952 128.670  0.00  0.00    +0.177 C 
ATOM     35  C   LIG A   1      -9.881   6.659 128.438  0.00  0.00    +0.179 C 
ATOM     36  C   LIG A   1      -9.351   5.616 129.418  0.00  0.00    +0.201 C 
BRANCH  36  37
ATOM     37  O   LIG A   1      -7.933   5.521 129.186  0.00  0.00    -0.384 OA
ATOM     38  H   LIG A   1      -7.729   6.262 128.579  0.00  0.00    +0.210 HD
ENDBRANCH  36  37
BRANCH  35  39
ATOM     39  O   LIG A   1      -9.669   6.194 127.094  0.00  0.00    -0.386 OA
ATOM     40  H   LIG A   1      -9.766   5.221 127.154  0.00  0.00    +0.210 HD
ENDBRANCH  35  39
BRANCH  34  41
ATOM     41  O   LIG A   1     -11.746   7.958 127.730  0.00  0.00    -0.387 OA
ATOM     42  H   LIG A   1     -12.031   8.738 128.258  0.00  0.00    +0.210 HD
ENDBRANCH  34  41
BRANCH  33  43
ATOM     43  C   LIG A   1     -13.005   7.681 130.461  0.00  0.00    +0.190 C 
BRANCH  43  44
ATOM     44  O   LIG A   1     -13.294   7.397 131.829  0.00  0.00    -0.392 OA
ATOM     45  H   LIG A   1     -12.846   6.555 132.037  0.00  0.00    +0.209 HD
ENDBRANCH  43  44
ENDBRANCH  33  43
ENDBRANCH  30  31
ENDBRANCH  14  30
TORSDOF 13
ENDMDL
MODEL 7
REMARK VINA RESULT:      -8.2      1.417      2.431
REMARK  Name = NuBBE_391
REMARK  19 active torsions:
REMARK  status: ('A' for Active; 'I' for Inactive)
REMARK    1  A    between atoms: C_1  and  C_2
REMARK    2  A    between atoms: C_11  and  C_12
REMARK    3  A    between atoms: C_17  and  O_21
REMARK    4  A    between atoms: O_21  and  C_22
REMARK    5  A    between atoms: C_25  and  C_27
REMARK    6  A    between atoms: C_27  and  O_28
REMARK    7  A    between atoms: C_29  and  O_37
REMARK    8  A    between atoms: C_31  and  O_36
REMARK    9  A    between atoms: C_33  and  O_35
REMARK   10  A    between atoms: C_40  and  C_42
REMARK   11  A    between atoms: C_42  and  C_44
REMARK   12  A    between atoms: C_42  and  C_53
REMARK   13  A    between atoms: C_44  and  C_45
REMARK   14  A    between atoms: C_45  and  C_46
REMARK   15  A    between atoms: C_46  and  C_48
REMARK   16  A    between atoms: C_46  and  C_51
REMARK   17  A    between atoms: C_48  and  C_49
REMARK   18  A    between atoms: C_48  and  C_50
REMARK   19  A    between atoms: C_51  and  C_52
REMARK                            x       y       z     vdW  Elec       q    Type
REMARK                         _______ _______ _______ _____ _____    ______ ____
ROOT
ATOM      1  C   LIG A   1      -7.879  -0.834 127.292  0.00  0.00    +0.012 C 
ATOM      2  C   LIG A   1      -7.417  -2.273 126.967  0.00  0.00    -0.026 C 
ATOM      3  C   LIG A   1      -6.017  -2.605 127.544  0.00  0.00    -0.001 C 
ATOM      4  C   LIG A   1      -5.898  -2.924 129.047  0.00  0.00    +0.000 C 
ATOM      5  C   LIG A   1      -7.202  -2.872 129.914  0.00  0.00    +0.003 C 
ATOM      6  C   LIG A   1      -8.531  -2.996 129.107  0.00  0.00    +0.005 C 
ATOM      7  C   LIG A   1      -8.369  -3.293 127.603  0.00  0.00    +0.007 C 
ATOM      8  C   LIG A   1      -7.184  -1.874 131.177  0.00  0.00    -0.008 C 
ATOM      9  C   LIG A   1      -7.182  -2.776 132.448  0.00  0.00    +0.016 C 
ATOM     10  C   LIG A   1      -5.947  -0.978 131.262  0.00  0.00    -0.065 C 
ATOM     11  C   LIG A   1      -4.808  -1.229 130.569  0.00  0.00    -0.027 C 
ATOM     12  C   LIG A   1      -4.628  -2.426 129.729  0.00  0.00    +0.031 C 
ATOM     13  C   LIG A   1      -5.936   0.169 132.253  0.00  0.00    +0.062 C 
ATOM     14  C   LIG A   1      -7.238   0.985 132.310  0.00  0.00    +0.126 C 
ATOM     15  C   LIG A   1      -8.433   0.041 132.408  0.00  0.00    +0.033 C 
ATOM     16  C   LIG A   1      -8.444  -0.960 131.248  0.00  0.00    +0.013 C 
ATOM     17  C   LIG A   1      -5.110  -1.628 126.812  0.00  0.00    +0.004 C 
ATOM     18  C   LIG A   1      -5.674  -1.674 125.371  0.00  0.00    +0.004 C 
ATOM     19  C   LIG A   1      -7.059  -2.412 125.447  0.00  0.00    -0.002 C 
ENDROOT
BRANCH  19  20
ATOM     20  C   LIG A   1      -8.034  -2.058 124.275  0.00  0.00    -0.010 C 
ATOM     21  C   LIG A   1      -8.931  -3.205 123.800  0.00  0.00    +0.008 C 
BRANCH  20  22
ATOM     22  C   LIG A   1      -7.322  -1.371 123.076  0.00  0.00    +0.004 C 
BRANCH  22  23
ATOM     23  C   LIG A   1      -7.251   0.177 123.181  0.00  0.00    +0.004 C 
BRANCH  23  24
ATOM     24  C   LIG A   1      -8.329   0.852 124.086  0.00  0.00    -0.009 C 
BRANCH  24  25
ATOM     25  C   LIG A   1      -9.460   1.553 123.247  0.00  0.00    -0.014 C 
ATOM     26  C   LIG A   1      -8.942   2.652 122.304  0.00  0.00    +0.007 C 
ATOM     27  C   LIG A   1     -10.266   0.564 122.390  0.00  0.00    +0.007 C 
ENDBRANCH  24  25
BRANCH  24  28
ATOM     28  C   LIG A   1      -7.684   1.814 125.121  0.00  0.00    +0.000 C 
ATOM     29  C   LIG A   1      -6.159   1.869 125.129  0.00  0.00    +0.004 C 
ENDBRANCH  24  28
ENDBRANCH  23  24
ENDBRANCH  22  23
ENDBRANCH  20  22
ENDBRANCH  19  20
BRANCH  14  30
ATOM     30  O   LIG A   1      -7.273   1.849 131.170  0.00  0.00    -0.345 OA
BRANCH  30  31
ATOM     31  C   LIG A   1      -7.524   3.239 131.412  0.00  0.00    +0.282 C 
ATOM     32  O   LIG A   1      -8.841   3.493 130.891  0.00  0.00    -0.341 OA
ATOM     33  C   LIG A   1      -9.281   4.841 131.067  0.00  0.00    +0.178 C 
ATOM     34  C   LIG A   1      -8.361   5.796 130.292  0.00  0.00    +0.177 C 
ATOM     35  C   LIG A   1      -6.944   5.629 130.828  0.00  0.00    +0.179 C 
ATOM     36  C   LIG A   1      -6.479   4.177 130.754  0.00  0.00    +0.201 C 
BRANCH  36  37
ATOM     37  O   LIG A   1      -5.193   4.127 131.400  0.00  0.00    -0.384 OA
ATOM     38  H   LIG A   1      -4.921   5.064 131.488  0.00  0.00    +0.210 HD
ENDBRANCH  36  37
BRANCH  35  39
ATOM     39  O   LIG A   1      -6.030   6.455 130.087  0.00  0.00    -0.386 OA
ATOM     40  H   LIG A   1      -5.448   5.818 129.622  0.00  0.00    +0.210 HD
ENDBRANCH  35  39
BRANCH  34  41
ATOM     41  O   LIG A   1      -8.710   7.176 130.435  0.00  0.00    -0.387 OA
ATOM     42  H   LIG A   1      -8.982   7.489 129.543  0.00  0.00    +0.210 HD
ENDBRANCH  34  41
BRANCH  33  43
ATOM     43  C   LIG A   1     -10.733   4.939 130.584  0.00  0.00    +0.190 C 
BRANCH  43  44
ATOM     44  O   LIG A   1     -11.271   3.643 130.323  0.00  0.00    -0.392 OA
ATOM     45  H   LIG A   1     -11.429   3.229 131.193  0.00  0.00    +0.209 HD
ENDBRANCH  43  44
ENDBRANCH  33  43
ENDBRANCH  30  31
ENDBRANCH  14  30
TORSDOF 13
ENDMDL
MODEL 8
REMARK VINA RESULT:      -7.9      3.460      7.511
REMARK  Name = NuBBE_391
REMARK  19 active torsions:
REMARK  status: ('A' for Active; 'I' for Inactive)
REMARK    1  A    between atoms: C_1  and  C_2
REMARK    2  A    between atoms: C_11  and  C_12
REMARK    3  A    between atoms: C_17  and  O_21
REMARK    4  A    between atoms: O_21  and  C_22
REMARK    5  A    between atoms: C_25  and  C_27
REMARK    6  A    between atoms: C_27  and  O_28
REMARK    7  A    between atoms: C_29  and  O_37
REMARK    8  A    between atoms: C_31  and  O_36
REMARK    9  A    between atoms: C_33  and  O_35
REMARK   10  A    between atoms: C_40  and  C_42
REMARK   11  A    between atoms: C_42  and  C_44
REMARK   12  A    between atoms: C_42  and  C_53
REMARK   13  A    between atoms: C_44  and  C_45
REMARK   14  A    between atoms: C_45  and  C_46
REMARK   15  A    between atoms: C_46  and  C_48
REMARK   16  A    between atoms: C_46  and  C_51
REMARK   17  A    between atoms: C_48  and  C_49
REMARK   18  A    between atoms: C_48  and  C_50
REMARK   19  A    between atoms: C_51  and  C_52
REMARK                            x       y       z     vdW  Elec       q    Type
REMARK                         _______ _______ _______ _____ _____    ______ ____
ROOT
ATOM      1  C   LIG A   1      -6.235   2.100 129.540  0.00  0.00    +0.012 C 
ATOM      2  C   LIG A   1      -5.548   1.911 130.912  0.00  0.00    -0.026 C 
ATOM      3  C   LIG A   1      -6.265   0.871 131.811  0.00  0.00    -0.001 C 
ATOM      4  C   LIG A   1      -6.052  -0.626 131.516  0.00  0.00    +0.000 C 
ATOM      5  C   LIG A   1      -5.136  -1.014 130.305  0.00  0.00    +0.003 C 
ATOM      6  C   LIG A   1      -4.155   0.105 129.841  0.00  0.00    +0.005 C 
ATOM      7  C   LIG A   1      -4.126   1.369 130.724  0.00  0.00    +0.007 C 
ATOM      8  C   LIG A   1      -5.803  -1.942 129.171  0.00  0.00    -0.008 C 
ATOM      9  C   LIG A   1      -5.103  -3.331 129.275  0.00  0.00    +0.016 C 
ATOM     10  C   LIG A   1      -7.304  -2.182 129.346  0.00  0.00    -0.065 C 
ATOM     11  C   LIG A   1      -7.954  -1.953 130.515  0.00  0.00    -0.027 C 
ATOM     12  C   LIG A   1      -7.265  -1.522 131.744  0.00  0.00    +0.031 C 
ATOM     13  C   LIG A   1      -8.083  -2.822 128.214  0.00  0.00    +0.062 C 
ATOM     14  C   LIG A   1      -7.750  -2.279 126.814  0.00  0.00    +0.126 C 
ATOM     15  C   LIG A   1      -6.236  -2.232 126.627  0.00  0.00    +0.033 C 
ATOM     16  C   LIG A   1      -5.569  -1.402 127.728  0.00  0.00    +0.013 C 
ATOM     17  C   LIG A   1      -7.630   1.504 132.036  0.00  0.00    +0.004 C 
ATOM     18  C   LIG A   1      -7.268   2.992 132.258  0.00  0.00    +0.004 C 
ATOM     19  C   LIG A   1      -5.769   3.167 131.822  0.00  0.00    -0.002 C 
ENDROOT
BRANCH  19  20
ATOM     20  C   LIG A   1      -5.393   4.630 131.413  0.00  0.00    -0.010 C 
ATOM     21  C   LIG A   1      -5.643   5.695 132.486  0.00  0.00    +0.008 C 
BRANCH  20  22
ATOM     22  C   LIG A   1      -6.001   5.059 130.048  0.00  0.00    +0.004 C 
BRANCH  22  23
ATOM     23  C   LIG A   1      -4.958   5.209 128.907  0.00  0.00    +0.004 C 
BRANCH  23  24
ATOM     24  C   LIG A   1      -3.491   4.813 129.264  0.00  0.00    -0.009 C 
BRANCH  24  25
ATOM     25  C   LIG A   1      -2.546   6.064 129.382  0.00  0.00    -0.014 C 
ATOM     26  C   LIG A   1      -3.185   7.374 128.892  0.00  0.00    +0.007 C 
ATOM     27  C   LIG A   1      -2.059   6.310 130.820  0.00  0.00    +0.007 C 
ENDBRANCH  24  25
BRANCH  24  28
ATOM     28  C   LIG A   1      -2.933   3.747 128.282  0.00  0.00    +0.000 C 
ATOM     29  C   LIG A   1      -3.797   3.439 127.062  0.00  0.00    +0.004 C 
ENDBRANCH  24  28
ENDBRANCH  23  24
ENDBRANCH  22  23
ENDBRANCH  20  22
ENDBRANCH  19  20
BRANCH  14  30
ATOM     30  O   LIG A   1      -8.394  -1.010 126.664  0.00  0.00    -0.345 OA
BRANCH  30  31
ATOM     31  C   LIG A   1      -8.255  -0.356 125.397  0.00  0.00    +0.282 C 
ATOM     32  O   LIG A   1      -8.136   1.047 125.694  0.00  0.00    -0.341 OA
ATOM     33  C   LIG A   1      -7.962   1.870 124.538  0.00  0.00    +0.178 C 
ATOM     34  C   LIG A   1      -9.198   1.764 123.632  0.00  0.00    +0.177 C 
ATOM     35  C   LIG A   1      -9.363   0.306 123.222  0.00  0.00    +0.179 C 
ATOM     36  C   LIG A   1      -9.444  -0.617 124.435  0.00  0.00    +0.201 C 
BRANCH  36  37
ATOM     37  O   LIG A   1      -9.468  -1.962 123.924  0.00  0.00    -0.384 OA
ATOM     38  H   LIG A   1     -10.203  -2.399 124.401  0.00  0.00    +0.210 HD
ENDBRANCH  36  37
BRANCH  35  39
ATOM     39  O   LIG A   1     -10.548   0.142 122.425  0.00  0.00    -0.386 OA
ATOM     40  H   LIG A   1     -10.250  -0.372 121.646  0.00  0.00    +0.210 HD
ENDBRANCH  35  39
BRANCH  34  41
ATOM     41  O   LIG A   1      -9.099   2.536 122.431  0.00  0.00    -0.387 OA
ATOM     42  H   LIG A   1      -8.172   2.860 122.384  0.00  0.00    +0.210 HD
ENDBRANCH  34  41
BRANCH  33  43
ATOM     43  C   LIG A   1      -7.725   3.311 125.007  0.00  0.00    +0.190 C 
BRANCH  43  44
ATOM     44  O   LIG A   1      -8.959   4.017 125.126  0.00  0.00    -0.392 OA
ATOM     45  H   LIG A   1      -9.120   4.133 126.082  0.00  0.00    +0.209 HD
ENDBRANCH  43  44
ENDBRANCH  33  43
ENDBRANCH  30  31
ENDBRANCH  14  30
TORSDOF 13
ENDMDL
MODEL 9
REMARK VINA RESULT:      -7.7      4.375      9.893
REMARK  Name = NuBBE_391
REMARK  19 active torsions:
REMARK  status: ('A' for Active; 'I' for Inactive)
REMARK    1  A    between atoms: C_1  and  C_2
REMARK    2  A    between atoms: C_11  and  C_12
REMARK    3  A    between atoms: C_17  and  O_21
REMARK    4  A    between atoms: O_21  and  C_22
REMARK    5  A    between atoms: C_25  and  C_27
REMARK    6  A    between atoms: C_27  and  O_28
REMARK    7  A    between atoms: C_29  and  O_37
REMARK    8  A    between atoms: C_31  and  O_36
REMARK    9  A    between atoms: C_33  and  O_35
REMARK   10  A    between atoms: C_40  and  C_42
REMARK   11  A    between atoms: C_42  and  C_44
REMARK   12  A    between atoms: C_42  and  C_53
REMARK   13  A    between atoms: C_44  and  C_45
REMARK   14  A    between atoms: C_45  and  C_46
REMARK   15  A    between atoms: C_46  and  C_48
REMARK   16  A    between atoms: C_46  and  C_51
REMARK   17  A    between atoms: C_48  and  C_49
REMARK   18  A    between atoms: C_48  and  C_50
REMARK   19  A    between atoms: C_51  and  C_52
REMARK                            x       y       z     vdW  Elec       q    Type
REMARK                         _______ _______ _______ _____ _____    ______ ____
ROOT
ATOM      1  C   LIG A   1      -4.246   4.478 130.841  0.00  0.00    +0.012 C 
ATOM      2  C   LIG A   1      -4.334   5.402 132.078  0.00  0.00    -0.026 C 
ATOM      3  C   LIG A   1      -5.555   6.357 132.036  0.00  0.00    -0.001 C 
ATOM      4  C   LIG A   1      -6.944   5.789 132.382  0.00  0.00    +0.000 C 
ATOM      5  C   LIG A   1      -7.049   4.266 132.736  0.00  0.00    +0.003 C 
ATOM      6  C   LIG A   1      -5.710   3.605 133.184  0.00  0.00    +0.005 C 
ATOM      7  C   LIG A   1      -4.518   4.568 133.352  0.00  0.00    +0.007 C 
ATOM      8  C   LIG A   1      -8.053   3.388 131.834  0.00  0.00    -0.008 C 
ATOM      9  C   LIG A   1      -9.243   2.993 132.760  0.00  0.00    +0.016 C 
ATOM     10  C   LIG A   1      -8.645   4.130 130.635  0.00  0.00    -0.065 C 
ATOM     11  C   LIG A   1      -8.631   5.483 130.527  0.00  0.00    -0.027 C 
ATOM     12  C   LIG A   1      -8.110   6.366 131.585  0.00  0.00    +0.031 C 
ATOM     13  C   LIG A   1      -9.395   3.343 129.579  0.00  0.00    +0.062 C 
ATOM     14  C   LIG A   1      -8.725   2.024 129.160  0.00  0.00    +0.126 C 
ATOM     15  C   LIG A   1      -8.315   1.237 130.403  0.00  0.00    +0.033 C 
ATOM     16  C   LIG A   1      -7.405   2.071 131.310  0.00  0.00    +0.013 C 
ATOM     17  C   LIG A   1      -5.271   7.214 130.812  0.00  0.00    +0.004 C 
ATOM     18  C   LIG A   1      -3.751   7.478 130.942  0.00  0.00    +0.004 C 
ATOM     19  C   LIG A   1      -3.209   6.492 132.039  0.00  0.00    -0.002 C 
ENDROOT
BRANCH  19  20
ATOM     20  C   LIG A   1      -1.681   6.179 131.913  0.00  0.00    -0.010 C 
ATOM     21  C   LIG A   1      -1.220   4.884 132.590  0.00  0.00    +0.008 C 
BRANCH  20  22
ATOM     22  C   LIG A   1      -0.776   7.375 132.320  0.00  0.00    +0.004 C 
BRANCH  22  23
ATOM     23  C   LIG A   1      -0.776   7.680 133.843  0.00  0.00    +0.004 C 
BRANCH  23  24
ATOM     24  C   LIG A   1      -1.646   8.892 134.300  0.00  0.00    -0.009 C 
BRANCH  24  25
ATOM     25  C   LIG A   1      -2.898   8.446 135.141  0.00  0.00    -0.014 C 
ATOM     26  C   LIG A   1      -2.825   6.993 135.639  0.00  0.00    +0.007 C 
ATOM     27  C   LIG A   1      -3.137   9.334 136.372  0.00  0.00    +0.007 C 
ENDBRANCH  24  25
BRANCH  24  28
ATOM     28  C   LIG A   1      -2.038   9.798 133.100  0.00  0.00    +0.000 C 
ATOM     29  C   LIG A   1      -2.073  11.299 133.375  0.00  0.00    +0.004 C 
ENDBRANCH  24  28
ENDBRANCH  23  24
ENDBRANCH  22  23
ENDBRANCH  20  22
ENDBRANCH  19  20
BRANCH  14  30
ATOM     30  O   LIG A   1      -7.636   2.336 128.286  0.00  0.00    -0.345 OA
BRANCH  30  31
ATOM     31  C   LIG A   1      -7.945   3.074 127.098  0.00  0.00    +0.282 C 
ATOM     32  O   LIG A   1      -8.567   2.132 126.205  0.00  0.00    -0.341 OA
ATOM     33  C   LIG A   1      -8.974   2.700 124.958  0.00  0.00    +0.178 C 
ATOM     34  C   LIG A   1      -7.745   3.213 124.193  0.00  0.00    +0.177 C 
ATOM     35  C   LIG A   1      -7.055   4.266 125.052  0.00  0.00    +0.179 C 
ATOM     36  C   LIG A   1      -6.702   3.723 126.435  0.00  0.00    +0.201 C 
BRANCH  36  37
ATOM     37  O   LIG A   1      -6.180   4.834 127.187  0.00  0.00    -0.384 OA
ATOM     38  H   LIG A   1      -5.633   4.426 127.890  0.00  0.00    +0.210 HD
ENDBRANCH  36  37
BRANCH  35  39
ATOM     39  O   LIG A   1      -5.857   4.730 124.408  0.00  0.00    -0.386 OA
ATOM     40  H   LIG A   1      -5.229   3.982 124.492  0.00  0.00    +0.210 HD
ENDBRANCH  35  39
BRANCH  34  41
ATOM     41  O   LIG A   1      -8.061   3.827 122.939  0.00  0.00    -0.387 OA
ATOM     42  H   LIG A   1      -7.415   3.476 122.287  0.00  0.00    +0.210 HD
ENDBRANCH  34  41
BRANCH  33  43
ATOM     43  C   LIG A   1      -9.727   1.626 124.165  0.00  0.00    +0.190 C 
BRANCH  43  44
ATOM     44  O   LIG A   1      -8.842   0.919 123.297  0.00  0.00    -0.392 OA
ATOM     45  H   LIG A   1      -8.161   0.513 123.867  0.00  0.00    +0.209 HD
ENDBRANCH  43  44
ENDBRANCH  33  43
ENDBRANCH  30  31
ENDBRANCH  14  30
TORSDOF 13
ENDMDL
