MODEL 1
REMARK VINA RESULT:      -6.3      0.000      0.000
REMARK  Name = NuBBE_1010
REMARK  2 active torsions:
REMARK  status: ('A' for Active; 'I' for Inactive)
REMARK    1  A    between atoms: C_5  and  O_7
REMARK    2  A    between atoms: C_12  and  O_13
REMARK                            x       y       z     vdW  Elec       q    Type
REMARK                         _______ _______ _______ _____ _____    ______ ____
ROOT
ATOM      1  O   LIG A   1      -9.075   5.772 128.375  0.00  0.00    -0.292 OA
ATOM      2  C   LIG A   1      -9.874   6.403 129.059  0.00  0.00    +0.167 C 
ATOM      3  C   LIG A   1      -9.524   6.781 130.479  0.00  0.00    +0.082 C 
ATOM      4  C   LIG A   1     -10.706   6.494 131.379  0.00  0.00    +0.044 C 
ATOM      5  C   LIG A   1     -11.900   7.347 130.969  0.00  0.00    +0.146 C 
ATOM      6  C   LIG A   1     -12.179   7.296 129.483  0.00  0.00    -0.005 A 
ATOM      7  C   LIG A   1     -13.419   7.763 129.008  0.00  0.00    +0.007 A 
ATOM      8  C   LIG A   1     -13.708   7.762 127.645  0.00  0.00    +0.004 A 
ATOM      9  C   LIG A   1     -12.761   7.308 126.733  0.00  0.00    +0.046 A 
ATOM     10  C   LIG A   1     -11.515   6.860 127.184  0.00  0.00    +0.128 A 
ATOM     11  C   LIG A   1     -11.211   6.854 128.555  0.00  0.00    +0.064 A 
ENDROOT
BRANCH   5  12
ATOM     12  O   LIG A   1     -13.031   6.893 131.710  0.00  0.00    -0.387 OA
ATOM     13  H   LIG A   1     -13.812   7.363 131.369  0.00  0.00    +0.210 HD
ENDBRANCH   5  12
BRANCH  10  14
ATOM     14  O   LIG A   1     -10.595   6.463 126.258  0.00  0.00    -0.506 OA
ATOM     15  H   LIG A   1      -9.927   5.893 126.667  0.00  0.00    +0.292 HD
ENDBRANCH  10  14
TORSDOF 2
ENDMDL
MODEL 2
REMARK VINA RESULT:      -5.8      1.311      4.509
REMARK  Name = NuBBE_1010
REMARK  2 active torsions:
REMARK  status: ('A' for Active; 'I' for Inactive)
REMARK    1  A    between atoms: C_5  and  O_7
REMARK    2  A    between atoms: C_12  and  O_13
REMARK                            x       y       z     vdW  Elec       q    Type
REMARK                         _______ _______ _______ _____ _____    ______ ____
ROOT
ATOM      1  O   LIG A   1     -13.188   7.376 131.643  0.00  0.00    -0.292 OA
ATOM      2  C   LIG A   1     -12.467   7.520 130.661  0.00  0.00    +0.167 C 
ATOM      3  C   LIG A   1     -12.778   8.589 129.641  0.00  0.00    +0.082 C 
ATOM      4  C   LIG A   1     -12.644   8.007 128.251  0.00  0.00    +0.044 C 
ATOM      5  C   LIG A   1     -11.210   7.556 128.004  0.00  0.00    +0.146 C 
ATOM      6  C   LIG A   1     -10.658   6.706 129.127  0.00  0.00    -0.005 A 
ATOM      7  C   LIG A   1      -9.485   5.960 128.902  0.00  0.00    +0.007 A 
ATOM      8  C   LIG A   1      -8.925   5.186 129.915  0.00  0.00    +0.004 A 
ATOM      9  C   LIG A   1      -9.517   5.153 131.174  0.00  0.00    +0.046 A 
ATOM     10  C   LIG A   1     -10.670   5.904 131.423  0.00  0.00    +0.128 A 
ATOM     11  C   LIG A   1     -11.247   6.687 130.410  0.00  0.00    +0.064 A 
ENDROOT
BRANCH   5  12
ATOM     12  O   LIG A   1     -11.187   6.839 126.771  0.00  0.00    -0.387 OA
ATOM     13  H   LIG A   1     -11.293   5.895 126.980  0.00  0.00    +0.210 HD
ENDBRANCH   5  12
BRANCH  10  14
ATOM     14  O   LIG A   1     -11.199   5.881 132.681  0.00  0.00    -0.506 OA
ATOM     15  H   LIG A   1     -10.843   6.611 133.211  0.00  0.00    +0.292 HD
ENDBRANCH  10  14
TORSDOF 2
ENDMDL
MODEL 3
REMARK VINA RESULT:      -5.8      1.685      2.460
REMARK  Name = NuBBE_1010
REMARK  2 active torsions:
REMARK  status: ('A' for Active; 'I' for Inactive)
REMARK    1  A    between atoms: C_5  and  O_7
REMARK    2  A    between atoms: C_12  and  O_13
REMARK                            x       y       z     vdW  Elec       q    Type
REMARK                         _______ _______ _______ _____ _____    ______ ____
ROOT
ATOM      1  O   LIG A   1      -9.120   5.426 128.146  0.00  0.00    -0.292 OA
ATOM      2  C   LIG A   1      -9.278   5.729 129.324  0.00  0.00    +0.167 C 
ATOM      3  C   LIG A   1      -8.135   5.595 130.301  0.00  0.00    +0.082 C 
ATOM      4  C   LIG A   1      -8.636   4.943 131.571  0.00  0.00    +0.044 C 
ATOM      5  C   LIG A   1      -9.691   5.821 132.233  0.00  0.00    +0.146 C 
ATOM      6  C   LIG A   1     -10.760   6.287 131.269  0.00  0.00    -0.005 A 
ATOM      7  C   LIG A   1     -11.954   6.825 131.785  0.00  0.00    +0.007 A 
ATOM      8  C   LIG A   1     -12.952   7.294 130.935  0.00  0.00    +0.004 A 
ATOM      9  C   LIG A   1     -12.772   7.245 129.556  0.00  0.00    +0.046 A 
ATOM     10  C   LIG A   1     -11.584   6.734 129.025  0.00  0.00    +0.128 A 
ATOM     11  C   LIG A   1     -10.569   6.257 129.870  0.00  0.00    +0.064 A 
ENDROOT
BRANCH   5  12
ATOM     12  O   LIG A   1     -10.268   5.073 133.302  0.00  0.00    -0.387 OA
ATOM     13  H   LIG A   1     -10.554   4.217 132.938  0.00  0.00    +0.210 HD
ENDBRANCH   5  12
BRANCH  10  14
ATOM     14  O   LIG A   1     -11.424   6.743 127.669  0.00  0.00    -0.506 OA
ATOM     15  H   LIG A   1     -12.221   6.405 127.232  0.00  0.00    +0.292 HD
ENDBRANCH  10  14
TORSDOF 2
ENDMDL
MODEL 4
REMARK VINA RESULT:      -5.7      1.148      3.375
REMARK  Name = NuBBE_1010
REMARK  2 active torsions:
REMARK  status: ('A' for Active; 'I' for Inactive)
REMARK    1  A    between atoms: C_5  and  O_7
REMARK    2  A    between atoms: C_12  and  O_13
REMARK                            x       y       z     vdW  Elec       q    Type
REMARK                         _______ _______ _______ _____ _____    ______ ____
ROOT
ATOM      1  O   LIG A   1     -10.079   6.821 126.881  0.00  0.00    -0.292 OA
ATOM      2  C   LIG A   1     -10.937   7.020 127.734  0.00  0.00    +0.167 C 
ATOM      3  C   LIG A   1     -12.264   7.628 127.348  0.00  0.00    +0.082 C 
ATOM      4  C   LIG A   1     -12.630   8.706 128.345  0.00  0.00    +0.044 C 
ATOM      5  C   LIG A   1     -12.801   8.103 129.734  0.00  0.00    +0.146 C 
ATOM      6  C   LIG A   1     -11.651   7.203 130.132  0.00  0.00    -0.005 A 
ATOM      7  C   LIG A   1     -11.509   6.838 131.484  0.00  0.00    +0.007 A 
ATOM      8  C   LIG A   1     -10.483   5.989 131.891  0.00  0.00    +0.004 A 
ATOM      9  C   LIG A   1      -9.589   5.479 130.954  0.00  0.00    +0.046 A 
ATOM     10  C   LIG A   1      -9.726   5.813 129.604  0.00  0.00    +0.128 A 
ATOM     11  C   LIG A   1     -10.755   6.669 129.179  0.00  0.00    +0.064 A 
ENDROOT
BRANCH   5  12
ATOM     12  O   LIG A   1     -12.942   9.179 130.659  0.00  0.00    -0.387 OA
ATOM     13  H   LIG A   1     -13.852   9.515 130.579  0.00  0.00    +0.210 HD
ENDBRANCH   5  12
BRANCH  10  14
ATOM     14  O   LIG A   1      -8.858   5.259 128.708  0.00  0.00    -0.506 OA
ATOM     15  H   LIG A   1      -9.338   4.913 127.940  0.00  0.00    +0.292 HD
ENDBRANCH  10  14
TORSDOF 2
ENDMDL
MODEL 5
REMARK VINA RESULT:      -5.7     10.623     11.388
REMARK  Name = NuBBE_1010
REMARK  2 active torsions:
REMARK  status: ('A' for Active; 'I' for Inactive)
REMARK    1  A    between atoms: C_5  and  O_7
REMARK    2  A    between atoms: C_12  and  O_13
REMARK                            x       y       z     vdW  Elec       q    Type
REMARK                         _______ _______ _______ _____ _____    ______ ____
ROOT
ATOM      1  O   LIG A   1      -5.210  -1.064 125.187  0.00  0.00    -0.292 OA
ATOM      2  C   LIG A   1      -6.096  -1.900 125.045  0.00  0.00    +0.167 C 
ATOM      3  C   LIG A   1      -6.364  -2.499 123.685  0.00  0.00    +0.082 C 
ATOM      4  C   LIG A   1      -7.857  -2.524 123.436  0.00  0.00    +0.044 C 
ATOM      5  C   LIG A   1      -8.548  -3.414 124.461  0.00  0.00    +0.146 C 
ATOM      6  C   LIG A   1      -8.125  -3.114 125.882  0.00  0.00    -0.005 A 
ATOM      7  C   LIG A   1      -8.900  -3.620 126.943  0.00  0.00    +0.007 A 
ATOM      8  C   LIG A   1      -8.533  -3.393 128.268  0.00  0.00    +0.004 A 
ATOM      9  C   LIG A   1      -7.380  -2.669 128.556  0.00  0.00    +0.046 A 
ATOM     10  C   LIG A   1      -6.586  -2.177 127.516  0.00  0.00    +0.128 A 
ATOM     11  C   LIG A   1      -6.945  -2.396 126.176  0.00  0.00    +0.064 A 
ENDROOT
BRANCH   5  12
ATOM     12  O   LIG A   1      -9.955  -3.241 124.306  0.00  0.00    -0.387 OA
ATOM     13  H   LIG A   1     -10.099  -2.734 123.487  0.00  0.00    +0.210 HD
ENDBRANCH   5  12
BRANCH  10  14
ATOM     14  O   LIG A   1      -5.440  -1.508 127.836  0.00  0.00    -0.506 OA
ATOM     15  H   LIG A   1      -4.769  -2.125 128.167  0.00  0.00    +0.292 HD
ENDBRANCH  10  14
TORSDOF 2
ENDMDL
MODEL 6
REMARK VINA RESULT:      -5.7      2.004      2.164
REMARK  Name = NuBBE_1010
REMARK  2 active torsions:
REMARK  status: ('A' for Active; 'I' for Inactive)
REMARK    1  A    between atoms: C_5  and  O_7
REMARK    2  A    between atoms: C_12  and  O_13
REMARK                            x       y       z     vdW  Elec       q    Type
REMARK                         _______ _______ _______ _____ _____    ______ ____
ROOT
ATOM      1  O   LIG A   1      -8.396   7.906 130.024  0.00  0.00    -0.292 OA
ATOM      2  C   LIG A   1      -9.351   7.197 130.318  0.00  0.00    +0.167 C 
ATOM      3  C   LIG A   1      -9.286   6.299 131.530  0.00  0.00    +0.082 C 
ATOM      4  C   LIG A   1      -9.822   4.931 131.170  0.00  0.00    +0.044 C 
ATOM      5  C   LIG A   1     -11.288   5.029 130.764  0.00  0.00    +0.146 C 
ATOM      6  C   LIG A   1     -11.546   6.123 129.751  0.00  0.00    -0.005 A 
ATOM      7  C   LIG A   1     -12.767   6.126 129.050  0.00  0.00    +0.007 A 
ATOM      8  C   LIG A   1     -13.061   7.130 128.131  0.00  0.00    +0.004 A 
ATOM      9  C   LIG A   1     -12.147   8.155 127.903  0.00  0.00    +0.046 A 
ATOM     10  C   LIG A   1     -10.938   8.181 128.606  0.00  0.00    +0.128 A 
ATOM     11  C   LIG A   1     -10.629   7.175 129.535  0.00  0.00    +0.064 A 
ENDROOT
BRANCH   5  12
ATOM     12  O   LIG A   1     -11.679   3.760 130.245  0.00  0.00    -0.387 OA
ATOM     13  H   LIG A   1     -10.886   3.342 129.865  0.00  0.00    +0.210 HD
ENDBRANCH   5  12
BRANCH  10  14
ATOM     14  O   LIG A   1     -10.086   9.225 128.389  0.00  0.00    -0.506 OA
ATOM     15  H   LIG A   1     -10.137   9.861 129.119  0.00  0.00    +0.292 HD
ENDBRANCH  10  14
TORSDOF 2
ENDMDL
MODEL 7
REMARK VINA RESULT:      -5.6     10.377     11.131
REMARK  Name = NuBBE_1010
REMARK  2 active torsions:
REMARK  status: ('A' for Active; 'I' for Inactive)
REMARK    1  A    between atoms: C_5  and  O_7
REMARK    2  A    between atoms: C_12  and  O_13
REMARK                            x       y       z     vdW  Elec       q    Type
REMARK                         _______ _______ _______ _____ _____    ______ ____
ROOT
ATOM      1  O   LIG A   1     -10.136  -2.849 125.960  0.00  0.00    -0.292 OA
ATOM      2  C   LIG A   1      -8.914  -2.819 126.053  0.00  0.00    +0.167 C 
ATOM      3  C   LIG A   1      -8.243  -3.176 127.357  0.00  0.00    +0.082 C 
ATOM      4  C   LIG A   1      -7.163  -2.160 127.659  0.00  0.00    +0.044 C 
ATOM      5  C   LIG A   1      -6.089  -2.195 126.579  0.00  0.00    +0.146 C 
ATOM      6  C   LIG A   1      -6.660  -2.150 125.178  0.00  0.00    -0.005 A 
ATOM      7  C   LIG A   1      -5.801  -1.854 124.103  0.00  0.00    +0.007 A 
ATOM      8  C   LIG A   1      -6.276  -1.831 122.794  0.00  0.00    +0.004 A 
ATOM      9  C   LIG A   1      -7.614  -2.114 122.534  0.00  0.00    +0.046 A 
ATOM     10  C   LIG A   1      -8.478  -2.431 123.587  0.00  0.00    +0.128 A 
ATOM     11  C   LIG A   1      -8.013  -2.457 124.912  0.00  0.00    +0.064 A 
ENDROOT
BRANCH   5  12
ATOM     12  O   LIG A   1      -5.214  -1.092 126.802  0.00  0.00    -0.387 OA
ATOM     13  H   LIG A   1      -4.335  -1.454 127.012  0.00  0.00    +0.210 HD
ENDBRANCH   5  12
BRANCH  10  14
ATOM     14  O   LIG A   1      -9.772  -2.746 123.290  0.00  0.00    -0.506 OA
ATOM     15  H   LIG A   1      -9.825  -3.633 122.904  0.00  0.00    +0.292 HD
ENDBRANCH  10  14
TORSDOF 2
ENDMDL
MODEL 8
REMARK VINA RESULT:      -5.3      8.691     10.100
REMARK  Name = NuBBE_1010
REMARK  2 active torsions:
REMARK  status: ('A' for Active; 'I' for Inactive)
REMARK    1  A    between atoms: C_5  and  O_7
REMARK    2  A    between atoms: C_12  and  O_13
REMARK                            x       y       z     vdW  Elec       q    Type
REMARK                         _______ _______ _______ _____ _____    ______ ____
ROOT
ATOM      1  O   LIG A   1     -10.059  -2.355 123.213  0.00  0.00    -0.292 OA
ATOM      2  C   LIG A   1      -8.930  -1.896 123.346  0.00  0.00    +0.167 C 
ATOM      3  C   LIG A   1      -7.742  -2.823 123.456  0.00  0.00    +0.082 C 
ATOM      4  C   LIG A   1      -6.845  -2.354 124.580  0.00  0.00    +0.044 C 
ATOM      5  C   LIG A   1      -6.302  -0.963 124.277  0.00  0.00    +0.146 C 
ATOM      6  C   LIG A   1      -7.378   0.009 123.848  0.00  0.00    -0.005 A 
ATOM      7  C   LIG A   1      -7.089   1.387 123.847  0.00  0.00    +0.007 A 
ATOM      8  C   LIG A   1      -8.039   2.317 123.431  0.00  0.00    +0.004 A 
ATOM      9  C   LIG A   1      -9.291   1.887 122.999  0.00  0.00    +0.046 A 
ATOM     10  C   LIG A   1      -9.589   0.521 122.973  0.00  0.00    +0.128 A 
ATOM     11  C   LIG A   1      -8.641  -0.427 123.390  0.00  0.00    +0.064 A 
ENDROOT
BRANCH   5  12
ATOM     12  O   LIG A   1      -5.636  -0.494 125.447  0.00  0.00    -0.387 OA
ATOM     13  H   LIG A   1      -5.723   0.476 125.464  0.00  0.00    +0.210 HD
ENDBRANCH   5  12
BRANCH  10  14
ATOM     14  O   LIG A   1     -10.810   0.134 122.501  0.00  0.00    -0.506 OA
ATOM     15  H   LIG A   1     -11.359  -0.210 123.223  0.00  0.00    +0.292 HD
ENDBRANCH  10  14
TORSDOF 2
ENDMDL
MODEL 9
REMARK VINA RESULT:      -5.2      8.595     10.107
REMARK  Name = NuBBE_1010
REMARK  2 active torsions:
REMARK  status: ('A' for Active; 'I' for Inactive)
REMARK    1  A    between atoms: C_5  and  O_7
REMARK    2  A    between atoms: C_12  and  O_13
REMARK                            x       y       z     vdW  Elec       q    Type
REMARK                         _______ _______ _______ _____ _____    ______ ____
ROOT
ATOM      1  O   LIG A   1      -6.512   1.158 124.923  0.00  0.00    -0.292 OA
ATOM      2  C   LIG A   1      -7.390   0.928 124.099  0.00  0.00    +0.167 C 
ATOM      3  C   LIG A   1      -7.954   2.049 123.259  0.00  0.00    +0.082 C 
ATOM      4  C   LIG A   1      -9.463   1.938 123.224  0.00  0.00    +0.044 C 
ATOM      5  C   LIG A   1      -9.880   0.629 122.565  0.00  0.00    +0.146 C 
ATOM      6  C   LIG A   1      -9.146  -0.571 123.120  0.00  0.00    -0.005 A 
ATOM      7  C   LIG A   1      -9.644  -1.859 122.846  0.00  0.00    +0.007 A 
ATOM      8  C   LIG A   1      -8.985  -2.994 123.312  0.00  0.00    +0.004 A 
ATOM      9  C   LIG A   1      -7.811  -2.865 124.049  0.00  0.00    +0.046 A 
ATOM     10  C   LIG A   1      -7.289  -1.594 124.312  0.00  0.00    +0.128 A 
ATOM     11  C   LIG A   1      -7.944  -0.441 123.850  0.00  0.00    +0.064 A 
ENDROOT
BRANCH   5  12
ATOM     12  O   LIG A   1     -11.288   0.485 122.741  0.00  0.00    -0.387 OA
ATOM     13  H   LIG A   1     -11.714   1.260 122.333  0.00  0.00    +0.210 HD
ENDBRANCH   5  12
BRANCH  10  14
ATOM     14  O   LIG A   1      -6.113  -1.507 125.000  0.00  0.00    -0.506 OA
ATOM     15  H   LIG A   1      -5.830  -0.583 125.071  0.00  0.00    +0.292 HD
ENDBRANCH  10  14
TORSDOF 2
ENDMDL
