MODEL 1
REMARK VINA RESULT:      -3.9      0.000      0.000
REMARK  Name = NuBBE_2124
REMARK  4 active torsions:
REMARK  status: ('A' for Active; 'I' for Inactive)
REMARK    1  A    between atoms: C_2  and  C_3
REMARK    2  A    between atoms: C_3  and  C_4
REMARK    3  A    between atoms: C_4  and  C_5
REMARK    4  A    between atoms: C_5  and  C_6
REMARK                            x       y       z     vdW  Elec       q    Type
REMARK                         _______ _______ _______ _____ _____    ______ ____
ROOT
ATOM      1  C   LIG A   1      -5.559  -2.874 124.410  0.00  0.00    +0.026 C 
ENDROOT
BRANCH   1   3
ATOM      2  C   LIG A   1      -4.328  -4.874 123.517  0.00  0.00    +0.004 C 
ATOM      3  C   LIG A   1      -4.582  -3.559 123.496  0.00  0.00    -0.035 C 
ENDBRANCH   1   3
BRANCH   1   4
ATOM      4  C   LIG A   1      -6.903  -2.630 123.718  0.00  0.00    +0.004 C 
BRANCH   4   5
ATOM      5  C   LIG A   1      -7.995  -3.540 124.286  0.00  0.00    -0.003 C 
ATOM      6  C   LIG A   1      -9.344  -3.258 123.644  0.00  0.00    +0.004 C 
ENDBRANCH   4   5
ENDBRANCH   1   4
TORSDOF 3
ENDMDL
MODEL 2
REMARK VINA RESULT:      -3.7     14.160     15.499
REMARK  Name = NuBBE_2124
REMARK  4 active torsions:
REMARK  status: ('A' for Active; 'I' for Inactive)
REMARK    1  A    between atoms: C_2  and  C_3
REMARK    2  A    between atoms: C_3  and  C_4
REMARK    3  A    between atoms: C_4  and  C_5
REMARK    4  A    between atoms: C_5  and  C_6
REMARK                            x       y       z     vdW  Elec       q    Type
REMARK                         _______ _______ _______ _____ _____    ______ ____
ROOT
ATOM      1  C   LIG A   1     -12.788   9.310 129.468  0.00  0.00    +0.026 C 
ENDROOT
BRANCH   1   3
ATOM      2  C   LIG A   1     -13.597  11.559 130.241  0.00  0.00    +0.004 C 
ATOM      3  C   LIG A   1     -13.556  10.592 129.315  0.00  0.00    -0.035 C 
ENDBRANCH   1   3
BRANCH   1   4
ATOM      4  C   LIG A   1     -13.093   8.330 128.333  0.00  0.00    +0.004 C 
BRANCH   4   5
ATOM      5  C   LIG A   1     -11.838   8.012 127.518  0.00  0.00    -0.003 C 
ATOM      6  C   LIG A   1     -10.580   8.507 128.215  0.00  0.00    +0.004 C 
ENDBRANCH   4   5
ENDBRANCH   1   4
TORSDOF 3
ENDMDL
MODEL 3
REMARK VINA RESULT:      -3.7      0.835      3.770
REMARK  Name = NuBBE_2124
REMARK  4 active torsions:
REMARK  status: ('A' for Active; 'I' for Inactive)
REMARK    1  A    between atoms: C_2  and  C_3
REMARK    2  A    between atoms: C_3  and  C_4
REMARK    3  A    between atoms: C_4  and  C_5
REMARK    4  A    between atoms: C_5  and  C_6
REMARK                            x       y       z     vdW  Elec       q    Type
REMARK                         _______ _______ _______ _____ _____    ______ ____
ROOT
ATOM      1  C   LIG A   1      -7.034  -2.003 122.946  0.00  0.00    +0.026 C 
ENDROOT
BRANCH   1   3
ATOM      2  C   LIG A   1      -9.153  -3.196 123.576  0.00  0.00    +0.004 C 
ATOM      3  C   LIG A   1      -8.518  -2.231 122.898  0.00  0.00    -0.035 C 
ENDBRANCH   1   3
BRANCH   1   4
ATOM      4  C   LIG A   1      -6.349  -2.951 123.933  0.00  0.00    +0.004 C 
BRANCH   4   5
ATOM      5  C   LIG A   1      -4.869  -3.136 123.592  0.00  0.00    -0.003 C 
ATOM      6  C   LIG A   1      -4.464  -4.601 123.639  0.00  0.00    +0.004 C 
ENDBRANCH   4   5
ENDBRANCH   1   4
TORSDOF 3
ENDMDL
MODEL 4
REMARK VINA RESULT:      -3.6     12.563     13.793
REMARK  Name = NuBBE_2124
REMARK  4 active torsions:
REMARK  status: ('A' for Active; 'I' for Inactive)
REMARK    1  A    between atoms: C_2  and  C_3
REMARK    2  A    between atoms: C_3  and  C_4
REMARK    3  A    between atoms: C_4  and  C_5
REMARK    4  A    between atoms: C_5  and  C_6
REMARK                            x       y       z     vdW  Elec       q    Type
REMARK                         _______ _______ _______ _____ _____    ______ ____
ROOT
ATOM      1  C   LIG A   1     -13.456   7.364 127.894  0.00  0.00    +0.026 C 
ENDROOT
BRANCH   1   3
ATOM      2  C   LIG A   1     -11.314   7.464 126.585  0.00  0.00    +0.004 C 
ATOM      3  C   LIG A   1     -12.578   7.042 126.718  0.00  0.00    -0.035 C 
ENDBRANCH   1   3
BRANCH   1   4
ATOM      4  C   LIG A   1     -13.167   8.762 128.447  0.00  0.00    +0.004 C 
BRANCH   4   5
ATOM      5  C   LIG A   1     -12.657   8.696 129.888  0.00  0.00    -0.003 C 
ATOM      6  C   LIG A   1     -12.845   7.310 130.484  0.00  0.00    +0.004 C 
ENDBRANCH   4   5
ENDBRANCH   1   4
TORSDOF 3
ENDMDL
MODEL 5
REMARK VINA RESULT:      -3.6     14.298     15.414
REMARK  Name = NuBBE_2124
REMARK  4 active torsions:
REMARK  status: ('A' for Active; 'I' for Inactive)
REMARK    1  A    between atoms: C_2  and  C_3
REMARK    2  A    between atoms: C_3  and  C_4
REMARK    3  A    between atoms: C_4  and  C_5
REMARK    4  A    between atoms: C_5  and  C_6
REMARK                            x       y       z     vdW  Elec       q    Type
REMARK                         _______ _______ _______ _____ _____    ______ ____
ROOT
ATOM      1  C   LIG A   1     -12.929   7.752 129.369  0.00  0.00    +0.026 C 
ENDROOT
BRANCH   1   3
ATOM      2  C   LIG A   1     -12.054   6.764 131.506  0.00  0.00    +0.004 C 
ATOM      3  C   LIG A   1     -12.845   7.634 130.864  0.00  0.00    -0.035 C 
ENDBRANCH   1   3
BRANCH   1   4
ATOM      4  C   LIG A   1     -13.015   9.214 128.922  0.00  0.00    +0.004 C 
BRANCH   4   5
ATOM      5  C   LIG A   1     -13.173  10.154 130.119  0.00  0.00    -0.003 C 
ATOM      6  C   LIG A   1     -13.838  11.462 129.717  0.00  0.00    +0.004 C 
ENDBRANCH   4   5
ENDBRANCH   1   4
TORSDOF 3
ENDMDL
MODEL 6
REMARK VINA RESULT:      -3.5     12.941     13.973
REMARK  Name = NuBBE_2124
REMARK  4 active torsions:
REMARK  status: ('A' for Active; 'I' for Inactive)
REMARK    1  A    between atoms: C_2  and  C_3
REMARK    2  A    between atoms: C_3  and  C_4
REMARK    3  A    between atoms: C_4  and  C_5
REMARK    4  A    between atoms: C_5  and  C_6
REMARK                            x       y       z     vdW  Elec       q    Type
REMARK                         _______ _______ _______ _____ _____    ______ ____
ROOT
ATOM      1  C   LIG A   1     -12.488   8.895 128.512  0.00  0.00    +0.026 C 
ENDROOT
BRANCH   1   3
ATOM      2  C   LIG A   1     -10.913   7.766 126.913  0.00  0.00    +0.004 C 
ATOM      3  C   LIG A   1     -11.133   8.438 128.050  0.00  0.00    -0.035 C 
ENDBRANCH   1   3
BRANCH   1   4
ATOM      4  C   LIG A   1     -12.675   8.676 130.015  0.00  0.00    +0.004 C 
BRANCH   4   5
ATOM      5  C   LIG A   1     -12.898   7.197 130.339  0.00  0.00    -0.003 C 
ATOM      6  C   LIG A   1     -12.033   6.744 131.505  0.00  0.00    +0.004 C 
ENDBRANCH   4   5
ENDBRANCH   1   4
TORSDOF 3
ENDMDL
MODEL 7
REMARK VINA RESULT:      -3.5     12.928     13.959
REMARK  Name = NuBBE_2124
REMARK  4 active torsions:
REMARK  status: ('A' for Active; 'I' for Inactive)
REMARK    1  A    between atoms: C_2  and  C_3
REMARK    2  A    between atoms: C_3  and  C_4
REMARK    3  A    between atoms: C_4  and  C_5
REMARK    4  A    between atoms: C_5  and  C_6
REMARK                            x       y       z     vdW  Elec       q    Type
REMARK                         _______ _______ _______ _____ _____    ______ ____
ROOT
ATOM      1  C   LIG A   1     -12.713   8.231 129.666  0.00  0.00    +0.026 C 
ENDROOT
BRANCH   1   3
ATOM      2  C   LIG A   1     -12.081   6.645 131.509  0.00  0.00    +0.004 C 
ATOM      3  C   LIG A   1     -12.925   7.543 130.985  0.00  0.00    -0.035 C 
ENDBRANCH   1   3
BRANCH   1   4
ATOM      4  C   LIG A   1     -13.270   7.407 128.503  0.00  0.00    +0.004 C 
BRANCH   4   5
ATOM      5  C   LIG A   1     -12.287   7.361 127.331  0.00  0.00    -0.003 C 
ATOM      6  C   LIG A   1     -11.069   8.235 127.590  0.00  0.00    +0.004 C 
ENDBRANCH   4   5
ENDBRANCH   1   4
TORSDOF 3
ENDMDL
MODEL 8
REMARK VINA RESULT:      -3.5      1.768      2.240
REMARK  Name = NuBBE_2124
REMARK  4 active torsions:
REMARK  status: ('A' for Active; 'I' for Inactive)
REMARK    1  A    between atoms: C_2  and  C_3
REMARK    2  A    between atoms: C_3  and  C_4
REMARK    3  A    between atoms: C_4  and  C_5
REMARK    4  A    between atoms: C_5  and  C_6
REMARK                            x       y       z     vdW  Elec       q    Type
REMARK                         _______ _______ _______ _____ _____    ______ ____
ROOT
ATOM      1  C   LIG A   1      -5.896  -2.950 123.733  0.00  0.00    +0.026 C 
ENDROOT
BRANCH   1   3
ATOM      2  C   LIG A   1      -4.284  -4.865 123.522  0.00  0.00    +0.004 C 
ATOM      3  C   LIG A   1      -4.544  -3.552 123.475  0.00  0.00    -0.035 C 
ENDBRANCH   1   3
BRANCH   1   4
ATOM      4  C   LIG A   1      -6.282  -1.941 122.647  0.00  0.00    +0.004 C 
BRANCH   4   5
ATOM      5  C   LIG A   1      -6.863  -0.663 123.255  0.00  0.00    -0.003 C 
ATOM      6  C   LIG A   1      -6.477  -0.515 124.719  0.00  0.00    +0.004 C 
ENDBRANCH   4   5
ENDBRANCH   1   4
TORSDOF 3
ENDMDL
MODEL 9
REMARK VINA RESULT:      -3.4      3.127      4.400
REMARK  Name = NuBBE_2124
REMARK  4 active torsions:
REMARK  status: ('A' for Active; 'I' for Inactive)
REMARK    1  A    between atoms: C_2  and  C_3
REMARK    2  A    between atoms: C_3  and  C_4
REMARK    3  A    between atoms: C_4  and  C_5
REMARK    4  A    between atoms: C_5  and  C_6
REMARK                            x       y       z     vdW  Elec       q    Type
REMARK                         _______ _______ _______ _____ _____    ______ ____
ROOT
ATOM      1  C   LIG A   1      -8.362  -2.679 127.135  0.00  0.00    +0.026 C 
ENDROOT
BRANCH   1   3
ATOM      2  C   LIG A   1      -7.711  -3.404 129.451  0.00  0.00    +0.004 C 
ATOM      3  C   LIG A   1      -8.552  -3.452 128.410  0.00  0.00    -0.035 C 
ENDBRANCH   1   3
BRANCH   1   4
ATOM      4  C   LIG A   1      -9.321  -3.151 126.040  0.00  0.00    +0.004 C 
BRANCH   4   5
ATOM      5  C   LIG A   1      -8.568  -3.527 124.763  0.00  0.00    -0.003 C 
ATOM      6  C   LIG A   1      -9.387  -3.217 123.520  0.00  0.00    +0.004 C 
ENDBRANCH   4   5
ENDBRANCH   1   4
TORSDOF 3
ENDMDL
