MODEL 1
REMARK VINA RESULT:      -7.4      0.000      0.000
REMARK  Name = NuBBE_1188
REMARK  6 active torsions:
REMARK  status: ('A' for Active; 'I' for Inactive)
REMARK    1  A    between atoms: C_3  and  C_4
REMARK    2  A    between atoms: C_7  and  O_8
REMARK    3  A    between atoms: O_8  and  C_9
REMARK    4  A    between atoms: C_17  and  O_18
REMARK    5  A    between atoms: C_19  and  O_20
REMARK    6  A    between atoms: O_20  and  C_21
REMARK                            x       y       z     vdW  Elec       q    Type
REMARK                         _______ _______ _______ _____ _____    ______ ____
ROOT
ATOM      1  O   LIG A   1     -11.139   3.937 130.053  0.00  0.00    -0.286 OA
ATOM      2  C   LIG A   1     -10.355   4.339 130.900  0.00  0.00    +0.200 A 
ATOM      3  C   LIG A   1     -10.213   5.783 131.276  0.00  0.00    +0.064 A 
ATOM      4  C   LIG A   1      -9.315   6.072 132.231  0.00  0.00    +0.208 A 
ATOM      5  O   LIG A   1      -8.528   5.190 132.920  0.00  0.00    -0.462 OA
ATOM      6  C   LIG A   1      -9.492   3.388 131.619  0.00  0.00    +0.068 A 
ATOM      7  C   LIG A   1      -8.632   3.866 132.596  0.00  0.00    +0.142 A 
ATOM      8  C   LIG A   1      -7.820   2.990 133.304  0.00  0.00    +0.096 A 
ATOM      9  C   LIG A   1      -7.860   1.623 133.020  0.00  0.00    +0.162 A 
ATOM     10  C   LIG A   1      -8.711   1.124 132.024  0.00  0.00    +0.162 A 
ATOM     11  C   LIG A   1      -9.534   2.019 131.327  0.00  0.00    +0.064 A 
ENDROOT
BRANCH   3  12
ATOM     12  C   LIG A   1     -10.997   6.858 130.636  0.00  0.00    -0.011 A 
ATOM     13  C   LIG A   1     -10.521   7.493 129.482  0.00  0.00    +0.012 A 
ATOM     14  C   LIG A   1     -11.269   8.482 128.843  0.00  0.00    +0.046 A 
ATOM     15  C   LIG A   1     -12.503   8.872 129.355  0.00  0.00    +0.120 A 
ATOM     16  C   LIG A   1     -12.984   8.263 130.512  0.00  0.00    +0.046 A 
ATOM     17  C   LIG A   1     -12.243   7.261 131.143  0.00  0.00    +0.012 A 
BRANCH  15  18
ATOM     18  O   LIG A   1     -13.323   9.824 128.815  0.00  0.00    -0.495 OA
ATOM     19  C   LIG A   1     -13.590  10.951 129.642  0.00  0.00    +0.277 C 
ENDBRANCH  15  18
ENDBRANCH   3  12
BRANCH   9  20
ATOM     20  O   LIG A   1      -7.043   0.805 133.748  0.00  0.00    -0.503 OA
ATOM     21  H   LIG A   1      -7.250  -0.122 133.548  0.00  0.00    +0.292 HD
ENDBRANCH   9  20
BRANCH  10  22
ATOM     22  O   LIG A   1      -8.861  -0.176 131.619  0.00  0.00    -0.491 OA
ATOM     23  C   LIG A   1      -7.975  -0.659 130.619  0.00  0.00    +0.277 C 
ENDBRANCH  10  22
TORSDOF 4
ENDMDL
MODEL 2
REMARK VINA RESULT:      -7.3      1.044      2.485
REMARK  Name = NuBBE_1188
REMARK  6 active torsions:
REMARK  status: ('A' for Active; 'I' for Inactive)
REMARK    1  A    between atoms: C_3  and  C_4
REMARK    2  A    between atoms: C_7  and  O_8
REMARK    3  A    between atoms: O_8  and  C_9
REMARK    4  A    between atoms: C_17  and  O_18
REMARK    5  A    between atoms: C_19  and  O_20
REMARK    6  A    between atoms: O_20  and  C_21
REMARK                            x       y       z     vdW  Elec       q    Type
REMARK                         _______ _______ _______ _____ _____    ______ ____
ROOT
ATOM      1  O   LIG A   1      -9.302   6.482 132.440  0.00  0.00    -0.286 OA
ATOM      2  C   LIG A   1      -9.746   5.490 131.881  0.00  0.00    +0.200 A 
ATOM      3  C   LIG A   1     -10.832   5.537 130.850  0.00  0.00    +0.064 A 
ATOM      4  C   LIG A   1     -11.210   4.365 130.317  0.00  0.00    +0.208 A 
ATOM      5  O   LIG A   1     -10.696   3.126 130.594  0.00  0.00    -0.462 OA
ATOM      6  C   LIG A   1      -9.207   4.158 132.203  0.00  0.00    +0.068 A 
ATOM      7  C   LIG A   1      -9.706   3.051 131.534  0.00  0.00    +0.142 A 
ATOM      8  C   LIG A   1      -9.203   1.785 131.803  0.00  0.00    +0.096 A 
ATOM      9  C   LIG A   1      -8.199   1.625 132.760  0.00  0.00    +0.162 A 
ATOM     10  C   LIG A   1      -7.694   2.731 133.459  0.00  0.00    +0.162 A 
ATOM     11  C   LIG A   1      -8.203   4.004 133.167  0.00  0.00    +0.064 A 
ENDROOT
BRANCH   3  12
ATOM     12  C   LIG A   1     -11.484   6.793 130.431  0.00  0.00    -0.011 A 
ATOM     13  C   LIG A   1     -11.100   7.432 129.246  0.00  0.00    +0.012 A 
ATOM     14  C   LIG A   1     -11.735   8.598 128.817  0.00  0.00    +0.046 A 
ATOM     15  C   LIG A   1     -12.759   9.162 129.574  0.00  0.00    +0.120 A 
ATOM     16  C   LIG A   1     -13.142   8.549 130.765  0.00  0.00    +0.046 A 
ATOM     17  C   LIG A   1     -12.517   7.372 131.187  0.00  0.00    +0.012 A 
BRANCH  15  18
ATOM     18  O   LIG A   1     -13.453  10.295 129.253  0.00  0.00    -0.495 OA
ATOM     19  C   LIG A   1     -13.545  11.275 130.280  0.00  0.00    +0.277 C 
ENDBRANCH  15  18
ENDBRANCH   3  12
BRANCH   9  20
ATOM     20  O   LIG A   1      -7.738   0.358 132.984  0.00  0.00    -0.503 OA
ATOM     21  H   LIG A   1      -6.827   0.398 133.317  0.00  0.00    +0.292 HD
ENDBRANCH   9  20
BRANCH  10  22
ATOM     22  O   LIG A   1      -6.727   2.745 134.427  0.00  0.00    -0.491 OA
ATOM     23  C   LIG A   1      -6.381   4.001 134.993  0.00  0.00    +0.277 C 
ENDBRANCH  10  22
TORSDOF 4
ENDMDL
MODEL 3
REMARK VINA RESULT:      -7.2      4.515      7.901
REMARK  Name = NuBBE_1188
REMARK  6 active torsions:
REMARK  status: ('A' for Active; 'I' for Inactive)
REMARK    1  A    between atoms: C_3  and  C_4
REMARK    2  A    between atoms: C_7  and  O_8
REMARK    3  A    between atoms: O_8  and  C_9
REMARK    4  A    between atoms: C_17  and  O_18
REMARK    5  A    between atoms: C_19  and  O_20
REMARK    6  A    between atoms: O_20  and  C_21
REMARK                            x       y       z     vdW  Elec       q    Type
REMARK                         _______ _______ _______ _____ _____    ______ ____
ROOT
ATOM      1  O   LIG A   1      -6.274   7.443 130.316  0.00  0.00    -0.286 OA
ATOM      2  C   LIG A   1      -6.754   6.826 131.256  0.00  0.00    +0.200 A 
ATOM      3  C   LIG A   1      -5.932   6.216 132.350  0.00  0.00    +0.064 A 
ATOM      4  C   LIG A   1      -6.601   5.576 133.322  0.00  0.00    +0.208 A 
ATOM      5  O   LIG A   1      -7.958   5.437 133.438  0.00  0.00    -0.462 OA
ATOM      6  C   LIG A   1      -8.212   6.657 131.361  0.00  0.00    +0.068 A 
ATOM      7  C   LIG A   1      -8.734   5.979 132.452  0.00  0.00    +0.142 A 
ATOM      8  C   LIG A   1     -10.107   5.821 132.588  0.00  0.00    +0.096 A 
ATOM      9  C   LIG A   1     -10.965   6.336 131.614  0.00  0.00    +0.162 A 
ATOM     10  C   LIG A   1     -10.455   7.010 130.495  0.00  0.00    +0.162 A 
ATOM     11  C   LIG A   1      -9.067   7.172 130.379  0.00  0.00    +0.064 A 
ENDROOT
BRANCH   3  12
ATOM     12  C   LIG A   1      -4.458   6.286 132.378  0.00  0.00    -0.011 A 
ATOM     13  C   LIG A   1      -3.690   5.398 131.617  0.00  0.00    +0.012 A 
ATOM     14  C   LIG A   1      -2.297   5.478 131.602  0.00  0.00    +0.046 A 
ATOM     15  C   LIG A   1      -1.639   6.439 132.365  0.00  0.00    +0.120 A 
ATOM     16  C   LIG A   1      -2.388   7.321 133.142  0.00  0.00    +0.046 A 
ATOM     17  C   LIG A   1      -3.783   7.251 133.145  0.00  0.00    +0.012 A 
BRANCH  15  18
ATOM     18  O   LIG A   1      -0.285   6.615 132.427  0.00  0.00    -0.495 OA
ATOM     19  C   LIG A   1       0.174   7.551 133.396  0.00  0.00    +0.277 C 
ENDBRANCH  15  18
ENDBRANCH   3  12
BRANCH   9  20
ATOM     20  O   LIG A   1     -12.307   6.156 131.798  0.00  0.00    -0.503 OA
ATOM     21  H   LIG A   1     -12.796   6.630 131.107  0.00  0.00    +0.292 HD
ENDBRANCH   9  20
BRANCH  10  22
ATOM     22  O   LIG A   1     -11.153   7.561 129.454  0.00  0.00    -0.491 OA
ATOM     23  C   LIG A   1     -10.417   8.294 128.485  0.00  0.00    +0.277 C 
ENDBRANCH  10  22
TORSDOF 4
ENDMDL
MODEL 4
REMARK VINA RESULT:      -7.0      8.675     11.410
REMARK  Name = NuBBE_1188
REMARK  6 active torsions:
REMARK  status: ('A' for Active; 'I' for Inactive)
REMARK    1  A    between atoms: C_3  and  C_4
REMARK    2  A    between atoms: C_7  and  O_8
REMARK    3  A    between atoms: O_8  and  C_9
REMARK    4  A    between atoms: C_17  and  O_18
REMARK    5  A    between atoms: C_19  and  O_20
REMARK    6  A    between atoms: O_20  and  C_21
REMARK                            x       y       z     vdW  Elec       q    Type
REMARK                         _______ _______ _______ _____ _____    ______ ____
ROOT
ATOM      1  O   LIG A   1      -5.772  -1.799 128.128  0.00  0.00    -0.286 OA
ATOM      2  C   LIG A   1      -6.818  -2.391 127.907  0.00  0.00    +0.200 A 
ATOM      3  C   LIG A   1      -7.477  -3.303 128.896  0.00  0.00    +0.064 A 
ATOM      4  C   LIG A   1      -8.628  -3.877 128.512  0.00  0.00    +0.208 A 
ATOM      5  O   LIG A   1      -9.284  -3.703 127.323  0.00  0.00    -0.462 OA
ATOM      6  C   LIG A   1      -7.503  -2.220 126.615  0.00  0.00    +0.068 A 
ATOM      7  C   LIG A   1      -8.703  -2.879 126.398  0.00  0.00    +0.142 A 
ATOM      8  C   LIG A   1      -9.382  -2.722 125.197  0.00  0.00    +0.096 A 
ATOM      9  C   LIG A   1      -8.846  -1.907 124.199  0.00  0.00    +0.162 A 
ATOM     10  C   LIG A   1      -7.625  -1.246 124.393  0.00  0.00    +0.162 A 
ATOM     11  C   LIG A   1      -6.958  -1.405 125.615  0.00  0.00    +0.064 A 
ENDROOT
BRANCH   3  12
ATOM     12  C   LIG A   1      -6.906  -3.588 130.226  0.00  0.00    -0.011 A 
ATOM     13  C   LIG A   1      -7.368  -2.905 131.358  0.00  0.00    +0.012 A 
ATOM     14  C   LIG A   1      -6.866  -3.193 132.628  0.00  0.00    +0.046 A 
ATOM     15  C   LIG A   1      -5.877  -4.160 132.792  0.00  0.00    +0.120 A 
ATOM     16  C   LIG A   1      -5.394  -4.837 131.674  0.00  0.00    +0.046 A 
ATOM     17  C   LIG A   1      -5.908  -4.560 130.404  0.00  0.00    +0.012 A 
BRANCH  15  18
ATOM     18  O   LIG A   1      -5.315  -4.527 133.983  0.00  0.00    -0.495 OA
ATOM     19  C   LIG A   1      -5.909  -5.649 134.626  0.00  0.00    +0.277 C 
ENDBRANCH  15  18
ENDBRANCH   3  12
BRANCH   9  20
ATOM     20  O   LIG A   1      -9.556  -1.784 123.037  0.00  0.00    -0.503 OA
ATOM     21  H   LIG A   1      -9.106  -1.161 122.445  0.00  0.00    +0.292 HD
ENDBRANCH   9  20
BRANCH  10  22
ATOM     22  O   LIG A   1      -6.963  -0.427 123.518  0.00  0.00    -0.491 OA
ATOM     23  C   LIG A   1      -7.188   0.972 123.629  0.00  0.00    +0.277 C 
ENDBRANCH  10  22
TORSDOF 4
ENDMDL
MODEL 5
REMARK VINA RESULT:      -6.9      8.695     11.379
REMARK  Name = NuBBE_1188
REMARK  6 active torsions:
REMARK  status: ('A' for Active; 'I' for Inactive)
REMARK    1  A    between atoms: C_3  and  C_4
REMARK    2  A    between atoms: C_7  and  O_8
REMARK    3  A    between atoms: O_8  and  C_9
REMARK    4  A    between atoms: C_17  and  O_18
REMARK    5  A    between atoms: C_19  and  O_20
REMARK    6  A    between atoms: O_20  and  C_21
REMARK                            x       y       z     vdW  Elec       q    Type
REMARK                         _______ _______ _______ _____ _____    ______ ____
ROOT
ATOM      1  O   LIG A   1      -5.743  -1.832 128.163  0.00  0.00    -0.286 OA
ATOM      2  C   LIG A   1      -6.797  -2.407 127.934  0.00  0.00    +0.200 A 
ATOM      3  C   LIG A   1      -7.475  -3.314 128.915  0.00  0.00    +0.064 A 
ATOM      4  C   LIG A   1      -8.633  -3.868 128.523  0.00  0.00    +0.208 A 
ATOM      5  O   LIG A   1      -9.280  -3.679 127.331  0.00  0.00    -0.462 OA
ATOM      6  C   LIG A   1      -7.473  -2.220 126.640  0.00  0.00    +0.068 A 
ATOM      7  C   LIG A   1      -8.682  -2.860 126.414  0.00  0.00    +0.142 A 
ATOM      8  C   LIG A   1      -9.353  -2.686 125.210  0.00  0.00    +0.096 A 
ATOM      9  C   LIG A   1      -8.800  -1.875 124.218  0.00  0.00    +0.162 A 
ATOM     10  C   LIG A   1      -7.570  -1.233 124.422  0.00  0.00    +0.162 A 
ATOM     11  C   LIG A   1      -6.911  -1.408 125.647  0.00  0.00    +0.064 A 
ENDROOT
BRANCH   3  12
ATOM     12  C   LIG A   1      -6.915  -3.614 130.247  0.00  0.00    -0.011 A 
ATOM     13  C   LIG A   1      -5.915  -4.583 130.395  0.00  0.00    +0.012 A 
ATOM     14  C   LIG A   1      -5.348  -4.849 131.642  0.00  0.00    +0.046 A 
ATOM     15  C   LIG A   1      -5.782  -4.163 132.774  0.00  0.00    +0.120 A 
ATOM     16  C   LIG A   1      -6.788  -3.208 132.647  0.00  0.00    +0.046 A 
ATOM     17  C   LIG A   1      -7.345  -2.930 131.396  0.00  0.00    +0.012 A 
BRANCH  15  18
ATOM     18  O   LIG A   1      -5.300  -4.336 134.041  0.00  0.00    -0.495 OA
ATOM     19  C   LIG A   1      -5.646  -5.563 134.672  0.00  0.00    +0.277 C 
ENDBRANCH  15  18
ENDBRANCH   3  12
BRANCH   9  20
ATOM     20  O   LIG A   1      -9.502  -1.736 123.054  0.00  0.00    -0.503 OA
ATOM     21  H   LIG A   1     -10.161  -1.030 123.154  0.00  0.00    +0.292 HD
ENDBRANCH   9  20
BRANCH  10  22
ATOM     22  O   LIG A   1      -6.891  -0.420 123.554  0.00  0.00    -0.491 OA
ATOM     23  C   LIG A   1      -7.213   0.964 123.562  0.00  0.00    +0.277 C 
ENDBRANCH  10  22
TORSDOF 4
ENDMDL
MODEL 6
REMARK VINA RESULT:      -6.6      7.393     10.497
REMARK  Name = NuBBE_1188
REMARK  6 active torsions:
REMARK  status: ('A' for Active; 'I' for Inactive)
REMARK    1  A    between atoms: C_3  and  C_4
REMARK    2  A    between atoms: C_7  and  O_8
REMARK    3  A    between atoms: O_8  and  C_9
REMARK    4  A    between atoms: C_17  and  O_18
REMARK    5  A    between atoms: C_19  and  O_20
REMARK    6  A    between atoms: O_20  and  C_21
REMARK                            x       y       z     vdW  Elec       q    Type
REMARK                         _______ _______ _______ _____ _____    ______ ____
ROOT
ATOM      1  O   LIG A   1      -6.029   0.765 125.968  0.00  0.00    -0.286 OA
ATOM      2  C   LIG A   1      -7.185   0.744 125.571  0.00  0.00    +0.200 A 
ATOM      3  C   LIG A   1      -8.262  -0.082 126.206  0.00  0.00    +0.064 A 
ATOM      4  C   LIG A   1      -9.487   0.005 125.664  0.00  0.00    +0.208 A 
ATOM      5  O   LIG A   1      -9.870   0.786 124.607  0.00  0.00    -0.462 OA
ATOM      6  C   LIG A   1      -7.584   1.566 124.417  0.00  0.00    +0.068 A 
ATOM      7  C   LIG A   1      -8.908   1.548 124.005  0.00  0.00    +0.142 A 
ATOM      8  C   LIG A   1      -9.318   2.328 122.932  0.00  0.00    +0.096 A 
ATOM      9  C   LIG A   1      -8.390   3.124 122.257  0.00  0.00    +0.162 A 
ATOM     10  C   LIG A   1      -7.044   3.142 122.649  0.00  0.00    +0.162 A 
ATOM     11  C   LIG A   1      -6.648   2.358 123.742  0.00  0.00    +0.064 A 
ENDROOT
BRANCH   3  12
ATOM     12  C   LIG A   1      -8.016  -0.969 127.359  0.00  0.00    -0.011 A 
ATOM     13  C   LIG A   1      -8.188  -2.354 127.240  0.00  0.00    +0.012 A 
ATOM     14  C   LIG A   1      -7.921  -3.208 128.310  0.00  0.00    +0.046 A 
ATOM     15  C   LIG A   1      -7.492  -2.694 129.531  0.00  0.00    +0.120 A 
ATOM     16  C   LIG A   1      -7.332  -1.317 129.673  0.00  0.00    +0.046 A 
ATOM     17  C   LIG A   1      -7.584  -0.463 128.596  0.00  0.00    +0.012 A 
BRANCH  15  18
ATOM     18  O   LIG A   1      -7.197  -3.432 130.644  0.00  0.00    -0.495 OA
ATOM     19  C   LIG A   1      -7.254  -2.732 131.882  0.00  0.00    +0.277 C 
ENDBRANCH  15  18
ENDBRANCH   3  12
BRANCH   9  20
ATOM     20  O   LIG A   1      -8.846   3.874 121.210  0.00  0.00    -0.503 OA
ATOM     21  H   LIG A   1      -9.409   4.590 121.544  0.00  0.00    +0.292 HD
ENDBRANCH   9  20
BRANCH  10  22
ATOM     22  O   LIG A   1      -6.014   3.851 122.091  0.00  0.00    -0.491 OA
ATOM     23  C   LIG A   1      -5.412   3.324 120.918  0.00  0.00    +0.277 C 
ENDBRANCH  10  22
TORSDOF 4
ENDMDL
MODEL 7
REMARK VINA RESULT:      -6.5      7.399      8.680
REMARK  Name = NuBBE_1188
REMARK  6 active torsions:
REMARK  status: ('A' for Active; 'I' for Inactive)
REMARK    1  A    between atoms: C_3  and  C_4
REMARK    2  A    between atoms: C_7  and  O_8
REMARK    3  A    between atoms: O_8  and  C_9
REMARK    4  A    between atoms: C_17  and  O_18
REMARK    5  A    between atoms: C_19  and  O_20
REMARK    6  A    between atoms: O_20  and  C_21
REMARK                            x       y       z     vdW  Elec       q    Type
REMARK                         _______ _______ _______ _____ _____    ______ ____
ROOT
ATOM      1  O   LIG A   1      -7.763   4.253 125.084  0.00  0.00    -0.286 OA
ATOM      2  C   LIG A   1      -7.701   3.032 125.049  0.00  0.00    +0.200 A 
ATOM      3  C   LIG A   1      -7.527   2.249 123.783  0.00  0.00    +0.064 A 
ATOM      4  C   LIG A   1      -7.466   0.914 123.904  0.00  0.00    +0.208 A 
ATOM      5  O   LIG A   1      -7.521   0.184 125.061  0.00  0.00    -0.462 OA
ATOM      6  C   LIG A   1      -7.787   2.253 126.295  0.00  0.00    +0.068 A 
ATOM      7  C   LIG A   1      -7.684   0.872 126.232  0.00  0.00    +0.142 A 
ATOM      8  C   LIG A   1      -7.743   0.111 127.392  0.00  0.00    +0.096 A 
ATOM      9  C   LIG A   1      -7.920   0.740 128.626  0.00  0.00    +0.162 A 
ATOM     10  C   LIG A   1      -8.044   2.134 128.708  0.00  0.00    +0.162 A 
ATOM     11  C   LIG A   1      -7.970   2.889 127.529  0.00  0.00    +0.064 A 
ENDROOT
BRANCH   3  12
ATOM     12  C   LIG A   1      -7.440   2.885 122.454  0.00  0.00    -0.011 A 
ATOM     13  C   LIG A   1      -8.602   3.211 121.745  0.00  0.00    +0.012 A 
ATOM     14  C   LIG A   1      -8.536   3.849 120.506  0.00  0.00    +0.046 A 
ATOM     15  C   LIG A   1      -7.302   4.158 119.938  0.00  0.00    +0.120 A 
ATOM     16  C   LIG A   1      -6.135   3.825 120.623  0.00  0.00    +0.046 A 
ATOM     17  C   LIG A   1      -6.202   3.201 121.871  0.00  0.00    +0.012 A 
BRANCH  15  18
ATOM     18  O   LIG A   1      -7.114   4.782 118.737  0.00  0.00    -0.495 OA
ATOM     19  C   LIG A   1      -5.950   5.595 118.638  0.00  0.00    +0.277 C 
ENDBRANCH  15  18
ENDBRANCH   3  12
BRANCH   9  20
ATOM     20  O   LIG A   1      -7.968  -0.054 129.737  0.00  0.00    -0.503 OA
ATOM     21  H   LIG A   1      -8.891  -0.277 129.938  0.00  0.00    +0.292 HD
ENDBRANCH   9  20
BRANCH  10  22
ATOM     22  O   LIG A   1      -8.232   2.899 129.828  0.00  0.00    -0.491 OA
ATOM     23  C   LIG A   1      -7.078   3.435 130.459  0.00  0.00    +0.277 C 
ENDBRANCH  10  22
TORSDOF 4
ENDMDL
MODEL 8
REMARK VINA RESULT:      -6.4      8.651      9.403
REMARK  Name = NuBBE_1188
REMARK  6 active torsions:
REMARK  status: ('A' for Active; 'I' for Inactive)
REMARK    1  A    between atoms: C_3  and  C_4
REMARK    2  A    between atoms: C_7  and  O_8
REMARK    3  A    between atoms: O_8  and  C_9
REMARK    4  A    between atoms: C_17  and  O_18
REMARK    5  A    between atoms: C_19  and  O_20
REMARK    6  A    between atoms: O_20  and  C_21
REMARK                            x       y       z     vdW  Elec       q    Type
REMARK                         _______ _______ _______ _____ _____    ______ ____
ROOT
ATOM      1  O   LIG A   1      -5.463  -1.351 127.179  0.00  0.00    -0.286 OA
ATOM      2  C   LIG A   1      -6.189  -2.110 127.803  0.00  0.00    +0.200 A 
ATOM      3  C   LIG A   1      -7.536  -2.553 127.317  0.00  0.00    +0.064 A 
ATOM      4  C   LIG A   1      -8.215  -3.397 128.109  0.00  0.00    +0.208 A 
ATOM      5  O   LIG A   1      -7.804  -3.921 129.305  0.00  0.00    -0.462 OA
ATOM      6  C   LIG A   1      -5.752  -2.648 129.102  0.00  0.00    +0.068 A 
ATOM      7  C   LIG A   1      -6.581  -3.531 129.777  0.00  0.00    +0.142 A 
ATOM      8  C   LIG A   1      -6.188  -4.070 130.994  0.00  0.00    +0.096 A 
ATOM      9  C   LIG A   1      -4.957  -3.710 131.547  0.00  0.00    +0.162 A 
ATOM     10  C   LIG A   1      -4.113  -2.806 130.888  0.00  0.00    +0.162 A 
ATOM     11  C   LIG A   1      -4.519  -2.280 129.653  0.00  0.00    +0.064 A 
ENDROOT
BRANCH   3  12
ATOM     12  C   LIG A   1      -8.119  -2.090 126.043  0.00  0.00    -0.011 A 
ATOM     13  C   LIG A   1      -8.303  -2.982 124.980  0.00  0.00    +0.012 A 
ATOM     14  C   LIG A   1      -8.891  -2.568 123.784  0.00  0.00    +0.046 A 
ATOM     15  C   LIG A   1      -9.292  -1.245 123.618  0.00  0.00    +0.120 A 
ATOM     16  C   LIG A   1      -9.101  -0.339 124.660  0.00  0.00    +0.046 A 
ATOM     17  C   LIG A   1      -8.527  -0.757 125.863  0.00  0.00    +0.012 A 
BRANCH  15  18
ATOM     18  O   LIG A   1      -9.880  -0.727 122.497  0.00  0.00    -0.495 OA
ATOM     19  C   LIG A   1     -10.144   0.670 122.528  0.00  0.00    +0.277 C 
ENDBRANCH  15  18
ENDBRANCH   3  12
BRANCH   9  20
ATOM     20  O   LIG A   1      -4.617  -4.272 132.746  0.00  0.00    -0.503 OA
ATOM     21  H   LIG A   1      -4.350  -3.575 133.367  0.00  0.00    +0.292 HD
ENDBRANCH   9  20
BRANCH  10  22
ATOM     22  O   LIG A   1      -2.890  -2.344 131.296  0.00  0.00    -0.491 OA
ATOM     23  C   LIG A   1      -2.866  -1.383 132.341  0.00  0.00    +0.277 C 
ENDBRANCH  10  22
TORSDOF 4
ENDMDL
MODEL 9
REMARK VINA RESULT:      -6.2      7.247      8.647
REMARK  Name = NuBBE_1188
REMARK  6 active torsions:
REMARK  status: ('A' for Active; 'I' for Inactive)
REMARK    1  A    between atoms: C_3  and  C_4
REMARK    2  A    between atoms: C_7  and  O_8
REMARK    3  A    between atoms: O_8  and  C_9
REMARK    4  A    between atoms: C_17  and  O_18
REMARK    5  A    between atoms: C_19  and  O_20
REMARK    6  A    between atoms: O_20  and  C_21
REMARK                            x       y       z     vdW  Elec       q    Type
REMARK                         _______ _______ _______ _____ _____    ______ ____
ROOT
ATOM      1  O   LIG A   1      -5.685   0.121 128.298  0.00  0.00    -0.286 OA
ATOM      2  C   LIG A   1      -6.136   0.414 127.200  0.00  0.00    +0.200 A 
ATOM      3  C   LIG A   1      -5.745   1.650 126.449  0.00  0.00    +0.064 A 
ATOM      4  C   LIG A   1      -6.319   1.833 125.249  0.00  0.00    +0.208 A 
ATOM      5  O   LIG A   1      -7.207   1.002 124.621  0.00  0.00    -0.462 OA
ATOM      6  C   LIG A   1      -7.112  -0.471 126.543  0.00  0.00    +0.068 A 
ATOM      7  C   LIG A   1      -7.587  -0.132 125.286  0.00  0.00    +0.142 A 
ATOM      8  C   LIG A   1      -8.493  -0.957 124.633  0.00  0.00    +0.096 A 
ATOM      9  C   LIG A   1      -8.938  -2.126 125.252  0.00  0.00    +0.162 A 
ATOM     10  C   LIG A   1      -8.482  -2.477 126.531  0.00  0.00    +0.162 A 
ATOM     11  C   LIG A   1      -7.558  -1.640 127.172  0.00  0.00    +0.064 A 
ENDROOT
BRANCH   3  12
ATOM     12  C   LIG A   1      -4.791   2.642 126.980  0.00  0.00    -0.011 A 
ATOM     13  C   LIG A   1      -3.479   2.698 126.494  0.00  0.00    +0.012 A 
ATOM     14  C   LIG A   1      -2.578   3.657 126.958  0.00  0.00    +0.046 A 
ATOM     15  C   LIG A   1      -2.964   4.572 127.934  0.00  0.00    +0.120 A 
ATOM     16  C   LIG A   1      -4.261   4.520 128.441  0.00  0.00    +0.046 A 
ATOM     17  C   LIG A   1      -5.168   3.570 127.965  0.00  0.00    +0.012 A 
BRANCH  15  18
ATOM     18  O   LIG A   1      -2.173   5.555 128.460  0.00  0.00    -0.495 OA
ATOM     19  C   LIG A   1      -2.549   6.889 128.139  0.00  0.00    +0.277 C 
ENDBRANCH  15  18
ENDBRANCH   3  12
BRANCH   9  20
ATOM     20  O   LIG A   1      -9.827  -2.904 124.565  0.00  0.00    -0.503 OA
ATOM     21  H   LIG A   1     -10.003  -2.508 123.697  0.00  0.00    +0.292 HD
ENDBRANCH   9  20
BRANCH  10  22
ATOM     22  O   LIG A   1      -8.825  -3.573 127.276  0.00  0.00    -0.491 OA
ATOM     23  C   LIG A   1      -8.561  -3.528 128.671  0.00  0.00    +0.277 C 
ENDBRANCH  10  22
TORSDOF 4
ENDMDL
