MODEL 1
REMARK VINA RESULT:      -6.7      0.000      0.000
REMARK  Name = NuBBE_156
REMARK  5 active torsions:
REMARK  status: ('A' for Active; 'I' for Inactive)
REMARK    1  A    between atoms: C_2  and  C_3
REMARK    2  A    between atoms: C_2  and  O_15
REMARK    3  A    between atoms: C_8  and  C_9
REMARK    4  A    between atoms: C_8  and  C_14
REMARK    5  A    between atoms: O_15  and  C_16
REMARK                            x       y       z     vdW  Elec       q    Type
REMARK                         _______ _______ _______ _____ _____    ______ ____
ROOT
ATOM      1  C   LIG A   1     -11.563   7.814 129.674  0.00  0.00    +0.059 A 
ATOM      2  C   LIG A   1     -12.389   7.303 130.681  0.00  0.00    +0.018 A 
ATOM      3  C   LIG A   1     -11.838   6.546 131.715  0.00  0.00    +0.046 A 
ATOM      4  C   LIG A   1     -10.466   6.298 131.752  0.00  0.00    +0.124 A 
ATOM      5  O   LIG A   1     -10.034   5.557 132.816  0.00  0.00    -0.486 OA
ATOM      6  C   LIG A   1      -8.668   5.107 132.798  0.00  0.00    +0.105 C 
ATOM      7  C   LIG A   1      -8.597   3.764 132.056  0.00  0.00    +0.055 C 
ATOM      8  C   LIG A   1      -7.722   6.163 132.206  0.00  0.00    +0.052 C 
ATOM      9  C   LIG A   1      -8.150   6.556 130.799  0.00  0.00    +0.043 C 
ATOM     10  C   LIG A   1      -9.626   6.814 130.760  0.00  0.00    -0.005 A 
ATOM     11  C   LIG A   1     -10.185   7.557 129.709  0.00  0.00    +0.022 A 
ATOM     12  C   LIG A   1      -8.290   4.873 134.268  0.00  0.00    +0.055 C 
ENDROOT
BRANCH   1  14
ATOM     13  O   LIG A   1     -12.961   9.483 128.689  0.00  0.00    -0.245 OA
ATOM     14  C   LIG A   1     -12.110   8.623 128.555  0.00  0.00    +0.339 C 
BRANCH  14  15
ATOM     15  O   LIG A   1     -11.550   8.218 127.386  0.00  0.00    -0.465 OA
ATOM     16  C   LIG A   1     -12.278   7.191 126.714  0.00  0.00    +0.280 C 
ENDBRANCH  14  15
ENDBRANCH   1  14
TORSDOF 2
ENDMDL
MODEL 2
REMARK VINA RESULT:      -6.7      1.647      5.751
REMARK  Name = NuBBE_156
REMARK  5 active torsions:
REMARK  status: ('A' for Active; 'I' for Inactive)
REMARK    1  A    between atoms: C_2  and  C_3
REMARK    2  A    between atoms: C_2  and  O_15
REMARK    3  A    between atoms: C_8  and  C_9
REMARK    4  A    between atoms: C_8  and  C_14
REMARK    5  A    between atoms: O_15  and  C_16
REMARK                            x       y       z     vdW  Elec       q    Type
REMARK                         _______ _______ _______ _____ _____    ______ ____
ROOT
ATOM      1  C   LIG A   1      -8.892   6.451 131.511  0.00  0.00    +0.059 A 
ATOM      2  C   LIG A   1     -10.082   5.899 131.997  0.00  0.00    +0.018 A 
ATOM      3  C   LIG A   1     -11.288   6.164 131.348  0.00  0.00    +0.046 A 
ATOM      4  C   LIG A   1     -11.314   6.977 130.214  0.00  0.00    +0.124 A 
ATOM      5  O   LIG A   1     -12.547   7.159 129.653  0.00  0.00    -0.486 OA
ATOM      6  C   LIG A   1     -12.659   8.140 128.608  0.00  0.00    +0.105 C 
ATOM      7  C   LIG A   1     -12.937   9.511 129.242  0.00  0.00    +0.055 C 
ATOM      8  C   LIG A   1     -11.426   8.149 127.691  0.00  0.00    +0.052 C 
ATOM      9  C   LIG A   1     -10.152   8.393 128.487  0.00  0.00    +0.043 C 
ATOM     10  C   LIG A   1     -10.131   7.525 129.709  0.00  0.00    -0.005 A 
ATOM     11  C   LIG A   1      -8.922   7.275 130.376  0.00  0.00    +0.022 A 
ATOM     12  C   LIG A   1     -13.887   7.726 127.782  0.00  0.00    +0.055 C 
ENDROOT
BRANCH   1  14
ATOM     13  O   LIG A   1      -6.507   6.411 131.654  0.00  0.00    -0.245 OA
ATOM     14  C   LIG A   1      -7.587   6.195 132.173  0.00  0.00    +0.339 C 
BRANCH  14  15
ATOM     15  O   LIG A   1      -7.800   5.650 133.398  0.00  0.00    -0.465 OA
ATOM     16  C   LIG A   1      -6.612   5.213 134.058  0.00  0.00    +0.280 C 
ENDBRANCH  14  15
ENDBRANCH   1  14
TORSDOF 2
ENDMDL
MODEL 3
REMARK VINA RESULT:      -6.3      9.317     10.209
REMARK  Name = NuBBE_156
REMARK  5 active torsions:
REMARK  status: ('A' for Active; 'I' for Inactive)
REMARK    1  A    between atoms: C_2  and  C_3
REMARK    2  A    between atoms: C_2  and  O_15
REMARK    3  A    between atoms: C_8  and  C_9
REMARK    4  A    between atoms: C_8  and  C_14
REMARK    5  A    between atoms: O_15  and  C_16
REMARK                            x       y       z     vdW  Elec       q    Type
REMARK                         _______ _______ _______ _____ _____    ______ ____
ROOT
ATOM      1  C   LIG A   1      -7.634   2.286 122.807  0.00  0.00    +0.059 A 
ATOM      2  C   LIG A   1      -8.969   2.355 123.219  0.00  0.00    +0.018 A 
ATOM      3  C   LIG A   1      -9.567   1.250 123.827  0.00  0.00    +0.046 A 
ATOM      4  C   LIG A   1      -8.839   0.077 124.027  0.00  0.00    +0.124 A 
ATOM      5  O   LIG A   1      -9.521  -0.937 124.641  0.00  0.00    -0.486 OA
ATOM      6  C   LIG A   1      -8.884  -2.225 124.692  0.00  0.00    +0.105 C 
ATOM      7  C   LIG A   1      -9.230  -3.001 123.413  0.00  0.00    +0.055 C 
ATOM      8  C   LIG A   1      -7.370  -2.111 124.926  0.00  0.00    +0.052 C 
ATOM      9  C   LIG A   1      -6.711  -1.257 123.851  0.00  0.00    +0.043 C 
ATOM     10  C   LIG A   1      -7.500  -0.002 123.632  0.00  0.00    -0.005 A 
ATOM     11  C   LIG A   1      -6.907   1.103 123.002  0.00  0.00    +0.022 A 
ATOM     12  C   LIG A   1      -9.517  -2.951 125.890  0.00  0.00    +0.055 C 
ENDROOT
BRANCH   1  14
ATOM     13  O   LIG A   1      -6.007   4.027 122.632  0.00  0.00    -0.245 OA
ATOM     14  C   LIG A   1      -6.960   3.439 122.156  0.00  0.00    +0.339 C 
BRANCH  14  15
ATOM     15  O   LIG A   1      -7.602   3.745 120.999  0.00  0.00    -0.465 OA
ATOM     16  C   LIG A   1      -6.736   4.154 119.941  0.00  0.00    +0.280 C 
ENDBRANCH  14  15
ENDBRANCH   1  14
TORSDOF 2
ENDMDL
MODEL 4
REMARK VINA RESULT:      -5.9     10.145     10.654
REMARK  Name = NuBBE_156
REMARK  5 active torsions:
REMARK  status: ('A' for Active; 'I' for Inactive)
REMARK    1  A    between atoms: C_2  and  C_3
REMARK    2  A    between atoms: C_2  and  O_15
REMARK    3  A    between atoms: C_8  and  C_9
REMARK    4  A    between atoms: C_8  and  C_14
REMARK    5  A    between atoms: O_15  and  C_16
REMARK                            x       y       z     vdW  Elec       q    Type
REMARK                         _______ _______ _______ _____ _____    ______ ____
ROOT
ATOM      1  C   LIG A   1      -8.193  -2.735 125.921  0.00  0.00    +0.059 A 
ATOM      2  C   LIG A   1      -9.149  -3.453 126.647  0.00  0.00    +0.018 A 
ATOM      3  C   LIG A   1      -8.944  -3.708 128.004  0.00  0.00    +0.046 A 
ATOM      4  C   LIG A   1      -7.790  -3.249 128.640  0.00  0.00    +0.124 A 
ATOM      5  O   LIG A   1      -7.700  -3.546 129.971  0.00  0.00    -0.486 OA
ATOM      6  C   LIG A   1      -6.449  -3.272 130.626  0.00  0.00    +0.105 C 
ATOM      7  C   LIG A   1      -5.529  -4.491 130.470  0.00  0.00    +0.055 C 
ATOM      8  C   LIG A   1      -5.806  -1.973 130.118  0.00  0.00    +0.052 C 
ATOM      9  C   LIG A   1      -5.594  -2.018 128.611  0.00  0.00    +0.043 C 
ATOM     10  C   LIG A   1      -6.833  -2.519 127.930  0.00  0.00    -0.005 A 
ATOM     11  C   LIG A   1      -7.030  -2.282 126.561  0.00  0.00    +0.022 A 
ATOM     12  C   LIG A   1      -6.790  -3.105 132.115  0.00  0.00    +0.055 C 
ENDROOT
BRANCH   1  14
ATOM     13  O   LIG A   1      -9.419  -2.067 123.981  0.00  0.00    -0.245 OA
ATOM     14  C   LIG A   1      -8.371  -2.443 124.475  0.00  0.00    +0.339 C 
BRANCH  14  15
ATOM     15  O   LIG A   1      -7.215  -2.706 123.813  0.00  0.00    -0.465 OA
ATOM     16  C   LIG A   1      -6.871  -1.732 122.828  0.00  0.00    +0.280 C 
ENDBRANCH  14  15
ENDBRANCH   1  14
TORSDOF 2
ENDMDL
MODEL 5
REMARK VINA RESULT:      -5.8      1.669      3.063
REMARK  Name = NuBBE_156
REMARK  5 active torsions:
REMARK  status: ('A' for Active; 'I' for Inactive)
REMARK    1  A    between atoms: C_2  and  C_3
REMARK    2  A    between atoms: C_2  and  O_15
REMARK    3  A    between atoms: C_8  and  C_9
REMARK    4  A    between atoms: C_8  and  C_14
REMARK    5  A    between atoms: O_15  and  C_16
REMARK                            x       y       z     vdW  Elec       q    Type
REMARK                         _______ _______ _______ _____ _____    ______ ____
ROOT
ATOM      1  C   LIG A   1     -10.078   6.398 130.655  0.00  0.00    +0.059 A 
ATOM      2  C   LIG A   1      -8.850   7.062 130.562  0.00  0.00    +0.018 A 
ATOM      3  C   LIG A   1      -7.817   6.739 131.443  0.00  0.00    +0.046 A 
ATOM      4  C   LIG A   1      -8.002   5.756 132.415  0.00  0.00    +0.124 A 
ATOM      5  O   LIG A   1      -6.921   5.513 133.215  0.00  0.00    -0.486 OA
ATOM      6  C   LIG A   1      -7.119   4.657 134.353  0.00  0.00    +0.105 C 
ATOM      7  C   LIG A   1      -7.586   5.511 135.541  0.00  0.00    +0.055 C 
ATOM      8  C   LIG A   1      -8.077   3.497 134.042  0.00  0.00    +0.052 C 
ATOM      9  C   LIG A   1      -9.422   4.013 133.550  0.00  0.00    +0.043 C 
ATOM     10  C   LIG A   1      -9.219   5.075 132.511  0.00  0.00    -0.005 A 
ATOM     11  C   LIG A   1     -10.264   5.416 131.638  0.00  0.00    +0.022 A 
ATOM     12  C   LIG A   1      -5.733   4.080 134.683  0.00  0.00    +0.055 C 
ENDROOT
BRANCH   1  14
ATOM     13  O   LIG A   1     -11.903   5.870 129.206  0.00  0.00    -0.245 OA
ATOM     14  C   LIG A   1     -11.203   6.713 129.738  0.00  0.00    +0.339 C 
BRANCH  14  15
ATOM     15  O   LIG A   1     -11.284   8.056 129.562  0.00  0.00    -0.465 OA
ATOM     16  C   LIG A   1     -11.277   8.470 128.196  0.00  0.00    +0.280 C 
ENDBRANCH  14  15
ENDBRANCH   1  14
TORSDOF 2
ENDMDL
MODEL 6
REMARK VINA RESULT:      -5.8      1.950      2.877
REMARK  Name = NuBBE_156
REMARK  5 active torsions:
REMARK  status: ('A' for Active; 'I' for Inactive)
REMARK    1  A    between atoms: C_2  and  C_3
REMARK    2  A    between atoms: C_2  and  O_15
REMARK    3  A    between atoms: C_8  and  C_9
REMARK    4  A    between atoms: C_8  and  C_14
REMARK    5  A    between atoms: O_15  and  C_16
REMARK                            x       y       z     vdW  Elec       q    Type
REMARK                         _______ _______ _______ _____ _____    ______ ____
ROOT
ATOM      1  C   LIG A   1     -11.352   6.069 131.175  0.00  0.00    +0.059 A 
ATOM      2  C   LIG A   1     -11.279   4.938 130.355  0.00  0.00    +0.018 A 
ATOM      3  C   LIG A   1     -10.349   3.936 130.633  0.00  0.00    +0.046 A 
ATOM      4  C   LIG A   1      -9.490   4.056 131.726  0.00  0.00    +0.124 A 
ATOM      5  O   LIG A   1      -8.628   3.012 131.910  0.00  0.00    -0.486 OA
ATOM      6  C   LIG A   1      -7.594   3.173 132.897  0.00  0.00    +0.105 C 
ATOM      7  C   LIG A   1      -6.376   3.835 132.235  0.00  0.00    +0.055 C 
ATOM      8  C   LIG A   1      -8.091   3.942 134.130  0.00  0.00    +0.052 C 
ATOM      9  C   LIG A   1      -8.644   5.306 133.742  0.00  0.00    +0.043 C 
ATOM     10  C   LIG A   1      -9.560   5.175 132.562  0.00  0.00    -0.005 A 
ATOM     11  C   LIG A   1     -10.482   6.192 132.268  0.00  0.00    +0.022 A 
ATOM     12  C   LIG A   1      -7.205   1.750 133.324  0.00  0.00    +0.055 C 
ENDROOT
BRANCH   1  14
ATOM     13  O   LIG A   1     -13.400   7.262 131.481  0.00  0.00    -0.245 OA
ATOM     14  C   LIG A   1     -12.327   7.159 130.914  0.00  0.00    +0.339 C 
BRANCH  14  15
ATOM     15  O   LIG A   1     -11.853   7.966 129.931  0.00  0.00    -0.465 OA
ATOM     16  C   LIG A   1     -12.710   9.061 129.608  0.00  0.00    +0.280 C 
ENDBRANCH  14  15
ENDBRANCH   1  14
TORSDOF 2
ENDMDL
MODEL 7
REMARK VINA RESULT:      -5.8      9.259     10.486
REMARK  Name = NuBBE_156
REMARK  5 active torsions:
REMARK  status: ('A' for Active; 'I' for Inactive)
REMARK    1  A    between atoms: C_2  and  C_3
REMARK    2  A    between atoms: C_2  and  O_15
REMARK    3  A    between atoms: C_8  and  C_9
REMARK    4  A    between atoms: C_8  and  C_14
REMARK    5  A    between atoms: O_15  and  C_16
REMARK                            x       y       z     vdW  Elec       q    Type
REMARK                         _______ _______ _______ _____ _____    ______ ____
ROOT
ATOM      1  C   LIG A   1      -6.895   1.872 124.763  0.00  0.00    +0.059 A 
ATOM      2  C   LIG A   1      -6.140   1.423 125.852  0.00  0.00    +0.018 A 
ATOM      3  C   LIG A   1      -5.673   0.109 125.879  0.00  0.00    +0.046 A 
ATOM      4  C   LIG A   1      -5.953  -0.761 124.824  0.00  0.00    +0.124 A 
ATOM      5  O   LIG A   1      -5.436  -2.020 124.950  0.00  0.00    -0.486 OA
ATOM      6  C   LIG A   1      -5.859  -3.007 123.994  0.00  0.00    +0.105 C 
ATOM      7  C   LIG A   1      -7.145  -3.673 124.503  0.00  0.00    +0.055 C 
ATOM      8  C   LIG A   1      -6.014  -2.414 122.585  0.00  0.00    +0.052 C 
ATOM      9  C   LIG A   1      -6.994  -1.249 122.584  0.00  0.00    +0.043 C 
ATOM     10  C   LIG A   1      -6.695  -0.322 123.724  0.00  0.00    -0.005 A 
ATOM     11  C   LIG A   1      -7.183   0.994 123.708  0.00  0.00    +0.022 A 
ATOM     12  C   LIG A   1      -4.741  -4.061 123.967  0.00  0.00    +0.055 C 
ENDROOT
BRANCH   1  14
ATOM     13  O   LIG A   1      -8.585   3.545 124.530  0.00  0.00    -0.245 OA
ATOM     14  C   LIG A   1      -7.413   3.263 124.696  0.00  0.00    +0.339 C 
BRANCH  14  15
ATOM     15  O   LIG A   1      -6.379   4.137 124.799  0.00  0.00    -0.465 OA
ATOM     16  C   LIG A   1      -5.673   4.354 123.577  0.00  0.00    +0.280 C 
ENDBRANCH  14  15
ENDBRANCH   1  14
TORSDOF 2
ENDMDL
MODEL 8
REMARK VINA RESULT:      -5.6      1.624      2.743
REMARK  Name = NuBBE_156
REMARK  5 active torsions:
REMARK  status: ('A' for Active; 'I' for Inactive)
REMARK    1  A    between atoms: C_2  and  C_3
REMARK    2  A    between atoms: C_2  and  O_15
REMARK    3  A    between atoms: C_8  and  C_9
REMARK    4  A    between atoms: C_8  and  C_14
REMARK    5  A    between atoms: O_15  and  C_16
REMARK                            x       y       z     vdW  Elec       q    Type
REMARK                         _______ _______ _______ _____ _____    ______ ____
ROOT
ATOM      1  C   LIG A   1     -10.654   7.168 129.635  0.00  0.00    +0.059 A 
ATOM      2  C   LIG A   1      -9.403   7.560 130.123  0.00  0.00    +0.018 A 
ATOM      3  C   LIG A   1      -8.586   6.631 130.770  0.00  0.00    +0.046 A 
ATOM      4  C   LIG A   1      -9.012   5.312 130.932  0.00  0.00    +0.124 A 
ATOM      5  O   LIG A   1      -8.128   4.487 131.569  0.00  0.00    -0.486 OA
ATOM      6  C   LIG A   1      -8.593   3.177 131.936  0.00  0.00    +0.105 C 
ATOM      7  C   LIG A   1      -9.251   3.254 133.321  0.00  0.00    +0.055 C 
ATOM      8  C   LIG A   1      -9.522   2.576 130.870  0.00  0.00    +0.052 C 
ATOM      9  C   LIG A   1     -10.713   3.485 130.603  0.00  0.00    +0.043 C 
ATOM     10  C   LIG A   1     -10.254   4.903 130.438  0.00  0.00    -0.005 A 
ATOM     11  C   LIG A   1     -11.083   5.843 129.807  0.00  0.00    +0.022 A 
ATOM     12  C   LIG A   1      -7.332   2.305 132.042  0.00  0.00    +0.055 C 
ENDROOT
BRANCH   1  14
ATOM     13  O   LIG A   1     -11.421   8.464 127.780  0.00  0.00    -0.245 OA
ATOM     14  C   LIG A   1     -11.554   8.125 128.942  0.00  0.00    +0.339 C 
BRANCH  14  15
ATOM     15  O   LIG A   1     -12.491   8.578 129.813  0.00  0.00    -0.465 OA
ATOM     16  C   LIG A   1     -13.023   9.862 129.484  0.00  0.00    +0.280 C 
ENDBRANCH  14  15
ENDBRANCH   1  14
TORSDOF 2
ENDMDL
MODEL 9
REMARK VINA RESULT:      -5.6      2.365      6.091
REMARK  Name = NuBBE_156
REMARK  5 active torsions:
REMARK  status: ('A' for Active; 'I' for Inactive)
REMARK    1  A    between atoms: C_2  and  C_3
REMARK    2  A    between atoms: C_2  and  O_15
REMARK    3  A    between atoms: C_8  and  C_9
REMARK    4  A    between atoms: C_8  and  C_14
REMARK    5  A    between atoms: O_15  and  C_16
REMARK                            x       y       z     vdW  Elec       q    Type
REMARK                         _______ _______ _______ _____ _____    ______ ____
ROOT
ATOM      1  C   LIG A   1      -8.593   3.607 131.394  0.00  0.00    +0.059 A 
ATOM      2  C   LIG A   1      -9.708   2.843 131.035  0.00  0.00    +0.018 A 
ATOM      3  C   LIG A   1     -10.821   3.461 130.463  0.00  0.00    +0.046 A 
ATOM      4  C   LIG A   1     -10.826   4.839 130.247  0.00  0.00    +0.124 A 
ATOM      5  O   LIG A   1     -11.962   5.337 129.671  0.00  0.00    -0.486 OA
ATOM      6  C   LIG A   1     -12.100   6.766 129.608  0.00  0.00    +0.105 C 
ATOM      7  C   LIG A   1     -12.751   7.261 130.908  0.00  0.00    +0.055 C 
ATOM      8  C   LIG A   1     -10.762   7.461 129.312  0.00  0.00    +0.052 C 
ATOM      9  C   LIG A   1      -9.711   7.094 130.351  0.00  0.00    +0.043 C 
ATOM     10  C   LIG A   1      -9.714   5.614 130.588  0.00  0.00    -0.005 A 
ATOM     11  C   LIG A   1      -8.604   4.993 131.182  0.00  0.00    +0.022 A 
ATOM     12  C   LIG A   1     -13.066   7.037 128.444  0.00  0.00    +0.055 C 
ENDROOT
BRANCH   1  14
ATOM     13  O   LIG A   1      -6.305   2.919 131.455  0.00  0.00    -0.245 OA
ATOM     14  C   LIG A   1      -7.389   2.988 132.005  0.00  0.00    +0.339 C 
BRANCH  14  15
ATOM     15  O   LIG A   1      -7.708   2.485 133.225  0.00  0.00    -0.465 OA
ATOM     16  C   LIG A   1      -6.591   1.995 133.967  0.00  0.00    +0.280 C 
ENDBRANCH  14  15
ENDBRANCH   1  14
TORSDOF 2
ENDMDL
