MODEL 1
REMARK VINA RESULT:      -8.4      0.000      0.000
REMARK  Name = NuBBE_875
REMARK  16 active torsions:
REMARK  status: ('A' for Active; 'I' for Inactive)
REMARK    1  A    between atoms: O_1  and  C_2
REMARK    2  A    between atoms: C_5  and  C_8
REMARK    3  A    between atoms: C_8  and  C_9
REMARK    4  A    between atoms: C_9  and  C_10
REMARK    5  A    between atoms: C_10  and  C_11
REMARK    6  A    between atoms: C_12  and  O_29
REMARK    7  A    between atoms: C_13  and  C_14
REMARK    8  A    between atoms: C_14  and  C_15
REMARK    9  A    between atoms: C_16  and  C_17
REMARK   10  A    between atoms: C_16  and  C_23
REMARK   11  A    between atoms: C_17  and  C_18
REMARK   12  A    between atoms: C_18  and  C_19
REMARK   13  A    between atoms: C_20  and  C_21
REMARK   14  A    between atoms: C_20  and  C_22
REMARK   15  A    between atoms: C_24  and  O_28
REMARK   16  A    between atoms: C_26  and  O_27
REMARK                            x       y       z     vdW  Elec       q    Type
REMARK                         _______ _______ _______ _____ _____    ______ ____
ROOT
ATOM      1  C   LIG A   1      -8.695   0.665 123.804  0.00  0.00    +0.101 A 
ATOM      2  C   LIG A   1      -7.684   0.146 124.648  0.00  0.00    +0.138 A 
ATOM      3  C   LIG A   1      -7.389  -1.234 124.722  0.00  0.00    +0.040 A 
ATOM      4  C   LIG A   1      -8.176  -2.104 123.959  0.00  0.00    +0.127 A 
ATOM      5  C   LIG A   1      -9.192  -1.619 123.137  0.00  0.00    +0.092 A 
ATOM      6  C   LIG A   1      -9.447  -0.246 123.053  0.00  0.00    +0.134 A 
ENDROOT
BRANCH   1   7
ATOM      7  C   LIG A   1      -8.929   2.146 123.802  0.00  0.00    +0.171 C 
ATOM      8  O   LIG A   1      -9.377   2.660 124.845  0.00  0.00    -0.292 OA
BRANCH   7   9
ATOM      9  C   LIG A   1      -8.583   3.012 122.604  0.00  0.00    +0.084 C 
BRANCH   9  10
ATOM     10  C   LIG A   1      -7.094   2.935 122.250  0.00  0.00    +0.043 C 
BRANCH  10  14
ATOM     11  C   LIG A   1      -6.035   5.307 118.818  0.00  0.00    +0.117 A 
ATOM     12  C   LIG A   1      -7.282   4.694 118.863  0.00  0.00    +0.045 A 
ATOM     13  C   LIG A   1      -7.642   3.954 119.992  0.00  0.00    +0.007 A 
ATOM     14  C   LIG A   1      -6.748   3.804 121.062  0.00  0.00    -0.047 A 
ATOM     15  C   LIG A   1      -5.497   4.432 120.995  0.00  0.00    +0.007 A 
ATOM     16  C   LIG A   1      -5.142   5.183 119.874  0.00  0.00    +0.045 A 
BRANCH  11  17
ATOM     17  O   LIG A   1      -5.648   6.047 117.739  0.00  0.00    -0.507 OA
ATOM     18  H   LIG A   1      -5.401   5.440 117.023  0.00  0.00    +0.292 HD
ENDBRANCH  11  17
ENDBRANCH  10  14
ENDBRANCH   9  10
ENDBRANCH   7   9
ENDBRANCH   1   7
BRANCH   6  19
ATOM     19  O   LIG A   1     -10.478   0.162 122.253  0.00  0.00    -0.506 OA
ATOM     20  H   LIG A   1     -10.914  -0.624 121.876  0.00  0.00    +0.292 HD
ENDBRANCH   6  19
BRANCH   4  21
ATOM     21  O   LIG A   1      -8.024  -3.463 123.947  0.00  0.00    -0.506 OA
ATOM     22  H   LIG A   1      -7.538  -3.740 123.153  0.00  0.00    +0.292 HD
ENDBRANCH   4  21
BRANCH   2  23
ATOM     23  O   LIG A   1      -6.930   0.975 125.452  0.00  0.00    -0.505 OA
ATOM     24  H   LIG A   1      -7.487   1.255 126.213  0.00  0.00    +0.292 HD
ENDBRANCH   2  23
BRANCH   3  25
ATOM     25  C   LIG A   1      -6.266  -1.721 125.620  0.00  0.00    +0.069 C 
BRANCH  25  26
ATOM     26  C   LIG A   1      -6.741  -2.587 126.761  0.00  0.00    -0.023 C 
ATOM     27  C   LIG A   1      -7.302  -2.182 127.921  0.00  0.00    -0.076 C 
ATOM     28  C   LIG A   1      -7.528  -0.740 128.292  0.00  0.00    +0.038 C 
BRANCH  27  29
ATOM     29  C   LIG A   1      -7.767  -3.202 128.954  0.00  0.00    +0.034 C 
BRANCH  29  30
ATOM     30  C   LIG A   1      -6.832  -3.309 130.171  0.00  0.00    +0.031 C 
BRANCH  30  31
ATOM     31  C   LIG A   1      -5.447  -3.774 129.786  0.00  0.00    -0.028 C 
ATOM     32  C   LIG A   1      -4.318  -3.041 129.699  0.00  0.00    -0.080 C 
ATOM     33  C   LIG A   1      -4.227  -1.563 129.952  0.00  0.00    +0.038 C 
ATOM     34  C   LIG A   1      -3.011  -3.677 129.296  0.00  0.00    +0.038 C 
ENDBRANCH  30  31
ENDBRANCH  29  30
ENDBRANCH  27  29
ENDBRANCH  25  26
ENDBRANCH   3  25
TORSDOF 13
ENDMDL
MODEL 2
REMARK VINA RESULT:      -8.0      5.575      8.025
REMARK  Name = NuBBE_875
REMARK  16 active torsions:
REMARK  status: ('A' for Active; 'I' for Inactive)
REMARK    1  A    between atoms: O_1  and  C_2
REMARK    2  A    between atoms: C_5  and  C_8
REMARK    3  A    between atoms: C_8  and  C_9
REMARK    4  A    between atoms: C_9  and  C_10
REMARK    5  A    between atoms: C_10  and  C_11
REMARK    6  A    between atoms: C_12  and  O_29
REMARK    7  A    between atoms: C_13  and  C_14
REMARK    8  A    between atoms: C_14  and  C_15
REMARK    9  A    between atoms: C_16  and  C_17
REMARK   10  A    between atoms: C_16  and  C_23
REMARK   11  A    between atoms: C_17  and  C_18
REMARK   12  A    between atoms: C_18  and  C_19
REMARK   13  A    between atoms: C_20  and  C_21
REMARK   14  A    between atoms: C_20  and  C_22
REMARK   15  A    between atoms: C_24  and  O_28
REMARK   16  A    between atoms: C_26  and  O_27
REMARK                            x       y       z     vdW  Elec       q    Type
REMARK                         _______ _______ _______ _____ _____    ______ ____
ROOT
ATOM      1  C   LIG A   1      -9.397   2.494 130.455  0.00  0.00    +0.101 A 
ATOM      2  C   LIG A   1      -8.612   1.927 129.422  0.00  0.00    +0.138 A 
ATOM      3  C   LIG A   1      -7.929   0.699 129.572  0.00  0.00    +0.040 A 
ATOM      4  C   LIG A   1      -8.007   0.065 130.817  0.00  0.00    +0.127 A 
ATOM      5  C   LIG A   1      -8.757   0.614 131.856  0.00  0.00    +0.092 A 
ATOM      6  C   LIG A   1      -9.452   1.814 131.678  0.00  0.00    +0.134 A 
ENDROOT
BRANCH   1   7
ATOM      7  C   LIG A   1     -10.080   3.802 130.193  0.00  0.00    +0.171 C 
ATOM      8  O   LIG A   1     -11.323   3.796 130.106  0.00  0.00    -0.292 OA
BRANCH   7   9
ATOM      9  C   LIG A   1      -9.308   5.106 130.095  0.00  0.00    +0.084 C 
BRANCH   9  10
ATOM     10  C   LIG A   1      -9.876   6.182 131.026  0.00  0.00    +0.043 C 
BRANCH  10  14
ATOM     11  C   LIG A   1     -12.470   8.985 129.041  0.00  0.00    +0.117 A 
ATOM     12  C   LIG A   1     -11.227   8.699 128.488  0.00  0.00    +0.045 A 
ATOM     13  C   LIG A   1     -10.398   7.762 129.111  0.00  0.00    +0.007 A 
ATOM     14  C   LIG A   1     -10.800   7.132 130.299  0.00  0.00    -0.047 A 
ATOM     15  C   LIG A   1     -12.058   7.436 130.837  0.00  0.00    +0.007 A 
ATOM     16  C   LIG A   1     -12.891   8.361 130.207  0.00  0.00    +0.045 A 
BRANCH  11  17
ATOM     17  O   LIG A   1     -13.313   9.886 128.459  0.00  0.00    -0.507 OA
ATOM     18  H   LIG A   1     -13.543  10.561 129.118  0.00  0.00    +0.292 HD
ENDBRANCH  11  17
ENDBRANCH  10  14
ENDBRANCH   9  10
ENDBRANCH   7   9
ENDBRANCH   1   7
BRANCH   6  19
ATOM     19  O   LIG A   1     -10.143   2.315 132.747  0.00  0.00    -0.506 OA
ATOM     20  H   LIG A   1     -10.053   1.698 133.496  0.00  0.00    +0.292 HD
ENDBRANCH   6  19
BRANCH   4  21
ATOM     21  O   LIG A   1      -7.381  -1.114 131.117  0.00  0.00    -0.506 OA
ATOM     22  H   LIG A   1      -7.838  -1.856 130.690  0.00  0.00    +0.292 HD
ENDBRANCH   4  21
BRANCH   2  23
ATOM     23  O   LIG A   1      -8.472   2.558 128.204  0.00  0.00    -0.505 OA
ATOM     24  H   LIG A   1      -7.539   2.456 127.910  0.00  0.00    +0.292 HD
ENDBRANCH   2  23
BRANCH   3  25
ATOM     25  C   LIG A   1      -7.134   0.128 128.412  0.00  0.00    +0.069 C 
BRANCH  25  26
ATOM     26  C   LIG A   1      -7.939  -0.790 127.525  0.00  0.00    -0.023 C 
ATOM     27  C   LIG A   1      -7.952  -2.141 127.537  0.00  0.00    -0.076 C 
ATOM     28  C   LIG A   1      -7.110  -2.985 128.457  0.00  0.00    +0.038 C 
BRANCH  27  29
ATOM     29  C   LIG A   1      -8.864  -2.914 126.594  0.00  0.00    +0.034 C 
BRANCH  29  30
ATOM     30  C   LIG A   1      -8.579  -2.642 125.107  0.00  0.00    +0.031 C 
BRANCH  30  31
ATOM     31  C   LIG A   1      -7.391  -3.427 124.602  0.00  0.00    -0.028 C 
ATOM     32  C   LIG A   1      -6.121  -3.003 124.441  0.00  0.00    -0.080 C 
ATOM     33  C   LIG A   1      -5.634  -1.609 124.721  0.00  0.00    +0.038 C 
ATOM     34  C   LIG A   1      -5.053  -3.934 123.921  0.00  0.00    +0.038 C 
ENDBRANCH  30  31
ENDBRANCH  29  30
ENDBRANCH  27  29
ENDBRANCH  25  26
ENDBRANCH   3  25
TORSDOF 13
ENDMDL
MODEL 3
REMARK VINA RESULT:      -8.0      9.433     11.461
REMARK  Name = NuBBE_875
REMARK  16 active torsions:
REMARK  status: ('A' for Active; 'I' for Inactive)
REMARK    1  A    between atoms: O_1  and  C_2
REMARK    2  A    between atoms: C_5  and  C_8
REMARK    3  A    between atoms: C_8  and  C_9
REMARK    4  A    between atoms: C_9  and  C_10
REMARK    5  A    between atoms: C_10  and  C_11
REMARK    6  A    between atoms: C_12  and  O_29
REMARK    7  A    between atoms: C_13  and  C_14
REMARK    8  A    between atoms: C_14  and  C_15
REMARK    9  A    between atoms: C_16  and  C_17
REMARK   10  A    between atoms: C_16  and  C_23
REMARK   11  A    between atoms: C_17  and  C_18
REMARK   12  A    between atoms: C_18  and  C_19
REMARK   13  A    between atoms: C_20  and  C_21
REMARK   14  A    between atoms: C_20  and  C_22
REMARK   15  A    between atoms: C_24  and  O_28
REMARK   16  A    between atoms: C_26  and  O_27
REMARK                            x       y       z     vdW  Elec       q    Type
REMARK                         _______ _______ _______ _____ _____    ______ ____
ROOT
ATOM      1  C   LIG A   1      -9.482   5.922 131.700  0.00  0.00    +0.101 A 
ATOM      2  C   LIG A   1      -9.166   5.225 132.891  0.00  0.00    +0.138 A 
ATOM      3  C   LIG A   1      -7.862   5.200 133.435  0.00  0.00    +0.040 A 
ATOM      4  C   LIG A   1      -6.852   5.855 132.722  0.00  0.00    +0.127 A 
ATOM      5  C   LIG A   1      -7.134   6.530 131.535  0.00  0.00    +0.092 A 
ATOM      6  C   LIG A   1      -8.438   6.571 131.029  0.00  0.00    +0.134 A 
ENDROOT
BRANCH   1   7
ATOM      7  C   LIG A   1     -10.897   5.883 131.207  0.00  0.00    +0.171 C 
ATOM      8  O   LIG A   1     -11.296   4.825 130.682  0.00  0.00    -0.292 OA
BRANCH   7   9
ATOM      9  C   LIG A   1     -11.842   7.058 131.385  0.00  0.00    +0.084 C 
BRANCH   9  10
ATOM     10  C   LIG A   1     -12.957   7.063 130.333  0.00  0.00    +0.043 C 
BRANCH  10  14
ATOM     11  C   LIG A   1     -11.359   7.847 126.414  0.00  0.00    +0.117 A 
ATOM     12  C   LIG A   1     -12.454   7.000 126.546  0.00  0.00    +0.045 A 
ATOM     13  C   LIG A   1     -12.997   6.774 127.813  0.00  0.00    +0.007 A 
ATOM     14  C   LIG A   1     -12.430   7.370 128.950  0.00  0.00    -0.047 A 
ATOM     15  C   LIG A   1     -11.327   8.220 128.792  0.00  0.00    +0.007 A 
ATOM     16  C   LIG A   1     -10.794   8.458 127.525  0.00  0.00    +0.045 A 
BRANCH  11  17
ATOM     17  O   LIG A   1     -10.804   8.103 125.195  0.00  0.00    -0.507 OA
ATOM     18  H   LIG A   1     -10.018   7.543 125.091  0.00  0.00    +0.292 HD
ENDBRANCH  11  17
ENDBRANCH  10  14
ENDBRANCH   9  10
ENDBRANCH   7   9
ENDBRANCH   1   7
BRANCH   6  19
ATOM     19  O   LIG A   1      -8.642   7.222 129.845  0.00  0.00    -0.506 OA
ATOM     20  H   LIG A   1      -8.300   6.669 129.119  0.00  0.00    +0.292 HD
ENDBRANCH   6  19
BRANCH   4  21
ATOM     21  O   LIG A   1      -5.542   5.896 133.111  0.00  0.00    -0.506 OA
ATOM     22  H   LIG A   1      -4.959   5.880 132.335  0.00  0.00    +0.292 HD
ENDBRANCH   4  21
BRANCH   2  23
ATOM     23  O   LIG A   1     -10.130   4.524 133.585  0.00  0.00    -0.505 OA
ATOM     24  H   LIG A   1      -9.753   3.653 133.840  0.00  0.00    +0.292 HD
ENDBRANCH   2  23
BRANCH   3  25
ATOM     25  C   LIG A   1      -7.598   4.465 134.736  0.00  0.00    +0.069 C 
BRANCH  25  26
ATOM     26  C   LIG A   1      -7.444   5.382 135.925  0.00  0.00    -0.023 C 
ATOM     27  C   LIG A   1      -6.345   5.557 136.691  0.00  0.00    -0.076 C 
ATOM     28  C   LIG A   1      -5.050   4.815 136.491  0.00  0.00    +0.038 C 
BRANCH  27  29
ATOM     29  C   LIG A   1      -6.351   6.564 137.834  0.00  0.00    +0.034 C 
BRANCH  29  30
ATOM     30  C   LIG A   1      -7.621   6.498 138.700  0.00  0.00    +0.031 C 
BRANCH  30  31
ATOM     31  C   LIG A   1      -8.649   7.522 138.280  0.00  0.00    -0.028 C 
ATOM     32  C   LIG A   1      -8.760   8.804 138.684  0.00  0.00    -0.080 C 
ATOM     33  C   LIG A   1      -7.861   9.474 139.685  0.00  0.00    +0.038 C 
ATOM     34  C   LIG A   1      -9.860   9.691 138.155  0.00  0.00    +0.038 C 
ENDBRANCH  30  31
ENDBRANCH  29  30
ENDBRANCH  27  29
ENDBRANCH  25  26
ENDBRANCH   3  25
TORSDOF 13
ENDMDL
MODEL 4
REMARK VINA RESULT:      -7.7      1.442      2.303
REMARK  Name = NuBBE_875
REMARK  16 active torsions:
REMARK  status: ('A' for Active; 'I' for Inactive)
REMARK    1  A    between atoms: O_1  and  C_2
REMARK    2  A    between atoms: C_5  and  C_8
REMARK    3  A    between atoms: C_8  and  C_9
REMARK    4  A    between atoms: C_9  and  C_10
REMARK    5  A    between atoms: C_10  and  C_11
REMARK    6  A    between atoms: C_12  and  O_29
REMARK    7  A    between atoms: C_13  and  C_14
REMARK    8  A    between atoms: C_14  and  C_15
REMARK    9  A    between atoms: C_16  and  C_17
REMARK   10  A    between atoms: C_16  and  C_23
REMARK   11  A    between atoms: C_17  and  C_18
REMARK   12  A    between atoms: C_18  and  C_19
REMARK   13  A    between atoms: C_20  and  C_21
REMARK   14  A    between atoms: C_20  and  C_22
REMARK   15  A    between atoms: C_24  and  O_28
REMARK   16  A    between atoms: C_26  and  O_27
REMARK                            x       y       z     vdW  Elec       q    Type
REMARK                         _______ _______ _______ _____ _____    ______ ____
ROOT
ATOM      1  C   LIG A   1      -8.506   0.927 123.932  0.00  0.00    +0.101 A 
ATOM      2  C   LIG A   1      -7.630   0.102 124.679  0.00  0.00    +0.138 A 
ATOM      3  C   LIG A   1      -7.568  -1.299 124.503  0.00  0.00    +0.040 A 
ATOM      4  C   LIG A   1      -8.455  -1.874 123.586  0.00  0.00    +0.127 A 
ATOM      5  C   LIG A   1      -9.342  -1.085 122.855  0.00  0.00    +0.092 A 
ATOM      6  C   LIG A   1      -9.365   0.304 123.019  0.00  0.00    +0.134 A 
ENDROOT
BRANCH   1   7
ATOM      7  C   LIG A   1      -8.493   2.402 124.197  0.00  0.00    +0.171 C 
ATOM      8  O   LIG A   1      -9.318   2.847 125.018  0.00  0.00    -0.292 OA
BRANCH   7   9
ATOM      9  C   LIG A   1      -7.481   3.327 123.545  0.00  0.00    +0.084 C 
BRANCH   9  10
ATOM     10  C   LIG A   1      -6.766   2.657 122.366  0.00  0.00    +0.043 C 
BRANCH  10  14
ATOM     11  C   LIG A   1      -6.022   5.304 119.054  0.00  0.00    +0.117 A 
ATOM     12  C   LIG A   1      -7.228   4.616 119.118  0.00  0.00    +0.045 A 
ATOM     13  C   LIG A   1      -7.488   3.785 120.211  0.00  0.00    +0.007 A 
ATOM     14  C   LIG A   1      -6.531   3.619 121.224  0.00  0.00    -0.047 A 
ATOM     15  C   LIG A   1      -5.323   4.324 121.139  0.00  0.00    +0.007 A 
ATOM     16  C   LIG A   1      -5.070   5.164 120.055  0.00  0.00    +0.045 A 
BRANCH  11  17
ATOM     17  O   LIG A   1      -5.733   6.132 118.010  0.00  0.00    -0.507 OA
ATOM     18  H   LIG A   1      -5.139   6.832 118.328  0.00  0.00    +0.292 HD
ENDBRANCH  11  17
ENDBRANCH  10  14
ENDBRANCH   9  10
ENDBRANCH   7   9
ENDBRANCH   1   7
BRANCH   6  19
ATOM     19  O   LIG A   1     -10.281   1.016 122.295  0.00  0.00    -0.506 OA
ATOM     20  H   LIG A   1     -11.006   1.288 122.887  0.00  0.00    +0.292 HD
ENDBRANCH   6  19
BRANCH   4  21
ATOM     21  O   LIG A   1      -8.528  -3.215 123.328  0.00  0.00    -0.506 OA
ATOM     22  H   LIG A   1      -9.338  -3.418 122.834  0.00  0.00    +0.292 HD
ENDBRANCH   4  21
BRANCH   2  23
ATOM     23  O   LIG A   1      -6.784   0.636 125.629  0.00  0.00    -0.505 OA
ATOM     24  H   LIG A   1      -6.166  -0.071 125.922  0.00  0.00    +0.292 HD
ENDBRANCH   2  23
BRANCH   3  25
ATOM     25  C   LIG A   1      -6.580  -2.120 125.309  0.00  0.00    +0.069 C 
BRANCH  25  26
ATOM     26  C   LIG A   1      -6.836  -2.081 126.796  0.00  0.00    -0.023 C 
ATOM     27  C   LIG A   1      -7.805  -2.729 127.480  0.00  0.00    -0.076 C 
ATOM     28  C   LIG A   1      -8.846  -3.608 126.841  0.00  0.00    +0.038 C 
BRANCH  27  29
ATOM     29  C   LIG A   1      -7.892  -2.610 128.997  0.00  0.00    +0.034 C 
BRANCH  29  30
ATOM     30  C   LIG A   1      -7.122  -1.405 129.561  0.00  0.00    +0.031 C 
BRANCH  30  31
ATOM     31  C   LIG A   1      -8.043  -0.374 130.170  0.00  0.00    -0.028 C 
ATOM     32  C   LIG A   1      -8.429  -0.260 131.458  0.00  0.00    -0.080 C 
ATOM     33  C   LIG A   1      -8.018  -1.186 132.567  0.00  0.00    +0.038 C 
ATOM     34  C   LIG A   1      -9.363   0.843 131.892  0.00  0.00    +0.038 C 
ENDBRANCH  30  31
ENDBRANCH  29  30
ENDBRANCH  27  29
ENDBRANCH  25  26
ENDBRANCH   3  25
TORSDOF 13
ENDMDL
MODEL 5
REMARK VINA RESULT:      -7.7      4.721      6.262
REMARK  Name = NuBBE_875
REMARK  16 active torsions:
REMARK  status: ('A' for Active; 'I' for Inactive)
REMARK    1  A    between atoms: O_1  and  C_2
REMARK    2  A    between atoms: C_5  and  C_8
REMARK    3  A    between atoms: C_8  and  C_9
REMARK    4  A    between atoms: C_9  and  C_10
REMARK    5  A    between atoms: C_10  and  C_11
REMARK    6  A    between atoms: C_12  and  O_29
REMARK    7  A    between atoms: C_13  and  C_14
REMARK    8  A    between atoms: C_14  and  C_15
REMARK    9  A    between atoms: C_16  and  C_17
REMARK   10  A    between atoms: C_16  and  C_23
REMARK   11  A    between atoms: C_17  and  C_18
REMARK   12  A    between atoms: C_18  and  C_19
REMARK   13  A    between atoms: C_20  and  C_21
REMARK   14  A    between atoms: C_20  and  C_22
REMARK   15  A    between atoms: C_24  and  O_28
REMARK   16  A    between atoms: C_26  and  O_27
REMARK                            x       y       z     vdW  Elec       q    Type
REMARK                         _______ _______ _______ _____ _____    ______ ____
ROOT
ATOM      1  C   LIG A   1      -6.848   2.983 125.514  0.00  0.00    +0.101 A 
ATOM      2  C   LIG A   1      -5.792   3.878 125.809  0.00  0.00    +0.138 A 
ATOM      3  C   LIG A   1      -4.695   3.519 126.625  0.00  0.00    +0.040 A 
ATOM      4  C   LIG A   1      -4.704   2.240 127.191  0.00  0.00    +0.127 A 
ATOM      5  C   LIG A   1      -5.743   1.347 126.933  0.00  0.00    +0.092 A 
ATOM      6  C   LIG A   1      -6.804   1.710 126.096  0.00  0.00    +0.134 A 
ENDROOT
BRANCH   1   7
ATOM      7  C   LIG A   1      -7.966   3.465 124.639  0.00  0.00    +0.171 C 
ATOM      8  O   LIG A   1      -8.802   4.238 125.146  0.00  0.00    -0.292 OA
BRANCH   7   9
ATOM      9  C   LIG A   1      -8.059   3.084 123.173  0.00  0.00    +0.084 C 
BRANCH   9  10
ATOM     10  C   LIG A   1      -6.685   2.776 122.570  0.00  0.00    +0.043 C 
BRANCH  10  14
ATOM     11  C   LIG A   1      -5.922   5.320 119.182  0.00  0.00    +0.117 A 
ATOM     12  C   LIG A   1      -4.970   5.226 120.191  0.00  0.00    +0.045 A 
ATOM     13  C   LIG A   1      -5.199   4.373 121.274  0.00  0.00    +0.007 A 
ATOM     14  C   LIG A   1      -6.389   3.635 121.362  0.00  0.00    -0.047 A 
ATOM     15  C   LIG A   1      -7.334   3.745 120.332  0.00  0.00    +0.007 A 
ATOM     16  C   LIG A   1      -7.099   4.586 119.244  0.00  0.00    +0.045 A 
BRANCH  11  17
ATOM     17  O   LIG A   1      -5.733   6.132 118.103  0.00  0.00    -0.507 OA
ATOM     18  H   LIG A   1      -4.822   6.018 117.787  0.00  0.00    +0.292 HD
ENDBRANCH  11  17
ENDBRANCH  10  14
ENDBRANCH   9  10
ENDBRANCH   7   9
ENDBRANCH   1   7
BRANCH   6  19
ATOM     19  O   LIG A   1      -7.808   0.801 125.909  0.00  0.00    -0.506 OA
ATOM     20  H   LIG A   1      -8.497   1.204 125.350  0.00  0.00    +0.292 HD
ENDBRANCH   6  19
BRANCH   4  21
ATOM     21  O   LIG A   1      -3.725   1.760 128.018  0.00  0.00    -0.506 OA
ATOM     22  H   LIG A   1      -3.741   0.790 128.031  0.00  0.00    +0.292 HD
ENDBRANCH   4  21
BRANCH   2  23
ATOM     23  O   LIG A   1      -5.786   5.164 125.310  0.00  0.00    -0.505 OA
ATOM     24  H   LIG A   1      -5.929   5.785 126.059  0.00  0.00    +0.292 HD
ENDBRANCH   2  23
BRANCH   3  25
ATOM     25  C   LIG A   1      -3.577   4.515 126.872  0.00  0.00    +0.069 C 
BRANCH  25  26
ATOM     26  C   LIG A   1      -3.966   5.638 127.802  0.00  0.00    -0.023 C 
ATOM     27  C   LIG A   1      -3.840   5.672 129.146  0.00  0.00    -0.076 C 
ATOM     28  C   LIG A   1      -3.294   4.538 129.973  0.00  0.00    +0.038 C 
BRANCH  27  29
ATOM     29  C   LIG A   1      -4.246   6.914 129.931  0.00  0.00    +0.034 C 
BRANCH  29  30
ATOM     30  C   LIG A   1      -4.937   6.593 131.267  0.00  0.00    +0.031 C 
BRANCH  30  31
ATOM     31  C   LIG A   1      -6.395   6.987 131.264  0.00  0.00    -0.028 C 
ATOM     32  C   LIG A   1      -7.449   6.272 130.819  0.00  0.00    -0.080 C 
ATOM     33  C   LIG A   1      -7.364   4.906 130.198  0.00  0.00    +0.038 C 
ATOM     34  C   LIG A   1      -8.849   6.827 130.894  0.00  0.00    +0.038 C 
ENDBRANCH  30  31
ENDBRANCH  29  30
ENDBRANCH  27  29
ENDBRANCH  25  26
ENDBRANCH   3  25
TORSDOF 13
ENDMDL
MODEL 6
REMARK VINA RESULT:      -7.7      3.061      7.108
REMARK  Name = NuBBE_875
REMARK  16 active torsions:
REMARK  status: ('A' for Active; 'I' for Inactive)
REMARK    1  A    between atoms: O_1  and  C_2
REMARK    2  A    between atoms: C_5  and  C_8
REMARK    3  A    between atoms: C_8  and  C_9
REMARK    4  A    between atoms: C_9  and  C_10
REMARK    5  A    between atoms: C_10  and  C_11
REMARK    6  A    between atoms: C_12  and  O_29
REMARK    7  A    between atoms: C_13  and  C_14
REMARK    8  A    between atoms: C_14  and  C_15
REMARK    9  A    between atoms: C_16  and  C_17
REMARK   10  A    between atoms: C_16  and  C_23
REMARK   11  A    between atoms: C_17  and  C_18
REMARK   12  A    between atoms: C_18  and  C_19
REMARK   13  A    between atoms: C_20  and  C_21
REMARK   14  A    between atoms: C_20  and  C_22
REMARK   15  A    between atoms: C_24  and  O_28
REMARK   16  A    between atoms: C_26  and  O_27
REMARK                            x       y       z     vdW  Elec       q    Type
REMARK                         _______ _______ _______ _____ _____    ______ ____
ROOT
ATOM      1  C   LIG A   1      -8.574  -0.260 123.364  0.00  0.00    +0.101 A 
ATOM      2  C   LIG A   1      -7.383   0.311 123.872  0.00  0.00    +0.138 A 
ATOM      3  C   LIG A   1      -7.256   1.693 124.141  0.00  0.00    +0.040 A 
ATOM      4  C   LIG A   1      -8.348   2.513 123.837  0.00  0.00    +0.127 A 
ATOM      5  C   LIG A   1      -9.525   1.977 123.315  0.00  0.00    +0.092 A 
ATOM      6  C   LIG A   1      -9.642   0.601 123.086  0.00  0.00    +0.134 A 
ENDROOT
BRANCH   1   7
ATOM      7  C   LIG A   1      -8.603  -1.738 123.112  0.00  0.00    +0.171 C 
ATOM      8  O   LIG A   1      -7.979  -2.165 122.121  0.00  0.00    -0.292 OA
BRANCH   7   9
ATOM      9  C   LIG A   1      -9.311  -2.699 124.049  0.00  0.00    +0.084 C 
BRANCH   9  10
ATOM     10  C   LIG A   1      -8.329  -3.638 124.759  0.00  0.00    +0.043 C 
BRANCH  10  14
ATOM     11  C   LIG A   1      -7.754  -2.724 128.926  0.00  0.00    +0.117 A 
ATOM     12  C   LIG A   1      -6.921  -2.138 127.979  0.00  0.00    +0.045 A 
ATOM     13  C   LIG A   1      -7.129  -2.404 126.623  0.00  0.00    +0.007 A 
ATOM     14  C   LIG A   1      -8.150  -3.276 126.216  0.00  0.00    -0.047 A 
ATOM     15  C   LIG A   1      -8.977  -3.854 127.188  0.00  0.00    +0.007 A 
ATOM     16  C   LIG A   1      -8.779  -3.578 128.540  0.00  0.00    +0.045 A 
BRANCH  11  17
ATOM     17  O   LIG A   1      -7.591  -2.484 130.258  0.00  0.00    -0.507 OA
ATOM     18  H   LIG A   1      -8.122  -1.706 130.497  0.00  0.00    +0.292 HD
ENDBRANCH  11  17
ENDBRANCH  10  14
ENDBRANCH   9  10
ENDBRANCH   7   9
ENDBRANCH   1   7
BRANCH   6  19
ATOM     19  O   LIG A   1     -10.811   0.144 122.544  0.00  0.00    -0.506 OA
ATOM     20  H   LIG A   1     -11.555   0.459 123.089  0.00  0.00    +0.292 HD
ENDBRANCH   6  19
BRANCH   4  21
ATOM     21  O   LIG A   1      -8.364   3.868 124.020  0.00  0.00    -0.506 OA
ATOM     22  H   LIG A   1      -8.419   4.322 123.164  0.00  0.00    +0.292 HD
ENDBRANCH   4  21
BRANCH   2  23
ATOM     23  O   LIG A   1      -6.272  -0.465 124.129  0.00  0.00    -0.505 OA
ATOM     24  H   LIG A   1      -6.332  -1.279 123.581  0.00  0.00    +0.292 HD
ENDBRANCH   2  23
BRANCH   3  25
ATOM     25  C   LIG A   1      -5.962   2.236 124.720  0.00  0.00    +0.069 C 
BRANCH  25  26
ATOM     26  C   LIG A   1      -5.893   2.147 126.226  0.00  0.00    -0.023 C 
ATOM     27  C   LIG A   1      -4.855   2.484 127.022  0.00  0.00    -0.076 C 
ATOM     28  C   LIG A   1      -3.534   2.998 126.515  0.00  0.00    +0.038 C 
BRANCH  27  29
ATOM     29  C   LIG A   1      -4.973   2.370 128.537  0.00  0.00    +0.034 C 
BRANCH  29  30
ATOM     30  C   LIG A   1      -5.266   0.940 129.022  0.00  0.00    +0.031 C 
BRANCH  30  31
ATOM     31  C   LIG A   1      -6.360   0.904 130.063  0.00  0.00    -0.028 C 
ATOM     32  C   LIG A   1      -7.691   1.021 129.875  0.00  0.00    -0.080 C 
ATOM     33  C   LIG A   1      -8.359   1.242 128.548  0.00  0.00    +0.038 C 
ATOM     34  C   LIG A   1      -8.646   0.961 131.042  0.00  0.00    +0.038 C 
ENDBRANCH  30  31
ENDBRANCH  29  30
ENDBRANCH  27  29
ENDBRANCH  25  26
ENDBRANCH   3  25
TORSDOF 13
ENDMDL
MODEL 7
REMARK VINA RESULT:      -7.6      6.284      7.866
REMARK  Name = NuBBE_875
REMARK  16 active torsions:
REMARK  status: ('A' for Active; 'I' for Inactive)
REMARK    1  A    between atoms: O_1  and  C_2
REMARK    2  A    between atoms: C_5  and  C_8
REMARK    3  A    between atoms: C_8  and  C_9
REMARK    4  A    between atoms: C_9  and  C_10
REMARK    5  A    between atoms: C_10  and  C_11
REMARK    6  A    between atoms: C_12  and  O_29
REMARK    7  A    between atoms: C_13  and  C_14
REMARK    8  A    between atoms: C_14  and  C_15
REMARK    9  A    between atoms: C_16  and  C_17
REMARK   10  A    between atoms: C_16  and  C_23
REMARK   11  A    between atoms: C_17  and  C_18
REMARK   12  A    between atoms: C_18  and  C_19
REMARK   13  A    between atoms: C_20  and  C_21
REMARK   14  A    between atoms: C_20  and  C_22
REMARK   15  A    between atoms: C_24  and  O_28
REMARK   16  A    between atoms: C_26  and  O_27
REMARK                            x       y       z     vdW  Elec       q    Type
REMARK                         _______ _______ _______ _____ _____    ______ ____
ROOT
ATOM      1  C   LIG A   1      -9.586   4.520 130.925  0.00  0.00    +0.101 A 
ATOM      2  C   LIG A   1      -9.459   3.162 131.305  0.00  0.00    +0.138 A 
ATOM      3  C   LIG A   1      -8.205   2.551 131.535  0.00  0.00    +0.040 A 
ATOM      4  C   LIG A   1      -7.060   3.326 131.322  0.00  0.00    +0.127 A 
ATOM      5  C   LIG A   1      -7.160   4.660 130.927  0.00  0.00    +0.092 A 
ATOM      6  C   LIG A   1      -8.411   5.256 130.736  0.00  0.00    +0.134 A 
ENDROOT
BRANCH   1   7
ATOM      7  C   LIG A   1     -10.963   5.071 130.705  0.00  0.00    +0.171 C 
ATOM      8  O   LIG A   1     -11.749   4.397 130.010  0.00  0.00    -0.292 OA
BRANCH   7   9
ATOM      9  C   LIG A   1     -11.422   6.368 131.346  0.00  0.00    +0.084 C 
BRANCH   9  10
ATOM     10  C   LIG A   1     -12.556   7.030 130.556  0.00  0.00    +0.043 C 
BRANCH  10  14
ATOM     11  C   LIG A   1     -11.300   7.849 126.521  0.00  0.00    +0.117 A 
ATOM     12  C   LIG A   1     -12.454   7.104 126.737  0.00  0.00    +0.045 A 
ATOM     13  C   LIG A   1     -12.884   6.868 128.046  0.00  0.00    +0.007 A 
ATOM     14  C   LIG A   1     -12.147   7.352 129.137  0.00  0.00    -0.047 A 
ATOM     15  C   LIG A   1     -10.988   8.101 128.895  0.00  0.00    +0.007 A 
ATOM     16  C   LIG A   1     -10.567   8.349 127.588  0.00  0.00    +0.045 A 
BRANCH  11  17
ATOM     17  O   LIG A   1     -10.852   8.110 125.260  0.00  0.00    -0.507 OA
ATOM     18  H   LIG A   1      -9.905   8.320 125.308  0.00  0.00    +0.292 HD
ENDBRANCH  11  17
ENDBRANCH  10  14
ENDBRANCH   9  10
ENDBRANCH   7   9
ENDBRANCH   1   7
BRANCH   6  19
ATOM     19  O   LIG A   1      -8.439   6.558 130.318  0.00  0.00    -0.506 OA
ATOM     20  H   LIG A   1      -7.861   6.650 129.539  0.00  0.00    +0.292 HD
ENDBRANCH   6  19
BRANCH   4  21
ATOM     21  O   LIG A   1      -5.782   2.866 131.480  0.00  0.00    -0.506 OA
ATOM     22  H   LIG A   1      -5.170   3.609 131.603  0.00  0.00    +0.292 HD
ENDBRANCH   4  21
BRANCH   2  23
ATOM     23  O   LIG A   1     -10.568   2.359 131.468  0.00  0.00    -0.505 OA
ATOM     24  H   LIG A   1     -10.378   1.486 131.059  0.00  0.00    +0.292 HD
ENDBRANCH   2  23
BRANCH   3  25
ATOM     25  C   LIG A   1      -8.140   1.100 131.976  0.00  0.00    +0.069 C 
BRANCH  25  26
ATOM     26  C   LIG A   1      -8.312   0.118 130.843  0.00  0.00    -0.023 C 
ATOM     27  C   LIG A   1      -7.342  -0.466 130.107  0.00  0.00    -0.076 C 
ATOM     28  C   LIG A   1      -5.870  -0.201 130.286  0.00  0.00    +0.038 C 
BRANCH  27  29
ATOM     29  C   LIG A   1      -7.695  -1.476 129.022  0.00  0.00    +0.034 C 
BRANCH  29  30
ATOM     30  C   LIG A   1      -8.104  -2.851 129.577  0.00  0.00    +0.031 C 
BRANCH  30  31
ATOM     31  C   LIG A   1      -6.907  -3.704 129.925  0.00  0.00    -0.028 C 
ATOM     32  C   LIG A   1      -6.365  -3.919 131.142  0.00  0.00    -0.080 C 
ATOM     33  C   LIG A   1      -6.854  -3.309 132.425  0.00  0.00    +0.038 C 
ATOM     34  C   LIG A   1      -5.158  -4.810 131.305  0.00  0.00    +0.038 C 
ENDBRANCH  30  31
ENDBRANCH  29  30
ENDBRANCH  27  29
ENDBRANCH  25  26
ENDBRANCH   3  25
TORSDOF 13
ENDMDL
MODEL 8
REMARK VINA RESULT:      -7.5      3.119      5.231
REMARK  Name = NuBBE_875
REMARK  16 active torsions:
REMARK  status: ('A' for Active; 'I' for Inactive)
REMARK    1  A    between atoms: O_1  and  C_2
REMARK    2  A    between atoms: C_5  and  C_8
REMARK    3  A    between atoms: C_8  and  C_9
REMARK    4  A    between atoms: C_9  and  C_10
REMARK    5  A    between atoms: C_10  and  C_11
REMARK    6  A    between atoms: C_12  and  O_29
REMARK    7  A    between atoms: C_13  and  C_14
REMARK    8  A    between atoms: C_14  and  C_15
REMARK    9  A    between atoms: C_16  and  C_17
REMARK   10  A    between atoms: C_16  and  C_23
REMARK   11  A    between atoms: C_17  and  C_18
REMARK   12  A    between atoms: C_18  and  C_19
REMARK   13  A    between atoms: C_20  and  C_21
REMARK   14  A    between atoms: C_20  and  C_22
REMARK   15  A    between atoms: C_24  and  O_28
REMARK   16  A    between atoms: C_26  and  O_27
REMARK                            x       y       z     vdW  Elec       q    Type
REMARK                         _______ _______ _______ _____ _____    ______ ____
ROOT
ATOM      1  C   LIG A   1      -6.573   2.997 127.364  0.00  0.00    +0.101 A 
ATOM      2  C   LIG A   1      -6.391   1.594 127.415  0.00  0.00    +0.138 A 
ATOM      3  C   LIG A   1      -7.069   0.772 128.344  0.00  0.00    +0.040 A 
ATOM      4  C   LIG A   1      -7.908   1.401 129.270  0.00  0.00    +0.127 A 
ATOM      5  C   LIG A   1      -8.087   2.784 129.254  0.00  0.00    +0.092 A 
ATOM      6  C   LIG A   1      -7.432   3.577 128.306  0.00  0.00    +0.134 A 
ENDROOT
BRANCH   1   7
ATOM      7  C   LIG A   1      -5.804   3.777 126.341  0.00  0.00    +0.171 C 
ATOM      8  O   LIG A   1      -4.601   4.003 126.573  0.00  0.00    -0.292 OA
BRANCH   7   9
ATOM      9  C   LIG A   1      -6.434   4.231 125.036  0.00  0.00    +0.084 C 
BRANCH   9  10
ATOM     10  C   LIG A   1      -6.142   3.260 123.888  0.00  0.00    +0.043 C 
BRANCH  10  14
ATOM     11  C   LIG A   1      -9.706   1.093 122.824  0.00  0.00    +0.117 A 
ATOM     12  C   LIG A   1      -9.415   2.287 122.173  0.00  0.00    +0.045 A 
ATOM     13  C   LIG A   1      -8.240   2.973 122.490  0.00  0.00    +0.007 A 
ATOM     14  C   LIG A   1      -7.371   2.482 123.476  0.00  0.00    -0.047 A 
ATOM     15  C   LIG A   1      -7.685   1.276 124.118  0.00  0.00    +0.007 A 
ATOM     16  C   LIG A   1      -8.850   0.583 123.791  0.00  0.00    +0.045 A 
BRANCH  11  17
ATOM     17  O   LIG A   1     -10.837   0.387 122.537  0.00  0.00    -0.507 OA
ATOM     18  H   LIG A   1     -11.582   1.007 122.485  0.00  0.00    +0.292 HD
ENDBRANCH  11  17
ENDBRANCH  10  14
ENDBRANCH   9  10
ENDBRANCH   7   9
ENDBRANCH   1   7
BRANCH   6  19
ATOM     19  O   LIG A   1      -7.625   4.929 128.364  0.00  0.00    -0.506 OA
ATOM     20  H   LIG A   1      -8.567   5.119 128.202  0.00  0.00    +0.292 HD
ENDBRANCH   6  19
BRANCH   4  21
ATOM     21  O   LIG A   1      -8.609   0.741 130.242  0.00  0.00    -0.506 OA
ATOM     22  H   LIG A   1      -8.418   1.124 131.113  0.00  0.00    +0.292 HD
ENDBRANCH   4  21
BRANCH   2  23
ATOM     23  O   LIG A   1      -5.529   0.954 126.550  0.00  0.00    -0.505 OA
ATOM     24  H   LIG A   1      -6.024   0.236 126.097  0.00  0.00    +0.292 HD
ENDBRANCH   2  23
BRANCH   3  25
ATOM     25  C   LIG A   1      -6.858  -0.730 128.321  0.00  0.00    +0.069 C 
BRANCH  25  26
ATOM     26  C   LIG A   1      -7.688  -1.439 127.279  0.00  0.00    -0.023 C 
ATOM     27  C   LIG A   1      -8.244  -2.667 127.368  0.00  0.00    -0.076 C 
ATOM     28  C   LIG A   1      -8.098  -3.577 128.559  0.00  0.00    +0.038 C 
BRANCH  27  29
ATOM     29  C   LIG A   1      -9.096  -3.215 126.230  0.00  0.00    +0.034 C 
BRANCH  29  30
ATOM     30  C   LIG A   1      -8.547  -2.870 124.835  0.00  0.00    +0.031 C 
BRANCH  30  31
ATOM     31  C   LIG A   1      -7.327  -3.689 124.484  0.00  0.00    -0.028 C 
ATOM     32  C   LIG A   1      -6.068  -3.256 124.269  0.00  0.00    -0.080 C 
ATOM     33  C   LIG A   1      -5.629  -1.820 124.315  0.00  0.00    +0.038 C 
ATOM     34  C   LIG A   1      -4.963  -4.225 123.926  0.00  0.00    +0.038 C 
ENDBRANCH  30  31
ENDBRANCH  29  30
ENDBRANCH  27  29
ENDBRANCH  25  26
ENDBRANCH   3  25
TORSDOF 13
ENDMDL
MODEL 9
REMARK VINA RESULT:      -7.5      3.535      6.023
REMARK  Name = NuBBE_875
REMARK  16 active torsions:
REMARK  status: ('A' for Active; 'I' for Inactive)
REMARK    1  A    between atoms: O_1  and  C_2
REMARK    2  A    between atoms: C_5  and  C_8
REMARK    3  A    between atoms: C_8  and  C_9
REMARK    4  A    between atoms: C_9  and  C_10
REMARK    5  A    between atoms: C_10  and  C_11
REMARK    6  A    between atoms: C_12  and  O_29
REMARK    7  A    between atoms: C_13  and  C_14
REMARK    8  A    between atoms: C_14  and  C_15
REMARK    9  A    between atoms: C_16  and  C_17
REMARK   10  A    between atoms: C_16  and  C_23
REMARK   11  A    between atoms: C_17  and  C_18
REMARK   12  A    between atoms: C_18  and  C_19
REMARK   13  A    between atoms: C_20  and  C_21
REMARK   14  A    between atoms: C_20  and  C_22
REMARK   15  A    between atoms: C_24  and  O_28
REMARK   16  A    between atoms: C_26  and  O_27
REMARK                            x       y       z     vdW  Elec       q    Type
REMARK                         _______ _______ _______ _____ _____    ______ ____
ROOT
ATOM      1  C   LIG A   1      -6.497   2.488 128.399  0.00  0.00    +0.101 A 
ATOM      2  C   LIG A   1      -6.482   1.208 129.003  0.00  0.00    +0.138 A 
ATOM      3  C   LIG A   1      -7.466   0.791 129.928  0.00  0.00    +0.040 A 
ATOM      4  C   LIG A   1      -8.453   1.718 130.281  0.00  0.00    +0.127 A 
ATOM      5  C   LIG A   1      -8.477   2.992 129.717  0.00  0.00    +0.092 A 
ATOM      6  C   LIG A   1      -7.513   3.375 128.778  0.00  0.00    +0.134 A 
ENDROOT
BRANCH   1   7
ATOM      7  C   LIG A   1      -5.405   2.832 127.431  0.00  0.00    +0.171 C 
ATOM      8  O   LIG A   1      -4.284   3.107 127.902  0.00  0.00    -0.292 OA
BRANCH   7   9
ATOM      9  C   LIG A   1      -5.620   2.792 125.929  0.00  0.00    +0.084 C 
BRANCH   9  10
ATOM     10  C   LIG A   1      -6.091   1.414 125.452  0.00  0.00    +0.043 C 
BRANCH  10  14
ATOM     11  C   LIG A   1     -10.248   1.306 124.339  0.00  0.00    +0.117 A 
ATOM     12  C   LIG A   1      -9.822   0.587 125.449  0.00  0.00    +0.045 A 
ATOM     13  C   LIG A   1      -8.480   0.650 125.835  0.00  0.00    +0.007 A 
ATOM     14  C   LIG A   1      -7.560   1.408 125.095  0.00  0.00    -0.047 A 
ATOM     15  C   LIG A   1      -8.013   2.126 123.979  0.00  0.00    +0.007 A 
ATOM     16  C   LIG A   1      -9.355   2.074 123.603  0.00  0.00    +0.045 A 
BRANCH  11  17
ATOM     17  O   LIG A   1     -11.550   1.281 123.935  0.00  0.00    -0.507 OA
ATOM     18  H   LIG A   1     -11.697   0.469 123.423  0.00  0.00    +0.292 HD
ENDBRANCH  11  17
ENDBRANCH  10  14
ENDBRANCH   9  10
ENDBRANCH   7   9
ENDBRANCH   1   7
BRANCH   6  19
ATOM     19  O   LIG A   1      -7.573   4.649 128.286  0.00  0.00    -0.506 OA
ATOM     20  H   LIG A   1      -8.502   4.944 128.290  0.00  0.00    +0.292 HD
ENDBRANCH   6  19
BRANCH   4  21
ATOM     21  O   LIG A   1      -9.454   1.467 131.179  0.00  0.00    -0.506 OA
ATOM     22  H   LIG A   1     -10.306   1.769 130.826  0.00  0.00    +0.292 HD
ENDBRANCH   4  21
BRANCH   2  23
ATOM     23  O   LIG A   1      -5.490   0.295 128.715  0.00  0.00    -0.505 OA
ATOM     24  H   LIG A   1      -4.623   0.700 128.943  0.00  0.00    +0.292 HD
ENDBRANCH   2  23
BRANCH   3  25
ATOM     25  C   LIG A   1      -7.413  -0.609 130.511  0.00  0.00    +0.069 C 
BRANCH  25  26
ATOM     26  C   LIG A   1      -8.095  -1.645 129.651  0.00  0.00    -0.023 C 
ATOM     27  C   LIG A   1      -7.588  -2.822 129.225  0.00  0.00    -0.076 C 
ATOM     28  C   LIG A   1      -6.192  -3.299 129.526  0.00  0.00    +0.038 C 
BRANCH  27  29
ATOM     29  C   LIG A   1      -8.438  -3.775 128.394  0.00  0.00    +0.034 C 
BRANCH  29  30
ATOM     30  C   LIG A   1      -8.948  -3.154 127.082  0.00  0.00    +0.031 C 
BRANCH  30  31
ATOM     31  C   LIG A   1      -7.828  -2.894 126.102  0.00  0.00    -0.028 C 
ATOM     32  C   LIG A   1      -7.892  -2.869 124.754  0.00  0.00    -0.080 C 
ATOM     33  C   LIG A   1      -9.129  -3.129 123.943  0.00  0.00    +0.038 C 
ATOM     34  C   LIG A   1      -6.662  -2.590 123.926  0.00  0.00    +0.038 C 
ENDBRANCH  30  31
ENDBRANCH  29  30
ENDBRANCH  27  29
ENDBRANCH  25  26
ENDBRANCH   3  25
TORSDOF 13
ENDMDL
