MODEL 1
REMARK VINA RESULT:      -6.9      0.000      0.000
REMARK  Name = NuBBE_1510
REMARK  13 active torsions:
REMARK  status: ('A' for Active; 'I' for Inactive)
REMARK    1  A    between atoms: C_1  and  C_2
REMARK    2  A    between atoms: C_1  and  C_17
REMARK    3  A    between atoms: C_2  and  S_3
REMARK    4  A    between atoms: S_3  and  C_4
REMARK    5  A    between atoms: N_7  and  C_8
REMARK    6  A    between atoms: C_9  and  S_15
REMARK    7  A    between atoms: N_13  and  C_14
REMARK    8  A    between atoms: S_15  and  C_16
REMARK    9  A    between atoms: C_20  and  O_23
REMARK   10  A    between atoms: O_23  and  C_24
REMARK   11  A    between atoms: C_24  and  C_25
REMARK   12  A    between atoms: C_26  and  C_27
REMARK   13  A    between atoms: C_26  and  C_28
REMARK                            x       y       z     vdW  Elec       q    Type
REMARK                         _______ _______ _______ _____ _____    ______ ____
ROOT
ATOM      1  C   LIG A   1      -4.022   5.286 131.550  0.00  0.00    +0.164 C 
ATOM      2  C   LIG A   1      -3.612   6.310 130.427  0.00  0.00    +0.251 C 
ATOM      3  O   LIG A   1      -3.418   7.499 130.679  0.00  0.00    -0.272 OA
ATOM      4  N   LIG A   1      -3.227   5.777 129.197  0.00  0.00    -0.282 N 
ATOM      5  C   LIG A   1      -2.724   6.691 128.181  0.00  0.00    +0.134 C 
ATOM      6  C   LIG A   1      -3.629   4.436 128.773  0.00  0.00    +0.220 C 
ATOM      7  C   LIG A   1      -4.069   3.464 129.897  0.00  0.00    +0.248 C 
ATOM      8  O   LIG A   1      -4.054   2.256 129.736  0.00  0.00    -0.273 OA
ATOM      9  N   LIG A   1      -4.684   4.070 131.007  0.00  0.00    -0.280 N 
ATOM     10  C   LIG A   1      -5.291   3.111 131.920  0.00  0.00    +0.134 C 
ENDROOT
BRANCH   1  11
ATOM     11  S   LIG A   1      -2.384   4.616 132.308  0.00  0.00    -0.129 S 
ATOM     12  C   LIG A   1      -1.887   5.896 133.483  0.00  0.00    +0.087 C 
ENDBRANCH   1  11
BRANCH   6  13
ATOM     13  S   LIG A   1      -4.976   4.527 127.516  0.00  0.00    -0.133 S 
ATOM     14  C   LIG A   1      -4.104   3.854 126.069  0.00  0.00    +0.086 C 
ENDBRANCH   6  13
BRANCH   1  15
ATOM     15  C   LIG A   1      -4.870   6.037 132.644  0.00  0.00    +0.082 C 
BRANCH  15  16
ATOM     16  C   LIG A   1      -6.367   6.173 132.359  0.00  0.00    -0.044 A 
ATOM     17  C   LIG A   1      -7.349   5.641 133.207  0.00  0.00    +0.007 A 
ATOM     18  C   LIG A   1      -8.711   5.686 132.868  0.00  0.00    +0.046 A 
ATOM     19  C   LIG A   1      -9.133   6.301 131.692  0.00  0.00    +0.121 A 
ATOM     20  C   LIG A   1      -8.176   6.912 130.886  0.00  0.00    +0.046 A 
ATOM     21  C   LIG A   1      -6.813   6.848 131.216  0.00  0.00    +0.007 A 
BRANCH  19  22
ATOM     22  O   LIG A   1     -10.485   6.314 131.459  0.00  0.00    -0.488 OA
BRANCH  22  23
ATOM     23  C   LIG A   1     -10.889   6.014 130.110  0.00  0.00    +0.256 C 
BRANCH  23  24
ATOM     24  C   LIG A   1     -11.938   7.008 129.682  0.00  0.00    +0.012 C 
ATOM     25  C   LIG A   1     -11.779   8.085 128.882  0.00  0.00    -0.076 C 
ATOM     26  C   LIG A   1     -10.493   8.535 128.242  0.00  0.00    +0.038 C 
ATOM     27  C   LIG A   1     -12.959   8.957 128.533  0.00  0.00    +0.038 C 
ENDBRANCH  23  24
ENDBRANCH  22  23
ENDBRANCH  19  22
ENDBRANCH  15  16
ENDBRANCH   1  15
TORSDOF 7
ENDMDL
MODEL 2
REMARK VINA RESULT:      -6.7      6.333      9.255
REMARK  Name = NuBBE_1510
REMARK  13 active torsions:
REMARK  status: ('A' for Active; 'I' for Inactive)
REMARK    1  A    between atoms: C_1  and  C_2
REMARK    2  A    between atoms: C_1  and  C_17
REMARK    3  A    between atoms: C_2  and  S_3
REMARK    4  A    between atoms: S_3  and  C_4
REMARK    5  A    between atoms: N_7  and  C_8
REMARK    6  A    between atoms: C_9  and  S_15
REMARK    7  A    between atoms: N_13  and  C_14
REMARK    8  A    between atoms: S_15  and  C_16
REMARK    9  A    between atoms: C_20  and  O_23
REMARK   10  A    between atoms: O_23  and  C_24
REMARK   11  A    between atoms: C_24  and  C_25
REMARK   12  A    between atoms: C_26  and  C_27
REMARK   13  A    between atoms: C_26  and  C_28
REMARK                            x       y       z     vdW  Elec       q    Type
REMARK                         _______ _______ _______ _____ _____    ______ ____
ROOT
ATOM      1  C   LIG A   1      -6.801  -1.954 130.822  0.00  0.00    +0.164 C 
ATOM      2  C   LIG A   1      -7.490  -0.554 131.029  0.00  0.00    +0.251 C 
ATOM      3  O   LIG A   1      -8.689  -0.459 131.292  0.00  0.00    -0.272 OA
ATOM      4  N   LIG A   1      -6.649   0.550 131.162  0.00  0.00    -0.282 N 
ATOM      5  C   LIG A   1      -7.252   1.837 131.479  0.00  0.00    +0.134 C 
ATOM      6  C   LIG A   1      -5.275   0.543 130.659  0.00  0.00    +0.220 C 
ATOM      7  C   LIG A   1      -4.638  -0.851 130.424  0.00  0.00    +0.248 C 
ATOM      8  O   LIG A   1      -3.429  -0.999 130.383  0.00  0.00    -0.273 OA
ATOM      9  N   LIG A   1      -5.537  -1.863 130.044  0.00  0.00    -0.280 N 
ATOM     10  C   LIG A   1      -4.872  -3.083 129.604  0.00  0.00    +0.134 C 
ENDROOT
BRANCH   1  11
ATOM     11  S   LIG A   1      -6.227  -2.548 132.561  0.00  0.00    -0.129 S 
ATOM     12  C   LIG A   1      -7.744  -3.142 133.344  0.00  0.00    +0.087 C 
ENDBRANCH   1  11
BRANCH   6  13
ATOM     13  S   LIG A   1      -5.147   1.518 129.099  0.00  0.00    -0.133 S 
ATOM     14  C   LIG A   1      -4.090   2.884 129.666  0.00  0.00    +0.086 C 
ENDBRANCH   6  13
BRANCH   1  15
ATOM     15  C   LIG A   1      -7.851  -2.958 130.213  0.00  0.00    +0.082 C 
BRANCH  15  16
ATOM     16  C   LIG A   1      -8.180  -2.770 128.731  0.00  0.00    -0.044 A 
ATOM     17  C   LIG A   1      -7.934  -1.571 128.048  0.00  0.00    +0.007 A 
ATOM     18  C   LIG A   1      -8.343  -1.388 126.717  0.00  0.00    +0.046 A 
ATOM     19  C   LIG A   1      -8.971  -2.416 126.018  0.00  0.00    +0.121 A 
ATOM     20  C   LIG A   1      -9.140  -3.642 126.656  0.00  0.00    +0.046 A 
ATOM     21  C   LIG A   1      -8.749  -3.815 127.993  0.00  0.00    +0.007 A 
BRANCH  19  22
ATOM     22  O   LIG A   1      -9.314  -2.150 124.717  0.00  0.00    -0.488 OA
BRANCH  22  23
ATOM     23  C   LIG A   1      -8.275  -1.576 123.901  0.00  0.00    +0.256 C 
BRANCH  23  24
ATOM     24  C   LIG A   1      -7.225  -2.624 123.638  0.00  0.00    +0.012 C 
ATOM     25  C   LIG A   1      -5.949  -2.646 124.083  0.00  0.00    -0.076 C 
ATOM     26  C   LIG A   1      -5.290  -1.603 124.946  0.00  0.00    +0.038 C 
ATOM     27  C   LIG A   1      -5.043  -3.802 123.743  0.00  0.00    +0.038 C 
ENDBRANCH  23  24
ENDBRANCH  22  23
ENDBRANCH  19  22
ENDBRANCH  15  16
ENDBRANCH   1  15
TORSDOF 7
ENDMDL
MODEL 3
REMARK VINA RESULT:      -6.6      2.446      3.625
REMARK  Name = NuBBE_1510
REMARK  13 active torsions:
REMARK  status: ('A' for Active; 'I' for Inactive)
REMARK    1  A    between atoms: C_1  and  C_2
REMARK    2  A    between atoms: C_1  and  C_17
REMARK    3  A    between atoms: C_2  and  S_3
REMARK    4  A    between atoms: S_3  and  C_4
REMARK    5  A    between atoms: N_7  and  C_8
REMARK    6  A    between atoms: C_9  and  S_15
REMARK    7  A    between atoms: N_13  and  C_14
REMARK    8  A    between atoms: S_15  and  C_16
REMARK    9  A    between atoms: C_20  and  O_23
REMARK   10  A    between atoms: O_23  and  C_24
REMARK   11  A    between atoms: C_24  and  C_25
REMARK   12  A    between atoms: C_26  and  C_27
REMARK   13  A    between atoms: C_26  and  C_28
REMARK                            x       y       z     vdW  Elec       q    Type
REMARK                         _______ _______ _______ _____ _____    ______ ____
ROOT
ATOM      1  C   LIG A   1      -7.392   4.688 132.984  0.00  0.00    +0.164 C 
ATOM      2  C   LIG A   1      -6.210   5.260 132.116  0.00  0.00    +0.251 C 
ATOM      3  O   LIG A   1      -5.987   6.469 132.048  0.00  0.00    -0.272 OA
ATOM      4  N   LIG A   1      -5.274   4.342 131.640  0.00  0.00    -0.282 N 
ATOM      5  C   LIG A   1      -4.104   4.855 130.941  0.00  0.00    +0.134 C 
ATOM      6  C   LIG A   1      -5.585   2.919 131.501  0.00  0.00    +0.220 C 
ATOM      7  C   LIG A   1      -6.781   2.394 132.335  0.00  0.00    +0.248 C 
ATOM      8  O   LIG A   1      -6.899   1.211 132.604  0.00  0.00    -0.273 OA
ATOM      9  N   LIG A   1      -7.810   3.326 132.558  0.00  0.00    -0.280 N 
ATOM     10  C   LIG A   1      -9.009   2.728 133.133  0.00  0.00    +0.134 C 
ENDROOT
BRANCH   1  11
ATOM     11  S   LIG A   1      -6.693   4.419 134.757  0.00  0.00    -0.129 S 
ATOM     12  C   LIG A   1      -7.482   5.713 135.741  0.00  0.00    +0.087 C 
ENDBRANCH   1  11
BRANCH   6  13
ATOM     13  S   LIG A   1      -5.867   2.483 129.731  0.00  0.00    -0.133 S 
ATOM     14  C   LIG A   1      -7.335   3.497 129.385  0.00  0.00    +0.086 C 
ENDBRANCH   6  13
BRANCH   1  15
ATOM     15  C   LIG A   1      -8.567   5.737 133.006  0.00  0.00    +0.082 C 
BRANCH  15  16
ATOM     16  C   LIG A   1      -9.295   5.959 131.678  0.00  0.00    -0.044 A 
ATOM     17  C   LIG A   1      -8.957   6.993 130.795  0.00  0.00    +0.007 A 
ATOM     18  C   LIG A   1      -9.709   7.242 129.635  0.00  0.00    +0.046 A 
ATOM     19  C   LIG A   1     -10.794   6.434 129.304  0.00  0.00    +0.121 A 
ATOM     20  C   LIG A   1     -11.084   5.348 130.126  0.00  0.00    +0.046 A 
ATOM     21  C   LIG A   1     -10.344   5.114 131.296  0.00  0.00    +0.007 A 
BRANCH  19  22
ATOM     22  O   LIG A   1     -11.453   6.741 128.141  0.00  0.00    -0.488 OA
BRANCH  22  23
ATOM     23  C   LIG A   1     -12.860   7.017 128.273  0.00  0.00    +0.256 C 
BRANCH  23  24
ATOM     24  C   LIG A   1     -13.044   8.485 128.559  0.00  0.00    +0.012 C 
ATOM     25  C   LIG A   1     -13.071   9.096 129.764  0.00  0.00    -0.076 C 
ATOM     26  C   LIG A   1     -12.929   8.425 131.104  0.00  0.00    +0.038 C 
ATOM     27  C   LIG A   1     -13.236  10.592 129.857  0.00  0.00    +0.038 C 
ENDBRANCH  23  24
ENDBRANCH  22  23
ENDBRANCH  19  22
ENDBRANCH  15  16
ENDBRANCH   1  15
TORSDOF 7
ENDMDL
MODEL 4
REMARK VINA RESULT:      -6.5      6.869      9.979
REMARK  Name = NuBBE_1510
REMARK  13 active torsions:
REMARK  status: ('A' for Active; 'I' for Inactive)
REMARK    1  A    between atoms: C_1  and  C_2
REMARK    2  A    between atoms: C_1  and  C_17
REMARK    3  A    between atoms: C_2  and  S_3
REMARK    4  A    between atoms: S_3  and  C_4
REMARK    5  A    between atoms: N_7  and  C_8
REMARK    6  A    between atoms: C_9  and  S_15
REMARK    7  A    between atoms: N_13  and  C_14
REMARK    8  A    between atoms: S_15  and  C_16
REMARK    9  A    between atoms: C_20  and  O_23
REMARK   10  A    between atoms: O_23  and  C_24
REMARK   11  A    between atoms: C_24  and  C_25
REMARK   12  A    between atoms: C_26  and  C_27
REMARK   13  A    between atoms: C_26  and  C_28
REMARK                            x       y       z     vdW  Elec       q    Type
REMARK                         _______ _______ _______ _____ _____    ______ ____
ROOT
ATOM      1  C   LIG A   1      -5.932  -1.959 130.871  0.00  0.00    +0.164 C 
ATOM      2  C   LIG A   1      -5.402  -3.272 131.560  0.00  0.00    +0.251 C 
ATOM      3  O   LIG A   1      -5.899  -4.372 131.316  0.00  0.00    -0.272 OA
ATOM      4  N   LIG A   1      -4.194  -3.180 132.250  0.00  0.00    -0.282 N 
ATOM      5  C   LIG A   1      -3.618  -4.403 132.790  0.00  0.00    +0.134 C 
ATOM      6  C   LIG A   1      -3.681  -1.903 132.747  0.00  0.00    +0.220 C 
ATOM      7  C   LIG A   1      -4.253  -0.626 132.079  0.00  0.00    +0.248 C 
ATOM      8  O   LIG A   1      -3.656   0.436 132.121  0.00  0.00    -0.273 OA
ATOM      9  N   LIG A   1      -5.581  -0.730 131.631  0.00  0.00    -0.280 N 
ATOM     10  C   LIG A   1      -6.152   0.551 131.232  0.00  0.00    +0.134 C 
ENDROOT
BRANCH   1  11
ATOM     11  S   LIG A   1      -4.957  -1.772 129.221  0.00  0.00    -0.129 S 
ATOM     12  C   LIG A   1      -4.136  -3.368 129.013  0.00  0.00    +0.087 C 
ENDBRANCH   1  11
BRANCH   6  13
ATOM     13  S   LIG A   1      -3.923  -1.770 134.571  0.00  0.00    -0.133 S 
ATOM     14  C   LIG A   1      -2.208  -1.475 135.097  0.00  0.00    +0.086 C 
ENDBRANCH   6  13
BRANCH   1  15
ATOM     15  C   LIG A   1      -7.473  -2.114 130.587  0.00  0.00    +0.082 C 
BRANCH  15  16
ATOM     16  C   LIG A   1      -7.869  -2.346 129.128  0.00  0.00    -0.044 A 
ATOM     17  C   LIG A   1      -7.825  -1.330 128.162  0.00  0.00    +0.007 A 
ATOM     18  C   LIG A   1      -8.294  -1.540 126.856  0.00  0.00    +0.046 A 
ATOM     19  C   LIG A   1      -8.780  -2.786 126.465  0.00  0.00    +0.121 A 
ATOM     20  C   LIG A   1      -8.744  -3.827 127.389  0.00  0.00    +0.046 A 
ATOM     21  C   LIG A   1      -8.294  -3.609 128.700  0.00  0.00    +0.007 A 
BRANCH  19  22
ATOM     22  O   LIG A   1      -9.195  -2.900 125.163  0.00  0.00    -0.488 OA
BRANCH  22  23
ATOM     23  C   LIG A   1      -8.337  -2.296 124.177  0.00  0.00    +0.256 C 
BRANCH  23  24
ATOM     24  C   LIG A   1      -7.180  -3.221 123.903  0.00  0.00    +0.012 C 
ATOM     25  C   LIG A   1      -5.871  -3.007 124.160  0.00  0.00    -0.076 C 
ATOM     26  C   LIG A   1      -5.277  -1.770 124.779  0.00  0.00    +0.038 C 
ATOM     27  C   LIG A   1      -4.848  -4.069 123.844  0.00  0.00    +0.038 C 
ENDBRANCH  23  24
ENDBRANCH  22  23
ENDBRANCH  19  22
ENDBRANCH  15  16
ENDBRANCH   1  15
TORSDOF 7
ENDMDL
MODEL 5
REMARK VINA RESULT:      -6.5      5.909      8.929
REMARK  Name = NuBBE_1510
REMARK  13 active torsions:
REMARK  status: ('A' for Active; 'I' for Inactive)
REMARK    1  A    between atoms: C_1  and  C_2
REMARK    2  A    between atoms: C_1  and  C_17
REMARK    3  A    between atoms: C_2  and  S_3
REMARK    4  A    between atoms: S_3  and  C_4
REMARK    5  A    between atoms: N_7  and  C_8
REMARK    6  A    between atoms: C_9  and  S_15
REMARK    7  A    between atoms: N_13  and  C_14
REMARK    8  A    between atoms: S_15  and  C_16
REMARK    9  A    between atoms: C_20  and  O_23
REMARK   10  A    between atoms: O_23  and  C_24
REMARK   11  A    between atoms: C_24  and  C_25
REMARK   12  A    between atoms: C_26  and  C_27
REMARK   13  A    between atoms: C_26  and  C_28
REMARK                            x       y       z     vdW  Elec       q    Type
REMARK                         _______ _______ _______ _____ _____    ______ ____
ROOT
ATOM      1  C   LIG A   1      -6.776  -0.262 131.293  0.00  0.00    +0.164 C 
ATOM      2  C   LIG A   1      -8.284   0.153 131.478  0.00  0.00    +0.251 C 
ATOM      3  O   LIG A   1      -9.133  -0.656 131.854  0.00  0.00    -0.272 OA
ATOM      4  N   LIG A   1      -8.570   1.518 131.455  0.00  0.00    -0.282 N 
ATOM      5  C   LIG A   1      -9.934   1.937 131.747  0.00  0.00    +0.134 C 
ATOM      6  C   LIG A   1      -7.677   2.486 130.817  0.00  0.00    +0.220 C 
ATOM      7  C   LIG A   1      -6.210   2.033 130.609  0.00  0.00    +0.248 C 
ATOM      8  O   LIG A   1      -5.310   2.840 130.456  0.00  0.00    -0.273 OA
ATOM      9  N   LIG A   1      -6.035   0.655 130.388  0.00  0.00    -0.280 N 
ATOM     10  C   LIG A   1      -4.684   0.311 129.963  0.00  0.00    +0.134 C 
ENDROOT
BRANCH   1  11
ATOM     11  S   LIG A   1      -5.922  -0.011 133.000  0.00  0.00    -0.129 S 
ATOM     12  C   LIG A   1      -5.026  -1.556 133.275  0.00  0.00    +0.087 C 
ENDBRANCH   1  11
BRANCH   6  13
ATOM     13  S   LIG A   1      -8.360   3.031 129.193  0.00  0.00    -0.133 S 
ATOM     14  C   LIG A   1      -8.575   4.806 129.519  0.00  0.00    +0.086 C 
ENDBRANCH   6  13
BRANCH   1  15
ATOM     15  C   LIG A   1      -6.710  -1.775 130.860  0.00  0.00    +0.082 C 
BRANCH  15  16
ATOM     16  C   LIG A   1      -7.427  -2.133 129.556  0.00  0.00    -0.044 A 
ATOM     17  C   LIG A   1      -8.122  -3.338 129.382  0.00  0.00    +0.007 A 
ATOM     18  C   LIG A   1      -8.680  -3.690 128.142  0.00  0.00    +0.046 A 
ATOM     19  C   LIG A   1      -8.596  -2.825 127.053  0.00  0.00    +0.121 A 
ATOM     20  C   LIG A   1      -7.987  -1.587 127.238  0.00  0.00    +0.046 A 
ATOM     21  C   LIG A   1      -7.412  -1.246 128.473  0.00  0.00    +0.007 A 
BRANCH  19  22
ATOM     22  O   LIG A   1      -9.190  -3.247 125.891  0.00  0.00    -0.488 OA
BRANCH  22  23
ATOM     23  C   LIG A   1      -8.571  -2.794 124.672  0.00  0.00    +0.256 C 
BRANCH  23  24
ATOM     24  C   LIG A   1      -7.374  -3.661 124.381  0.00  0.00    +0.012 C 
ATOM     25  C   LIG A   1      -6.083  -3.278 124.266  0.00  0.00    -0.076 C 
ATOM     26  C   LIG A   1      -5.558  -1.873 124.396  0.00  0.00    +0.038 C 
ATOM     27  C   LIG A   1      -5.005  -4.299 124.001  0.00  0.00    +0.038 C 
ENDBRANCH  23  24
ENDBRANCH  22  23
ENDBRANCH  19  22
ENDBRANCH  15  16
ENDBRANCH   1  15
TORSDOF 7
ENDMDL
MODEL 6
REMARK VINA RESULT:      -6.4      2.125      4.438
REMARK  Name = NuBBE_1510
REMARK  13 active torsions:
REMARK  status: ('A' for Active; 'I' for Inactive)
REMARK    1  A    between atoms: C_1  and  C_2
REMARK    2  A    between atoms: C_1  and  C_17
REMARK    3  A    between atoms: C_2  and  S_3
REMARK    4  A    between atoms: S_3  and  C_4
REMARK    5  A    between atoms: N_7  and  C_8
REMARK    6  A    between atoms: C_9  and  S_15
REMARK    7  A    between atoms: N_13  and  C_14
REMARK    8  A    between atoms: S_15  and  C_16
REMARK    9  A    between atoms: C_20  and  O_23
REMARK   10  A    between atoms: O_23  and  C_24
REMARK   11  A    between atoms: C_24  and  C_25
REMARK   12  A    between atoms: C_26  and  C_27
REMARK   13  A    between atoms: C_26  and  C_28
REMARK                            x       y       z     vdW  Elec       q    Type
REMARK                         _______ _______ _______ _____ _____    ______ ____
ROOT
ATOM      1  C   LIG A   1      -5.988   4.517 131.051  0.00  0.00    +0.164 C 
ATOM      2  C   LIG A   1      -6.506   3.372 132.000  0.00  0.00    +0.251 C 
ATOM      3  O   LIG A   1      -7.156   2.421 131.565  0.00  0.00    -0.272 OA
ATOM      4  N   LIG A   1      -5.986   3.340 133.294  0.00  0.00    -0.282 N 
ATOM      5  C   LIG A   1      -6.352   2.222 134.152  0.00  0.00    +0.134 C 
ATOM      6  C   LIG A   1      -5.401   4.524 133.923  0.00  0.00    +0.220 C 
ATOM      7  C   LIG A   1      -4.939   5.652 132.966  0.00  0.00    +0.248 C 
ATOM      8  O   LIG A   1      -4.117   6.484 133.312  0.00  0.00    -0.273 OA
ATOM      9  N   LIG A   1      -5.687   5.777 131.782  0.00  0.00    -0.280 N 
ATOM     10  C   LIG A   1      -5.376   6.987 131.033  0.00  0.00    +0.134 C 
ENDROOT
BRANCH   1  11
ATOM     11  S   LIG A   1      -4.271   3.949 130.391  0.00  0.00    -0.129 S 
ATOM     12  C   LIG A   1      -4.322   4.352 128.631  0.00  0.00    +0.087 C 
ENDBRANCH   1  11
BRANCH   6  13
ATOM     13  S   LIG A   1      -6.561   5.243 135.164  0.00  0.00    -0.133 S 
ATOM     14  C   LIG A   1      -8.040   5.453 134.129  0.00  0.00    +0.086 C 
ENDBRANCH   6  13
BRANCH   1  15
ATOM     15  C   LIG A   1      -7.005   4.698 129.862  0.00  0.00    +0.082 C 
BRANCH  15  16
ATOM     16  C   LIG A   1      -8.419   5.138 130.248  0.00  0.00    -0.044 A 
ATOM     17  C   LIG A   1      -8.707   6.427 130.718  0.00  0.00    +0.007 A 
ATOM     18  C   LIG A   1      -9.993   6.772 131.166  0.00  0.00    +0.046 A 
ATOM     19  C   LIG A   1     -11.036   5.850 131.115  0.00  0.00    +0.121 A 
ATOM     20  C   LIG A   1     -10.783   4.596 130.566  0.00  0.00    +0.046 A 
ATOM     21  C   LIG A   1      -9.492   4.246 130.138  0.00  0.00    +0.007 A 
BRANCH  19  22
ATOM     22  O   LIG A   1     -12.260   6.287 131.554  0.00  0.00    -0.488 OA
BRANCH  22  23
ATOM     23  C   LIG A   1     -12.780   7.457 130.896  0.00  0.00    +0.256 C 
BRANCH  23  24
ATOM     24  C   LIG A   1     -13.088   7.115 129.462  0.00  0.00    +0.012 C 
ATOM     25  C   LIG A   1     -12.459   7.558 128.352  0.00  0.00    -0.076 C 
ATOM     26  C   LIG A   1     -11.298   8.516 128.311  0.00  0.00    +0.038 C 
ATOM     27  C   LIG A   1     -12.888   7.079 126.988  0.00  0.00    +0.038 C 
ENDBRANCH  23  24
ENDBRANCH  22  23
ENDBRANCH  19  22
ENDBRANCH  15  16
ENDBRANCH   1  15
TORSDOF 7
ENDMDL
MODEL 7
REMARK VINA RESULT:      -6.4      4.007      6.639
REMARK  Name = NuBBE_1510
REMARK  13 active torsions:
REMARK  status: ('A' for Active; 'I' for Inactive)
REMARK    1  A    between atoms: C_1  and  C_2
REMARK    2  A    between atoms: C_1  and  C_17
REMARK    3  A    between atoms: C_2  and  S_3
REMARK    4  A    between atoms: S_3  and  C_4
REMARK    5  A    between atoms: N_7  and  C_8
REMARK    6  A    between atoms: C_9  and  S_15
REMARK    7  A    between atoms: N_13  and  C_14
REMARK    8  A    between atoms: S_15  and  C_16
REMARK    9  A    between atoms: C_20  and  O_23
REMARK   10  A    between atoms: O_23  and  C_24
REMARK   11  A    between atoms: C_24  and  C_25
REMARK   12  A    between atoms: C_26  and  C_27
REMARK   13  A    between atoms: C_26  and  C_28
REMARK                            x       y       z     vdW  Elec       q    Type
REMARK                         _______ _______ _______ _____ _____    ______ ____
ROOT
ATOM      1  C   LIG A   1      -8.190   4.089 130.684  0.00  0.00    +0.164 C 
ATOM      2  C   LIG A   1      -8.172   5.653 130.508  0.00  0.00    +0.251 C 
ATOM      3  O   LIG A   1      -7.117   6.289 130.513  0.00  0.00    -0.272 OA
ATOM      4  N   LIG A   1      -9.358   6.255 130.090  0.00  0.00    -0.282 N 
ATOM      5  C   LIG A   1      -9.337   7.682 129.799  0.00  0.00    +0.134 C 
ATOM      6  C   LIG A   1     -10.659   5.612 130.271  0.00  0.00    +0.220 C 
ATOM      7  C   LIG A   1     -10.643   4.077 130.485  0.00  0.00    +0.248 C 
ATOM      8  O   LIG A   1     -11.628   3.393 130.268  0.00  0.00    -0.273 OA
ATOM      9  N   LIG A   1      -9.507   3.578 131.147  0.00  0.00    -0.280 N 
ATOM     10  C   LIG A   1      -9.641   2.181 131.538  0.00  0.00    +0.134 C 
ENDROOT
BRANCH   1  11
ATOM     11  S   LIG A   1      -8.000   3.335 128.923  0.00  0.00    -0.129 S 
ATOM     12  C   LIG A   1      -6.648   2.148 129.096  0.00  0.00    +0.087 C 
ENDBRANCH   1  11
BRANCH   6  13
ATOM     13  S   LIG A   1     -11.581   6.390 131.667  0.00  0.00    -0.133 S 
ATOM     14  C   LIG A   1     -12.905   7.226 130.744  0.00  0.00    +0.086 C 
ENDBRANCH   6  13
BRANCH   1  15
ATOM     15  C   LIG A   1      -6.983   3.661 131.601  0.00  0.00    +0.082 C 
BRANCH  15  16
ATOM     16  C   LIG A   1      -6.894   4.355 132.962  0.00  0.00    -0.044 A 
ATOM     17  C   LIG A   1      -7.920   4.283 133.915  0.00  0.00    +0.007 A 
ATOM     18  C   LIG A   1      -7.861   5.015 135.112  0.00  0.00    +0.046 A 
ATOM     19  C   LIG A   1      -6.753   5.806 135.409  0.00  0.00    +0.121 A 
ATOM     20  C   LIG A   1      -5.688   5.814 134.512  0.00  0.00    +0.046 A 
ATOM     21  C   LIG A   1      -5.758   5.098 133.306  0.00  0.00    +0.007 A 
BRANCH  19  22
ATOM     22  O   LIG A   1      -6.776   6.466 136.611  0.00  0.00    -0.488 OA
BRANCH  22  23
ATOM     23  C   LIG A   1      -8.078   6.652 137.197  0.00  0.00    +0.256 C 
BRANCH  23  24
ATOM     24  C   LIG A   1      -8.048   7.874 138.076  0.00  0.00    +0.012 C 
ATOM     25  C   LIG A   1      -9.025   8.792 138.251  0.00  0.00    -0.076 C 
ATOM     26  C   LIG A   1     -10.374   8.792 137.583  0.00  0.00    +0.038 C 
ATOM     27  C   LIG A   1      -8.828   9.943 139.204  0.00  0.00    +0.038 C 
ENDBRANCH  23  24
ENDBRANCH  22  23
ENDBRANCH  19  22
ENDBRANCH  15  16
ENDBRANCH   1  15
TORSDOF 7
ENDMDL
MODEL 8
REMARK VINA RESULT:      -6.4      7.807     10.460
REMARK  Name = NuBBE_1510
REMARK  13 active torsions:
REMARK  status: ('A' for Active; 'I' for Inactive)
REMARK    1  A    between atoms: C_1  and  C_2
REMARK    2  A    between atoms: C_1  and  C_17
REMARK    3  A    between atoms: C_2  and  S_3
REMARK    4  A    between atoms: S_3  and  C_4
REMARK    5  A    between atoms: N_7  and  C_8
REMARK    6  A    between atoms: C_9  and  S_15
REMARK    7  A    between atoms: N_13  and  C_14
REMARK    8  A    between atoms: S_15  and  C_16
REMARK    9  A    between atoms: C_20  and  O_23
REMARK   10  A    between atoms: O_23  and  C_24
REMARK   11  A    between atoms: C_24  and  C_25
REMARK   12  A    between atoms: C_26  and  C_27
REMARK   13  A    between atoms: C_26  and  C_28
REMARK                            x       y       z     vdW  Elec       q    Type
REMARK                         _______ _______ _______ _____ _____    ______ ____
ROOT
ATOM      1  C   LIG A   1      -6.347  -2.011 124.972  0.00  0.00    +0.164 C 
ATOM      2  C   LIG A   1      -6.082  -0.476 125.202  0.00  0.00    +0.251 C 
ATOM      3  O   LIG A   1      -5.033  -0.073 125.706  0.00  0.00    -0.272 OA
ATOM      4  N   LIG A   1      -6.957   0.416 124.583  0.00  0.00    -0.282 N 
ATOM      5  C   LIG A   1      -6.665   1.839 124.676  0.00  0.00    +0.134 C 
ATOM      6  C   LIG A   1      -8.303   0.018 124.168  0.00  0.00    +0.220 C 
ATOM      7  C   LIG A   1      -8.545  -1.502 123.991  0.00  0.00    +0.248 C 
ATOM      8  O   LIG A   1      -9.459  -1.925 123.304  0.00  0.00    -0.273 OA
ATOM      9  N   LIG A   1      -7.793  -2.331 124.841  0.00  0.00    -0.280 N 
ATOM     10  C   LIG A   1      -8.223  -3.723 124.810  0.00  0.00    +0.134 C 
ENDROOT
BRANCH   1  11
ATOM     11  S   LIG A   1      -5.624  -2.440 123.240  0.00  0.00    -0.129 S 
ATOM     12  C   LIG A   1      -4.520  -3.834 123.558  0.00  0.00    +0.087 C 
ENDBRANCH   1  11
BRANCH   6  13
ATOM     13  S   LIG A   1      -9.568   0.683 125.334  0.00  0.00    -0.133 S 
ATOM     14  C   LIG A   1     -10.699   1.477 124.154  0.00  0.00    +0.086 C 
ENDBRANCH   6  13
BRANCH   1  15
ATOM     15  C   LIG A   1      -5.612  -2.833 126.096  0.00  0.00    +0.082 C 
BRANCH  15  16
ATOM     16  C   LIG A   1      -5.994  -2.491 127.538  0.00  0.00    -0.044 A 
ATOM     17  C   LIG A   1      -5.063  -2.022 128.475  0.00  0.00    +0.007 A 
ATOM     18  C   LIG A   1      -5.415  -1.818 129.819  0.00  0.00    +0.046 A 
ATOM     19  C   LIG A   1      -6.721  -2.035 130.253  0.00  0.00    +0.121 A 
ATOM     20  C   LIG A   1      -7.675  -2.414 129.313  0.00  0.00    +0.046 A 
ATOM     21  C   LIG A   1      -7.316  -2.638 127.975  0.00  0.00    +0.007 A 
BRANCH  19  22
ATOM     22  O   LIG A   1      -6.974  -1.787 131.579  0.00  0.00    -0.488 OA
BRANCH  22  23
ATOM     23  C   LIG A   1      -7.395  -2.922 132.358  0.00  0.00    +0.256 C 
BRANCH  23  24
ATOM     24  C   LIG A   1      -6.183  -3.569 132.973  0.00  0.00    +0.012 C 
ATOM     25  C   LIG A   1      -5.422  -4.560 132.457  0.00  0.00    -0.076 C 
ATOM     26  C   LIG A   1      -5.635  -5.246 131.134  0.00  0.00    +0.038 C 
ATOM     27  C   LIG A   1      -4.216  -5.066 133.207  0.00  0.00    +0.038 C 
ENDBRANCH  23  24
ENDBRANCH  22  23
ENDBRANCH  19  22
ENDBRANCH  15  16
ENDBRANCH   1  15
TORSDOF 7
ENDMDL
MODEL 9
REMARK VINA RESULT:      -6.3      5.560      8.443
REMARK  Name = NuBBE_1510
REMARK  13 active torsions:
REMARK  status: ('A' for Active; 'I' for Inactive)
REMARK    1  A    between atoms: C_1  and  C_2
REMARK    2  A    between atoms: C_1  and  C_17
REMARK    3  A    between atoms: C_2  and  S_3
REMARK    4  A    between atoms: S_3  and  C_4
REMARK    5  A    between atoms: N_7  and  C_8
REMARK    6  A    between atoms: C_9  and  S_15
REMARK    7  A    between atoms: N_13  and  C_14
REMARK    8  A    between atoms: S_15  and  C_16
REMARK    9  A    between atoms: C_20  and  O_23
REMARK   10  A    between atoms: O_23  and  C_24
REMARK   11  A    between atoms: C_24  and  C_25
REMARK   12  A    between atoms: C_26  and  C_27
REMARK   13  A    between atoms: C_26  and  C_28
REMARK                            x       y       z     vdW  Elec       q    Type
REMARK                         _______ _______ _______ _____ _____    ______ ____
ROOT
ATOM      1  C   LIG A   1      -6.928   1.432 129.752  0.00  0.00    +0.164 C 
ATOM      2  C   LIG A   1      -7.791   2.329 128.788  0.00  0.00    +0.251 C 
ATOM      3  O   LIG A   1      -9.019   2.370 128.874  0.00  0.00    -0.272 OA
ATOM      4  N   LIG A   1      -7.106   3.265 128.014  0.00  0.00    -0.282 N 
ATOM      5  C   LIG A   1      -7.888   4.192 127.207  0.00  0.00    +0.134 C 
ATOM      6  C   LIG A   1      -5.682   3.126 127.710  0.00  0.00    +0.220 C 
ATOM      7  C   LIG A   1      -4.866   2.203 128.651  0.00  0.00    +0.248 C 
ATOM      8  O   LIG A   1      -3.655   2.301 128.746  0.00  0.00    -0.273 OA
ATOM      9  N   LIG A   1      -5.582   1.124 129.199  0.00  0.00    -0.280 N 
ATOM     10  C   LIG A   1      -4.729   0.156 129.876  0.00  0.00    +0.134 C 
ENDROOT
BRANCH   1  11
ATOM     11  S   LIG A   1      -6.549   2.503 131.307  0.00  0.00    -0.129 S 
ATOM     12  C   LIG A   1      -8.046   2.366 132.310  0.00  0.00    +0.087 C 
ENDBRANCH   1  11
BRANCH   6  13
ATOM     13  S   LIG A   1      -5.439   2.556 125.973  0.00  0.00    -0.133 S 
ATOM     14  C   LIG A   1      -4.712   4.056 125.247  0.00  0.00    +0.086 C 
ENDBRANCH   6  13
BRANCH   1  15
ATOM     15  C   LIG A   1      -7.761   0.156 130.149  0.00  0.00    +0.082 C 
BRANCH  15  16
ATOM     16  C   LIG A   1      -7.870  -0.934 129.082  0.00  0.00    -0.044 A 
ATOM     17  C   LIG A   1      -7.917  -0.647 127.710  0.00  0.00    +0.007 A 
ATOM     18  C   LIG A   1      -8.126  -1.657 126.757  0.00  0.00    +0.046 A 
ATOM     19  C   LIG A   1      -8.248  -2.989 127.146  0.00  0.00    +0.121 A 
ATOM     20  C   LIG A   1      -8.113  -3.298 128.497  0.00  0.00    +0.046 A 
ATOM     21  C   LIG A   1      -7.925  -2.284 129.450  0.00  0.00    +0.007 A 
BRANCH  19  22
ATOM     22  O   LIG A   1      -8.427  -3.906 126.141  0.00  0.00    -0.488 OA
BRANCH  22  23
ATOM     23  C   LIG A   1      -8.185  -3.426 124.806  0.00  0.00    +0.256 C 
BRANCH  23  24
ATOM     24  C   LIG A   1      -6.890  -4.009 124.304  0.00  0.00    +0.012 C 
ATOM     25  C   LIG A   1      -5.703  -3.381 124.151  0.00  0.00    -0.076 C 
ATOM     26  C   LIG A   1      -5.421  -1.932 124.447  0.00  0.00    +0.038 C 
ATOM     27  C   LIG A   1      -4.496  -4.139 123.662  0.00  0.00    +0.038 C 
ENDBRANCH  23  24
ENDBRANCH  22  23
ENDBRANCH  19  22
ENDBRANCH  15  16
ENDBRANCH   1  15
TORSDOF 7
ENDMDL
