MODEL 1
REMARK VINA RESULT:      -8.1      0.000      0.000
REMARK  Name = NuBBE_2507
REMARK  5 active torsions:
REMARK  status: ('A' for Active; 'I' for Inactive)
REMARK    1  A    between atoms: C_1  and  C_2
REMARK    2  A    between atoms: C_2  and  C_3
REMARK    3  A    between atoms: C_2  and  C_4
REMARK    4  A    between atoms: C_16  and  C_17
REMARK    5  A    between atoms: C_16  and  C_18
REMARK                            x       y       z     vdW  Elec       q    Type
REMARK                         _______ _______ _______ _____ _____    ______ ____
ROOT
ATOM      1  C   LIG A   1     -11.721   6.663 129.952  0.00  0.00    +0.006 C 
ATOM      2  C   LIG A   1     -10.737   6.041 129.280  0.00  0.00    +0.014 C 
ATOM      3  C   LIG A   1      -9.596   5.451 129.925  0.00  0.00    -0.011 C 
ATOM      4  C   LIG A   1      -9.357   5.520 131.247  0.00  0.00    +0.017 C 
ATOM      5  C   LIG A   1     -10.304   6.265 132.097  0.00  0.00    +0.230 C 
ATOM      6  O   LIG A   1     -10.085   6.500 133.277  0.00  0.00    -0.283 OA
ATOM      7  C   LIG A   1     -11.599   6.753 131.443  0.00  0.00    +0.229 C 
ATOM      8  O   LIG A   1     -12.503   7.206 132.134  0.00  0.00    -0.283 OA
ATOM      9  C   LIG A   1      -8.038   4.882 131.674  0.00  0.00    +0.027 C 
ATOM     10  C   LIG A   1      -7.593   4.985 133.140  0.00  0.00    +0.014 C 
ATOM     11  C   LIG A   1      -8.248   3.982 134.091  0.00  0.00    +0.001 C 
ATOM     12  C   LIG A   1      -9.343   3.135 133.462  0.00  0.00    +0.007 C 
ATOM     13  C   LIG A   1      -8.941   2.440 132.133  0.00  0.00    -0.031 C 
ATOM     14  C   LIG A   1      -8.110   1.176 132.467  0.00  0.00    +0.011 C 
ATOM     15  C   LIG A   1     -10.251   1.949 131.480  0.00  0.00    +0.011 C 
ATOM     16  C   LIG A   1      -8.059   3.377 131.224  0.00  0.00    +0.010 C 
ATOM     17  C   LIG A   1      -8.320   3.321 129.688  0.00  0.00    +0.041 C 
ATOM     18  C   LIG A   1      -8.508   4.748 129.141  0.00  0.00    +0.149 C 
ATOM     19  O   LIG A   1      -7.282   5.469 129.368  0.00  0.00    -0.371 OA
ATOM     20  C   LIG A   1      -6.978   5.595 130.774  0.00  0.00    +0.172 C 
ENDROOT
BRANCH   1  22
ATOM     21  C   LIG A   1     -13.291   6.652 128.000  0.00  0.00    +0.012 C 
ATOM     22  C   LIG A   1     -12.946   7.315 129.336  0.00  0.00    +0.017 C 
ATOM     23  C   LIG A   1     -12.825   8.833 129.148  0.00  0.00    +0.012 C 
ENDBRANCH   1  22
TORSDOF 1
ENDMDL
MODEL 2
REMARK VINA RESULT:      -7.9      7.496      9.208
REMARK  Name = NuBBE_2507
REMARK  5 active torsions:
REMARK  status: ('A' for Active; 'I' for Inactive)
REMARK    1  A    between atoms: C_1  and  C_2
REMARK    2  A    between atoms: C_2  and  C_3
REMARK    3  A    between atoms: C_2  and  C_4
REMARK    4  A    between atoms: C_16  and  C_17
REMARK    5  A    between atoms: C_16  and  C_18
REMARK                            x       y       z     vdW  Elec       q    Type
REMARK                         _______ _______ _______ _____ _____    ______ ____
ROOT
ATOM      1  C   LIG A   1      -7.022   2.471 124.259  0.00  0.00    +0.006 C 
ATOM      2  C   LIG A   1      -6.273   1.803 125.153  0.00  0.00    +0.014 C 
ATOM      3  C   LIG A   1      -6.616   0.498 125.647  0.00  0.00    -0.011 C 
ATOM      4  C   LIG A   1      -7.747  -0.157 125.328  0.00  0.00    +0.017 C 
ATOM      5  C   LIG A   1      -8.717   0.504 124.434  0.00  0.00    +0.230 C 
ATOM      6  O   LIG A   1      -9.828   0.045 124.214  0.00  0.00    -0.283 OA
ATOM      7  C   LIG A   1      -8.283   1.817 123.779  0.00  0.00    +0.229 C 
ATOM      8  O   LIG A   1      -8.962   2.311 122.886  0.00  0.00    -0.283 OA
ATOM      9  C   LIG A   1      -7.915  -1.493 126.046  0.00  0.00    +0.027 C 
ATOM     10  C   LIG A   1      -9.212  -2.292 125.853  0.00  0.00    +0.014 C 
ATOM     11  C   LIG A   1      -9.286  -3.112 124.564  0.00  0.00    +0.001 C 
ATOM     12  C   LIG A   1      -8.123  -2.895 123.608  0.00  0.00    +0.007 C 
ATOM     13  C   LIG A   1      -6.719  -3.027 124.256  0.00  0.00    -0.031 C 
ATOM     14  C   LIG A   1      -6.374  -4.532 124.386  0.00  0.00    +0.011 C 
ATOM     15  C   LIG A   1      -5.713  -2.427 123.251  0.00  0.00    +0.011 C 
ATOM     16  C   LIG A   1      -6.675  -2.391 125.697  0.00  0.00    +0.010 C 
ATOM     17  C   LIG A   1      -5.377  -1.621 126.090  0.00  0.00    +0.041 C 
ATOM     18  C   LIG A   1      -5.745  -0.235 126.647  0.00  0.00    +0.149 C 
ATOM     19  O   LIG A   1      -6.534  -0.434 127.836  0.00  0.00    -0.371 OA
ATOM     20  C   LIG A   1      -7.775  -1.118 127.557  0.00  0.00    +0.172 C 
ENDROOT
BRANCH   1  22
ATOM     21  C   LIG A   1      -5.931   3.745 122.399  0.00  0.00    +0.012 C 
ATOM     22  C   LIG A   1      -6.726   3.851 123.703  0.00  0.00    +0.017 C 
ATOM     23  C   LIG A   1      -5.998   4.783 124.681  0.00  0.00    +0.012 C 
ENDBRANCH   1  22
TORSDOF 1
ENDMDL
MODEL 3
REMARK VINA RESULT:      -7.8      6.488      8.993
REMARK  Name = NuBBE_2507
REMARK  5 active torsions:
REMARK  status: ('A' for Active; 'I' for Inactive)
REMARK    1  A    between atoms: C_1  and  C_2
REMARK    2  A    between atoms: C_2  and  C_3
REMARK    3  A    between atoms: C_2  and  C_4
REMARK    4  A    between atoms: C_16  and  C_17
REMARK    5  A    between atoms: C_16  and  C_18
REMARK                            x       y       z     vdW  Elec       q    Type
REMARK                         _______ _______ _______ _____ _____    ______ ____
ROOT
ATOM      1  C   LIG A   1      -8.321   1.460 127.522  0.00  0.00    +0.006 C 
ATOM      2  C   LIG A   1      -7.841   0.330 128.070  0.00  0.00    +0.014 C 
ATOM      3  C   LIG A   1      -7.881  -0.943 127.405  0.00  0.00    -0.011 C 
ATOM      4  C   LIG A   1      -8.459  -1.153 126.208  0.00  0.00    +0.017 C 
ATOM      5  C   LIG A   1      -9.120  -0.019 125.536  0.00  0.00    +0.230 C 
ATOM      6  O   LIG A   1      -9.793  -0.154 124.524  0.00  0.00    -0.283 OA
ATOM      7  C   LIG A   1      -8.940   1.367 126.160  0.00  0.00    +0.229 C 
ATOM      8  O   LIG A   1      -9.300   2.366 125.550  0.00  0.00    -0.283 OA
ATOM      9  C   LIG A   1      -8.436  -2.609 125.754  0.00  0.00    +0.027 C 
ATOM     10  C   LIG A   1      -9.157  -3.004 124.456  0.00  0.00    +0.014 C 
ATOM     11  C   LIG A   1      -8.383  -2.715 123.169  0.00  0.00    +0.001 C 
ATOM     12  C   LIG A   1      -7.083  -1.953 123.370  0.00  0.00    +0.007 C 
ATOM     13  C   LIG A   1      -6.140  -2.553 124.446  0.00  0.00    -0.031 C 
ATOM     14  C   LIG A   1      -5.379  -3.751 123.826  0.00  0.00    +0.011 C 
ATOM     15  C   LIG A   1      -5.083  -1.471 124.757  0.00  0.00    +0.011 C 
ATOM     16  C   LIG A   1      -6.939  -3.078 125.699  0.00  0.00    +0.010 C 
ATOM     17  C   LIG A   1      -6.292  -2.842 127.099  0.00  0.00    +0.041 C 
ATOM     18  C   LIG A   1      -7.322  -2.198 128.044  0.00  0.00    +0.149 C 
ATOM     19  O   LIG A   1      -8.415  -3.123 128.197  0.00  0.00    -0.371 OA
ATOM     20  C   LIG A   1      -9.093  -3.376 126.947  0.00  0.00    +0.172 C 
ENDROOT
BRANCH   1  22
ATOM     21  C   LIG A   1      -6.902   3.406 128.210  0.00  0.00    +0.012 C 
ATOM     22  C   LIG A   1      -8.321   2.833 128.169  0.00  0.00    +0.017 C 
ATOM     23  C   LIG A   1      -8.938   2.868 129.574  0.00  0.00    +0.012 C 
ENDBRANCH   1  22
TORSDOF 1
ENDMDL
MODEL 4
REMARK VINA RESULT:      -7.4      6.258      9.232
REMARK  Name = NuBBE_2507
REMARK  5 active torsions:
REMARK  status: ('A' for Active; 'I' for Inactive)
REMARK    1  A    between atoms: C_1  and  C_2
REMARK    2  A    between atoms: C_2  and  C_3
REMARK    3  A    between atoms: C_2  and  C_4
REMARK    4  A    between atoms: C_16  and  C_17
REMARK    5  A    between atoms: C_16  and  C_18
REMARK                            x       y       z     vdW  Elec       q    Type
REMARK                         _______ _______ _______ _____ _____    ______ ____
ROOT
ATOM      1  C   LIG A   1      -7.176  -0.784 129.682  0.00  0.00    +0.006 C 
ATOM      2  C   LIG A   1      -7.839  -0.010 128.805  0.00  0.00    +0.014 C 
ATOM      3  C   LIG A   1      -7.694  -0.135 127.381  0.00  0.00    -0.011 C 
ATOM      4  C   LIG A   1      -6.836  -0.980 126.780  0.00  0.00    +0.017 C 
ATOM      5  C   LIG A   1      -5.966  -1.820 127.625  0.00  0.00    +0.230 C 
ATOM      6  O   LIG A   1      -5.061  -2.501 127.165  0.00  0.00    -0.283 OA
ATOM      7  C   LIG A   1      -6.230  -1.808 129.132  0.00  0.00    +0.229 C 
ATOM      8  O   LIG A   1      -5.673  -2.622 129.859  0.00  0.00    -0.283 OA
ATOM      9  C   LIG A   1      -6.815  -0.867 125.259  0.00  0.00    +0.027 C 
ATOM     10  C   LIG A   1      -5.803  -1.699 124.457  0.00  0.00    +0.014 C 
ATOM     11  C   LIG A   1      -6.200  -3.157 124.223  0.00  0.00    +0.001 C 
ATOM     12  C   LIG A   1      -7.467  -3.591 124.943  0.00  0.00    +0.007 C 
ATOM     13  C   LIG A   1      -8.687  -2.657 124.729  0.00  0.00    -0.031 C 
ATOM     14  C   LIG A   1      -9.321  -2.977 123.353  0.00  0.00    +0.011 C 
ATOM     15  C   LIG A   1      -9.731  -3.044 125.798  0.00  0.00    +0.011 C 
ATOM     16  C   LIG A   1      -8.269  -1.137 124.732  0.00  0.00    +0.010 C 
ATOM     17  C   LIG A   1      -9.244  -0.137 125.426  0.00  0.00    +0.041 C 
ATOM     18  C   LIG A   1      -8.463   0.745 126.417  0.00  0.00    +0.149 C 
ATOM     19  O   LIG A   1      -7.496   1.501 125.663  0.00  0.00    -0.371 OA
ATOM     20  C   LIG A   1      -6.531   0.650 125.008  0.00  0.00    +0.172 C 
ENDROOT
BRANCH   1  22
ATOM     21  C   LIG A   1      -8.660  -0.207 131.615  0.00  0.00    +0.012 C 
ATOM     22  C   LIG A   1      -7.273  -0.700 131.194  0.00  0.00    +0.017 C 
ATOM     23  C   LIG A   1      -6.192   0.169 131.849  0.00  0.00    +0.012 C 
ENDBRANCH   1  22
TORSDOF 1
ENDMDL
MODEL 5
REMARK VINA RESULT:      -7.4      1.755      3.180
REMARK  Name = NuBBE_2507
REMARK  5 active torsions:
REMARK  status: ('A' for Active; 'I' for Inactive)
REMARK    1  A    between atoms: C_1  and  C_2
REMARK    2  A    between atoms: C_2  and  C_3
REMARK    3  A    between atoms: C_2  and  C_4
REMARK    4  A    between atoms: C_16  and  C_17
REMARK    5  A    between atoms: C_16  and  C_18
REMARK                            x       y       z     vdW  Elec       q    Type
REMARK                         _______ _______ _______ _____ _____    ______ ____
ROOT
ATOM      1  C   LIG A   1     -10.724   6.190 130.413  0.00  0.00    +0.006 C 
ATOM      2  C   LIG A   1     -10.821   4.952 130.929  0.00  0.00    +0.014 C 
ATOM      3  C   LIG A   1      -9.678   4.151 131.267  0.00  0.00    -0.011 C 
ATOM      4  C   LIG A   1      -8.403   4.518 131.041  0.00  0.00    +0.017 C 
ATOM      5  C   LIG A   1      -8.150   5.813 130.381  0.00  0.00    +0.230 C 
ATOM      6  O   LIG A   1      -7.037   6.154 130.007  0.00  0.00    -0.283 OA
ATOM      7  C   LIG A   1      -9.351   6.737 130.168  0.00  0.00    +0.229 C 
ATOM      8  O   LIG A   1      -9.177   7.894 129.803  0.00  0.00    -0.283 OA
ATOM      9  C   LIG A   1      -7.373   3.458 131.419  0.00  0.00    +0.027 C 
ATOM     10  C   LIG A   1      -5.890   3.707 131.112  0.00  0.00    +0.014 C 
ATOM     11  C   LIG A   1      -5.160   4.601 132.115  0.00  0.00    +0.001 C 
ATOM     12  C   LIG A   1      -6.053   5.219 133.180  0.00  0.00    +0.007 C 
ATOM     13  C   LIG A   1      -6.970   4.210 133.921  0.00  0.00    -0.031 C 
ATOM     14  C   LIG A   1      -6.133   3.479 135.000  0.00  0.00    +0.011 C 
ATOM     15  C   LIG A   1      -8.028   5.046 134.672  0.00  0.00    +0.011 C 
ATOM     16  C   LIG A   1      -7.558   3.123 132.942  0.00  0.00    +0.010 C 
ATOM     17  C   LIG A   1      -9.035   2.683 133.180  0.00  0.00    +0.041 C 
ATOM     18  C   LIG A   1      -9.819   2.762 131.857  0.00  0.00    +0.149 C 
ATOM     19  O   LIG A   1      -9.213   1.840 130.932  0.00  0.00    -0.371 OA
ATOM     20  C   LIG A   1      -7.845   2.192 130.631  0.00  0.00    +0.172 C 
ENDROOT
BRANCH   1  22
ATOM     21  C   LIG A   1     -12.766   7.381 131.241  0.00  0.00    +0.012 C 
ATOM     22  C   LIG A   1     -11.885   7.085 130.023  0.00  0.00    +0.017 C 
ATOM     23  C   LIG A   1     -12.748   6.539 128.878  0.00  0.00    +0.012 C 
ENDBRANCH   1  22
TORSDOF 1
ENDMDL
MODEL 6
REMARK VINA RESULT:      -7.3      2.512      5.812
REMARK  Name = NuBBE_2507
REMARK  5 active torsions:
REMARK  status: ('A' for Active; 'I' for Inactive)
REMARK    1  A    between atoms: C_1  and  C_2
REMARK    2  A    between atoms: C_2  and  C_3
REMARK    3  A    between atoms: C_2  and  C_4
REMARK    4  A    between atoms: C_16  and  C_17
REMARK    5  A    between atoms: C_16  and  C_18
REMARK                            x       y       z     vdW  Elec       q    Type
REMARK                         _______ _______ _______ _____ _____    ______ ____
ROOT
ATOM      1  C   LIG A   1      -4.377   6.595 131.891  0.00  0.00    +0.006 C 
ATOM      2  C   LIG A   1      -4.723   5.912 132.996  0.00  0.00    +0.014 C 
ATOM      3  C   LIG A   1      -6.079   5.544 133.299  0.00  0.00    -0.011 C 
ATOM      4  C   LIG A   1      -7.142   5.902 132.557  0.00  0.00    +0.017 C 
ATOM      5  C   LIG A   1      -6.920   6.746 131.367  0.00  0.00    +0.230 C 
ATOM      6  O   LIG A   1      -7.839   7.236 130.727  0.00  0.00    -0.283 OA
ATOM      7  C   LIG A   1      -5.470   7.002 130.951  0.00  0.00    +0.229 C 
ATOM      8  O   LIG A   1      -5.226   7.530 129.873  0.00  0.00    -0.283 OA
ATOM      9  C   LIG A   1      -8.482   5.454 133.133  0.00  0.00    +0.027 C 
ATOM     10  C   LIG A   1      -9.782   5.889 132.441  0.00  0.00    +0.014 C 
ATOM     11  C   LIG A   1     -10.171   5.066 131.212  0.00  0.00    +0.001 C 
ATOM     12  C   LIG A   1      -9.136   4.038 130.785  0.00  0.00    +0.007 C 
ATOM     13  C   LIG A   1      -8.638   3.109 131.923  0.00  0.00    -0.031 C 
ATOM     14  C   LIG A   1      -9.693   1.998 132.154  0.00  0.00    +0.011 C 
ATOM     15  C   LIG A   1      -7.367   2.409 131.396  0.00  0.00    +0.011 C 
ATOM     16  C   LIG A   1      -8.449   3.891 133.278  0.00  0.00    +0.010 C 
ATOM     17  C   LIG A   1      -7.220   3.498 134.155  0.00  0.00    +0.041 C 
ATOM     18  C   LIG A   1      -6.438   4.764 134.547  0.00  0.00    +0.149 C 
ATOM     19  O   LIG A   1      -7.312   5.595 135.334  0.00  0.00    -0.371 OA
ATOM     20  C   LIG A   1      -8.468   6.031 134.586  0.00  0.00    +0.172 C 
ENDROOT
BRANCH   1  22
ATOM     21  C   LIG A   1      -2.022   5.823 131.531  0.00  0.00    +0.012 C 
ATOM     22  C   LIG A   1      -2.970   7.024 131.515  0.00  0.00    +0.017 C 
ATOM     23  C   LIG A   1      -2.399   8.150 132.386  0.00  0.00    +0.012 C 
ENDBRANCH   1  22
TORSDOF 1
ENDMDL
MODEL 7
REMARK VINA RESULT:      -7.3      1.832      2.910
REMARK  Name = NuBBE_2507
REMARK  5 active torsions:
REMARK  status: ('A' for Active; 'I' for Inactive)
REMARK    1  A    between atoms: C_1  and  C_2
REMARK    2  A    between atoms: C_2  and  C_3
REMARK    3  A    between atoms: C_2  and  C_4
REMARK    4  A    between atoms: C_16  and  C_17
REMARK    5  A    between atoms: C_16  and  C_18
REMARK                            x       y       z     vdW  Elec       q    Type
REMARK                         _______ _______ _______ _____ _____    ______ ____
ROOT
ATOM      1  C   LIG A   1     -10.266   7.210 129.643  0.00  0.00    +0.006 C 
ATOM      2  C   LIG A   1      -9.177   7.238 130.431  0.00  0.00    +0.014 C 
ATOM      3  C   LIG A   1      -8.727   6.104 131.190  0.00  0.00    -0.011 C 
ATOM      4  C   LIG A   1      -9.378   4.928 131.250  0.00  0.00    +0.017 C 
ATOM      5  C   LIG A   1     -10.650   4.789 130.515  0.00  0.00    +0.230 C 
ATOM      6  O   LIG A   1     -11.375   3.812 130.634  0.00  0.00    -0.283 OA
ATOM      7  C   LIG A   1     -11.047   5.933 129.579  0.00  0.00    +0.229 C 
ATOM      8  O   LIG A   1     -11.986   5.793 128.803  0.00  0.00    -0.283 OA
ATOM      9  C   LIG A   1      -8.738   3.909 132.187  0.00  0.00    +0.027 C 
ATOM     10  C   LIG A   1      -9.439   2.565 132.430  0.00  0.00    +0.014 C 
ATOM     11  C   LIG A   1      -9.228   1.515 131.339  0.00  0.00    +0.001 C 
ATOM     12  C   LIG A   1      -8.475   2.015 130.116  0.00  0.00    +0.007 C 
ATOM     13  C   LIG A   1      -7.142   2.744 130.431  0.00  0.00    -0.031 C 
ATOM     14  C   LIG A   1      -6.049   1.683 130.711  0.00  0.00    +0.011 C 
ATOM     15  C   LIG A   1      -6.726   3.478 129.137  0.00  0.00    +0.011 C 
ATOM     16  C   LIG A   1      -7.264   3.665 131.704  0.00  0.00    +0.010 C 
ATOM     17  C   LIG A   1      -6.521   5.036 131.658  0.00  0.00    +0.041 C 
ATOM     18  C   LIG A   1      -7.489   6.163 132.061  0.00  0.00    +0.149 C 
ATOM     19  O   LIG A   1      -7.908   5.918 133.417  0.00  0.00    -0.371 OA
ATOM     20  C   LIG A   1      -8.634   4.675 133.546  0.00  0.00    +0.172 C 
ENDROOT
BRANCH   1  22
ATOM     21  C   LIG A   1     -12.206   8.755 129.298  0.00  0.00    +0.012 C 
ATOM     22  C   LIG A   1     -10.803   8.369 128.825  0.00  0.00    +0.017 C 
ATOM     23  C   LIG A   1     -10.815   8.121 127.310  0.00  0.00    +0.012 C 
ENDBRANCH   1  22
TORSDOF 1
ENDMDL
MODEL 8
REMARK VINA RESULT:      -7.2      7.024      8.925
REMARK  Name = NuBBE_2507
REMARK  5 active torsions:
REMARK  status: ('A' for Active; 'I' for Inactive)
REMARK    1  A    between atoms: C_1  and  C_2
REMARK    2  A    between atoms: C_2  and  C_3
REMARK    3  A    between atoms: C_2  and  C_4
REMARK    4  A    between atoms: C_16  and  C_17
REMARK    5  A    between atoms: C_16  and  C_18
REMARK                            x       y       z     vdW  Elec       q    Type
REMARK                         _______ _______ _______ _____ _____    ______ ____
ROOT
ATOM      1  C   LIG A   1      -4.309   2.667 126.356  0.00  0.00    +0.006 C 
ATOM      2  C   LIG A   1      -4.397   1.600 127.169  0.00  0.00    +0.014 C 
ATOM      3  C   LIG A   1      -5.492   0.672 127.130  0.00  0.00    -0.011 C 
ATOM      4  C   LIG A   1      -6.570   0.807 126.336  0.00  0.00    +0.017 C 
ATOM      5  C   LIG A   1      -6.657   1.993 125.463  0.00  0.00    +0.230 C 
ATOM      6  O   LIG A   1      -7.663   2.267 124.824  0.00  0.00    -0.283 OA
ATOM      7  C   LIG A   1      -5.424   2.895 125.381  0.00  0.00    +0.229 C 
ATOM      8  O   LIG A   1      -5.366   3.780 124.535  0.00  0.00    -0.283 OA
ATOM      9  C   LIG A   1      -7.631  -0.270 126.539  0.00  0.00    +0.027 C 
ATOM     10  C   LIG A   1      -8.958  -0.172 125.772  0.00  0.00    +0.014 C 
ATOM     11  C   LIG A   1      -8.910  -0.661 124.324  0.00  0.00    +0.001 C 
ATOM     12  C   LIG A   1      -7.522  -1.034 123.827  0.00  0.00    +0.007 C 
ATOM     13  C   LIG A   1      -6.742  -2.005 124.753  0.00  0.00    -0.031 C 
ATOM     14  C   LIG A   1      -7.254  -3.445 124.505  0.00  0.00    +0.011 C 
ATOM     15  C   LIG A   1      -5.271  -1.970 124.287  0.00  0.00    +0.011 C 
ATOM     16  C   LIG A   1      -6.962  -1.666 126.277  0.00  0.00    +0.010 C 
ATOM     17  C   LIG A   1      -5.727  -1.810 127.218  0.00  0.00    +0.041 C 
ATOM     18  C   LIG A   1      -5.559  -0.528 128.053  0.00  0.00    +0.149 C 
ATOM     19  O   LIG A   1      -6.736  -0.377 128.868  0.00  0.00    -0.371 OA
ATOM     20  C   LIG A   1      -7.930  -0.206 128.072  0.00  0.00    +0.172 C 
ENDROOT
BRANCH   1  22
ATOM     21  C   LIG A   1      -1.832   3.002 126.514  0.00  0.00    +0.012 C 
ATOM     22  C   LIG A   1      -3.189   3.691 126.349  0.00  0.00    +0.017 C 
ATOM     23  C   LIG A   1      -3.340   4.800 127.400  0.00  0.00    +0.012 C 
ENDBRANCH   1  22
TORSDOF 1
ENDMDL
MODEL 9
REMARK VINA RESULT:      -7.1      6.461      9.187
REMARK  Name = NuBBE_2507
REMARK  5 active torsions:
REMARK  status: ('A' for Active; 'I' for Inactive)
REMARK    1  A    between atoms: C_1  and  C_2
REMARK    2  A    between atoms: C_2  and  C_3
REMARK    3  A    between atoms: C_2  and  C_4
REMARK    4  A    between atoms: C_16  and  C_17
REMARK    5  A    between atoms: C_16  and  C_18
REMARK                            x       y       z     vdW  Elec       q    Type
REMARK                         _______ _______ _______ _____ _____    ______ ____
ROOT
ATOM      1  C   LIG A   1      -6.620  -2.009 125.053  0.00  0.00    +0.006 C 
ATOM      2  C   LIG A   1      -6.002  -1.043 125.756  0.00  0.00    +0.014 C 
ATOM      3  C   LIG A   1      -6.162  -0.879 127.174  0.00  0.00    -0.011 C 
ATOM      4  C   LIG A   1      -6.992  -1.620 127.931  0.00  0.00    +0.017 C 
ATOM      5  C   LIG A   1      -7.815  -2.652 127.273  0.00  0.00    +0.230 C 
ATOM      6  O   LIG A   1      -8.696  -3.264 127.859  0.00  0.00    -0.283 OA
ATOM      7  C   LIG A   1      -7.529  -2.939 125.797  0.00  0.00    +0.229 C 
ATOM      8  O   LIG A   1      -8.042  -3.909 125.250  0.00  0.00    -0.283 OA
ATOM      9  C   LIG A   1      -7.040  -1.197 129.397  0.00  0.00    +0.027 C 
ATOM     10  C   LIG A   1      -8.027  -1.891 130.347  0.00  0.00    +0.014 C 
ATOM     11  C   LIG A   1      -7.573  -3.250 130.878  0.00  0.00    +0.001 C 
ATOM     12  C   LIG A   1      -6.279  -3.768 130.270  0.00  0.00    +0.007 C 
ATOM     13  C   LIG A   1      -5.102  -2.756 130.294  0.00  0.00    -0.031 C 
ATOM     14  C   LIG A   1      -4.475  -2.758 131.710  0.00  0.00    +0.011 C 
ATOM     15  C   LIG A   1      -4.028  -3.308 129.332  0.00  0.00    +0.011 C 
ATOM     16  C   LIG A   1      -5.584  -1.289 129.976  0.00  0.00    +0.010 C 
ATOM     17  C   LIG A   1      -4.641  -0.411 129.095  0.00  0.00    +0.041 C 
ATOM     18  C   LIG A   1      -5.445   0.213 127.940  0.00  0.00    +0.149 C 
ATOM     19  O   LIG A   1      -6.453   1.065 128.517  0.00  0.00    -0.371 OA
ATOM     20  C   LIG A   1      -7.391   0.325 129.328  0.00  0.00    +0.172 C 
ENDROOT
BRANCH   1  22
ATOM     21  C   LIG A   1      -5.180  -2.923 123.219  0.00  0.00    +0.012 C 
ATOM     22  C   LIG A   1      -6.504  -2.234 123.557  0.00  0.00    +0.017 C 
ATOM     23  C   LIG A   1      -6.658  -0.961 122.714  0.00  0.00    +0.012 C 
ENDBRANCH   1  22
TORSDOF 1
ENDMDL
