MODEL 1
REMARK VINA RESULT:      -6.4      0.000      0.000
REMARK  Name = NuBBE_2240
REMARK  3 active torsions:
REMARK  status: ('A' for Active; 'I' for Inactive)
REMARK    1  A    between atoms: C_2  and  N_3
REMARK    2  A    between atoms: C_10  and  O_14
REMARK    3  A    between atoms: O_14  and  C_15
REMARK                            x       y       z     vdW  Elec       q    Type
REMARK                         _______ _______ _______ _____ _____    ______ ____
ROOT
ATOM      1  O   LIG A   1     -11.525   6.347 131.967  0.00  0.00    -0.408 OA
ATOM      2  C   LIG A   1     -10.172   6.166 131.560  0.00  0.00    +0.196 A 
ATOM      3  C   LIG A   1      -9.751   6.776 130.442  0.00  0.00    +0.108 A 
ATOM      4  C   LIG A   1     -10.632   7.599 129.659  0.00  0.00    +0.132 A 
ATOM      5  C   LIG A   1     -11.899   7.777 130.048  0.00  0.00    +0.137 A 
ATOM      6  C   LIG A   1     -12.395   7.132 131.272  0.00  0.00    +0.342 A 
ATOM      7  O   LIG A   1     -13.555   7.311 131.630  0.00  0.00    -0.245 OA
ENDROOT
BRANCH   2   8
ATOM      8  N   LIG A   1      -9.397   5.331 132.377  0.00  0.00    -0.301 N 
ATOM      9  C   LIG A   1      -8.238   5.884 133.111  0.00  0.00    +0.108 C 
ATOM     10  C   LIG A   1      -8.012   5.130 134.420  0.00  0.00    +0.019 C 
ATOM     11  C   LIG A   1      -7.873   3.631 134.186  0.00  0.00    +0.003 C 
ATOM     12  C   LIG A   1      -9.080   3.110 133.418  0.00  0.00    +0.019 C 
ATOM     13  C   LIG A   1      -9.283   3.883 132.117  0.00  0.00    +0.108 C 
ENDBRANCH   2   8
BRANCH   4  14
ATOM     14  O   LIG A   1     -10.024   8.119 128.543  0.00  0.00    -0.495 OA
ATOM     15  C   LIG A   1     -10.759   8.103 127.325  0.00  0.00    +0.277 C 
ENDBRANCH   4  14
TORSDOF 2
ENDMDL
MODEL 2
REMARK VINA RESULT:      -6.3      2.156      5.811
REMARK  Name = NuBBE_2240
REMARK  3 active torsions:
REMARK  status: ('A' for Active; 'I' for Inactive)
REMARK    1  A    between atoms: C_2  and  N_3
REMARK    2  A    between atoms: C_10  and  O_14
REMARK    3  A    between atoms: O_14  and  C_15
REMARK                            x       y       z     vdW  Elec       q    Type
REMARK                         _______ _______ _______ _____ _____    ______ ____
ROOT
ATOM      1  O   LIG A   1      -8.453   7.329 130.265  0.00  0.00    -0.408 OA
ATOM      2  C   LIG A   1      -9.762   6.919 130.651  0.00  0.00    +0.196 A 
ATOM      3  C   LIG A   1      -9.898   6.155 131.745  0.00  0.00    +0.108 A 
ATOM      4  C   LIG A   1      -8.760   5.747 132.523  0.00  0.00    +0.132 A 
ATOM      5  C   LIG A   1      -7.533   6.141 132.165  0.00  0.00    +0.137 A 
ATOM      6  C   LIG A   1      -7.343   6.986 130.979  0.00  0.00    +0.342 A 
ATOM      7  O   LIG A   1      -6.216   7.355 130.665  0.00  0.00    -0.245 OA
ENDROOT
BRANCH   2   8
ATOM      8  N   LIG A   1     -10.805   7.349 129.820  0.00  0.00    -0.301 N 
ATOM      9  C   LIG A   1     -10.518   8.243 128.677  0.00  0.00    +0.108 C 
ATOM     10  C   LIG A   1     -11.504   8.002 127.536  0.00  0.00    +0.019 C 
ATOM     11  C   LIG A   1     -12.947   8.128 128.007  0.00  0.00    +0.003 C 
ATOM     12  C   LIG A   1     -13.192   7.201 129.189  0.00  0.00    +0.019 C 
ATOM     13  C   LIG A   1     -12.191   7.462 130.313  0.00  0.00    +0.108 C 
ENDBRANCH   2   8
BRANCH   4  14
ATOM     14  O   LIG A   1      -9.101   4.953 133.590  0.00  0.00    -0.495 OA
ATOM     15  C   LIG A   1      -9.084   3.544 133.394  0.00  0.00    +0.277 C 
ENDBRANCH   4  14
TORSDOF 2
ENDMDL
MODEL 3
REMARK VINA RESULT:      -6.3      2.175      3.351
REMARK  Name = NuBBE_2240
REMARK  3 active torsions:
REMARK  status: ('A' for Active; 'I' for Inactive)
REMARK    1  A    between atoms: C_2  and  N_3
REMARK    2  A    between atoms: C_10  and  O_14
REMARK    3  A    between atoms: O_14  and  C_15
REMARK                            x       y       z     vdW  Elec       q    Type
REMARK                         _______ _______ _______ _____ _____    ______ ____
ROOT
ATOM      1  O   LIG A   1     -11.784   6.381 128.607  0.00  0.00    -0.408 OA
ATOM      2  C   LIG A   1     -11.606   6.816 129.953  0.00  0.00    +0.196 A 
ATOM      3  C   LIG A   1     -12.077   8.022 130.304  0.00  0.00    +0.108 A 
ATOM      4  C   LIG A   1     -12.746   8.872 129.358  0.00  0.00    +0.132 A 
ATOM      5  C   LIG A   1     -12.921   8.458 128.098  0.00  0.00    +0.137 A 
ATOM      6  C   LIG A   1     -12.429   7.139 127.677  0.00  0.00    +0.342 A 
ATOM      7  O   LIG A   1     -12.605   6.761 126.523  0.00  0.00    -0.245 OA
ENDROOT
BRANCH   2   8
ATOM      8  N   LIG A   1     -10.924   5.927 130.795  0.00  0.00    -0.301 N 
ATOM      9  C   LIG A   1     -10.894   4.484 130.477  0.00  0.00    +0.108 C 
ATOM     10  C   LIG A   1      -9.602   3.842 130.978  0.00  0.00    +0.019 C 
ATOM     11  C   LIG A   1      -9.388   4.100 132.464  0.00  0.00    +0.003 C 
ATOM     12  C   LIG A   1      -9.440   5.595 132.745  0.00  0.00    +0.019 C 
ATOM     13  C   LIG A   1     -10.740   6.210 132.232  0.00  0.00    +0.108 C 
ENDBRANCH   2   8
BRANCH   4  14
ATOM     14  O   LIG A   1     -13.135  10.072 129.901  0.00  0.00    -0.495 OA
ATOM     15  C   LIG A   1     -13.887  10.954 129.076  0.00  0.00    +0.277 C 
ENDBRANCH   4  14
TORSDOF 2
ENDMDL
MODEL 4
REMARK VINA RESULT:      -6.2      2.000      3.436
REMARK  Name = NuBBE_2240
REMARK  3 active torsions:
REMARK  status: ('A' for Active; 'I' for Inactive)
REMARK    1  A    between atoms: C_2  and  N_3
REMARK    2  A    between atoms: C_10  and  O_14
REMARK    3  A    between atoms: O_14  and  C_15
REMARK                            x       y       z     vdW  Elec       q    Type
REMARK                         _______ _______ _______ _____ _____    ______ ____
ROOT
ATOM      1  O   LIG A   1      -9.745   6.595 128.335  0.00  0.00    -0.408 OA
ATOM      2  C   LIG A   1     -10.288   7.064 129.566  0.00  0.00    +0.196 A 
ATOM      3  C   LIG A   1     -11.371   7.855 129.529  0.00  0.00    +0.108 A 
ATOM      4  C   LIG A   1     -11.982   8.235 128.284  0.00  0.00    +0.132 A 
ATOM      5  C   LIG A   1     -11.476   7.785 127.130  0.00  0.00    +0.137 A 
ATOM      6  C   LIG A   1     -10.297   6.908 127.129  0.00  0.00    +0.342 A 
ATOM      7  O   LIG A   1      -9.848   6.489 126.068  0.00  0.00    -0.245 OA
ENDROOT
BRANCH   2   8
ATOM      8  N   LIG A   1      -9.612   6.657 130.725  0.00  0.00    -0.301 N 
ATOM      9  C   LIG A   1     -10.374   6.340 131.952  0.00  0.00    +0.108 C 
ATOM     10  C   LIG A   1      -9.658   5.273 132.777  0.00  0.00    +0.019 C 
ATOM     11  C   LIG A   1      -8.223   5.674 133.088  0.00  0.00    +0.003 C 
ATOM     12  C   LIG A   1      -7.483   6.003 131.799  0.00  0.00    +0.019 C 
ATOM     13  C   LIG A   1      -8.221   7.069 130.994  0.00  0.00    +0.108 C 
ENDBRANCH   2   8
BRANCH   4  14
ATOM     14  O   LIG A   1     -13.063   9.063 128.452  0.00  0.00    -0.495 OA
ATOM     15  C   LIG A   1     -13.060   9.929 129.581  0.00  0.00    +0.277 C 
ENDBRANCH   4  14
TORSDOF 2
ENDMDL
MODEL 5
REMARK VINA RESULT:      -5.8     10.293     11.576
REMARK  Name = NuBBE_2240
REMARK  3 active torsions:
REMARK  status: ('A' for Active; 'I' for Inactive)
REMARK    1  A    between atoms: C_2  and  N_3
REMARK    2  A    between atoms: C_10  and  O_14
REMARK    3  A    between atoms: O_14  and  C_15
REMARK                            x       y       z     vdW  Elec       q    Type
REMARK                         _______ _______ _______ _____ _____    ______ ____
ROOT
ATOM      1  O   LIG A   1      -7.813  -1.765 124.678  0.00  0.00    -0.408 OA
ATOM      2  C   LIG A   1      -6.901  -2.477 125.511  0.00  0.00    +0.196 A 
ATOM      3  C   LIG A   1      -5.757  -2.926 124.973  0.00  0.00    +0.108 A 
ATOM      4  C   LIG A   1      -5.441  -2.705 123.588  0.00  0.00    +0.132 A 
ATOM      5  C   LIG A   1      -6.293  -2.028 122.810  0.00  0.00    +0.137 A 
ATOM      6  C   LIG A   1      -7.552  -1.511 123.365  0.00  0.00    +0.342 A 
ATOM      7  O   LIG A   1      -8.322  -0.880 122.648  0.00  0.00    -0.245 OA
ENDROOT
BRANCH   2   8
ATOM      8  N   LIG A   1      -7.306  -2.659 126.841  0.00  0.00    -0.301 N 
ATOM      9  C   LIG A   1      -8.716  -2.984 127.145  0.00  0.00    +0.108 C 
ATOM     10  C   LIG A   1      -8.817  -3.839 128.407  0.00  0.00    +0.019 C 
ATOM     11  C   LIG A   1      -8.118  -3.180 129.588  0.00  0.00    +0.003 C 
ATOM     12  C   LIG A   1      -6.677  -2.853 129.224  0.00  0.00    +0.019 C 
ATOM     13  C   LIG A   1      -6.605  -2.000 127.960  0.00  0.00    +0.108 C 
ENDBRANCH   2   8
BRANCH   4  14
ATOM     14  O   LIG A   1      -4.239  -3.257 123.221  0.00  0.00    -0.495 OA
ATOM     15  C   LIG A   1      -4.037  -4.638 123.496  0.00  0.00    +0.277 C 
ENDBRANCH   4  14
TORSDOF 2
ENDMDL
MODEL 6
REMARK VINA RESULT:      -5.6      8.765      9.939
REMARK  Name = NuBBE_2240
REMARK  3 active torsions:
REMARK  status: ('A' for Active; 'I' for Inactive)
REMARK    1  A    between atoms: C_2  and  N_3
REMARK    2  A    between atoms: C_10  and  O_14
REMARK    3  A    between atoms: O_14  and  C_15
REMARK                            x       y       z     vdW  Elec       q    Type
REMARK                         _______ _______ _______ _____ _____    ______ ____
ROOT
ATOM      1  O   LIG A   1      -8.617   1.686 124.775  0.00  0.00    -0.408 OA
ATOM      2  C   LIG A   1      -7.974   0.728 123.938  0.00  0.00    +0.196 A 
ATOM      3  C   LIG A   1      -7.149   1.168 122.977  0.00  0.00    +0.108 A 
ATOM      4  C   LIG A   1      -6.905   2.571 122.779  0.00  0.00    +0.132 A 
ATOM      5  C   LIG A   1      -7.501   3.468 123.572  0.00  0.00    +0.137 A 
ATOM      6  C   LIG A   1      -8.405   3.026 124.643  0.00  0.00    +0.342 A 
ATOM      7  O   LIG A   1      -8.937   3.854 125.375  0.00  0.00    -0.245 OA
ENDROOT
BRANCH   2   8
ATOM      8  N   LIG A   1      -8.290  -0.613 124.194  0.00  0.00    -0.301 N 
ATOM      9  C   LIG A   1      -8.187  -1.146 125.570  0.00  0.00    +0.108 C 
ATOM     10  C   LIG A   1      -9.207  -2.259 125.800  0.00  0.00    +0.019 C 
ATOM     11  C   LIG A   1      -9.082  -3.359 124.754  0.00  0.00    +0.003 C 
ATOM     12  C   LIG A   1      -9.180  -2.763 123.357  0.00  0.00    +0.019 C 
ATOM     13  C   LIG A   1      -8.152  -1.652 123.156  0.00  0.00    +0.108 C 
ENDBRANCH   2   8
BRANCH   4  14
ATOM     14  O   LIG A   1      -6.049   2.822 121.736  0.00  0.00    -0.495 OA
ATOM     15  C   LIG A   1      -6.461   3.773 120.761  0.00  0.00    +0.277 C 
ENDBRANCH   4  14
TORSDOF 2
ENDMDL
MODEL 7
REMARK VINA RESULT:      -5.6      2.329      5.328
REMARK  Name = NuBBE_2240
REMARK  3 active torsions:
REMARK  status: ('A' for Active; 'I' for Inactive)
REMARK    1  A    between atoms: C_2  and  N_3
REMARK    2  A    between atoms: C_10  and  O_14
REMARK    3  A    between atoms: O_14  and  C_15
REMARK                            x       y       z     vdW  Elec       q    Type
REMARK                         _______ _______ _______ _____ _____    ______ ____
ROOT
ATOM      1  O   LIG A   1      -9.956   5.767 131.840  0.00  0.00    -0.408 OA
ATOM      2  C   LIG A   1      -9.527   6.712 130.862  0.00  0.00    +0.196 A 
ATOM      3  C   LIG A   1      -8.223   7.022 130.799  0.00  0.00    +0.108 A 
ATOM      4  C   LIG A   1      -7.265   6.427 131.690  0.00  0.00    +0.132 A 
ATOM      5  C   LIG A   1      -7.668   5.533 132.600  0.00  0.00    +0.137 A 
ATOM      6  C   LIG A   1      -9.086   5.159 132.694  0.00  0.00    +0.342 A 
ATOM      7  O   LIG A   1      -9.445   4.328 133.522  0.00  0.00    -0.245 OA
ENDROOT
BRANCH   2   8
ATOM      8  N   LIG A   1     -10.536   7.252 130.054  0.00  0.00    -0.301 N 
ATOM      9  C   LIG A   1     -11.932   7.288 130.540  0.00  0.00    +0.108 C 
ATOM     10  C   LIG A   1     -12.681   8.485 129.957  0.00  0.00    +0.019 C 
ATOM     11  C   LIG A   1     -12.609   8.504 128.436  0.00  0.00    +0.003 C 
ATOM     12  C   LIG A   1     -11.157   8.453 127.983  0.00  0.00    +0.019 C 
ATOM     13  C   LIG A   1     -10.433   7.250 128.582  0.00  0.00    +0.108 C 
ENDBRANCH   2   8
BRANCH   4  14
ATOM     14  O   LIG A   1      -5.988   6.886 131.484  0.00  0.00    -0.495 OA
ATOM     15  C   LIG A   1      -5.102   6.056 130.742  0.00  0.00    +0.277 C 
ENDBRANCH   4  14
TORSDOF 2
ENDMDL
MODEL 8
REMARK VINA RESULT:      -5.6      1.606      2.234
REMARK  Name = NuBBE_2240
REMARK  3 active torsions:
REMARK  status: ('A' for Active; 'I' for Inactive)
REMARK    1  A    between atoms: C_2  and  N_3
REMARK    2  A    between atoms: C_10  and  O_14
REMARK    3  A    between atoms: O_14  and  C_15
REMARK                            x       y       z     vdW  Elec       q    Type
REMARK                         _______ _______ _______ _____ _____    ______ ____
ROOT
ATOM      1  O   LIG A   1     -11.561   6.067 131.174  0.00  0.00    -0.408 OA
ATOM      2  C   LIG A   1     -10.444   5.864 130.312  0.00  0.00    +0.196 A 
ATOM      3  C   LIG A   1     -10.266   6.708 129.285  0.00  0.00    +0.108 A 
ATOM      4  C   LIG A   1     -11.171   7.798 129.042  0.00  0.00    +0.132 A 
ATOM      5  C   LIG A   1     -12.213   7.993 129.858  0.00  0.00    +0.137 A 
ATOM      6  C   LIG A   1     -12.437   7.096 131.000  0.00  0.00    +0.342 A 
ATOM      7  O   LIG A   1     -13.387   7.289 131.752  0.00  0.00    -0.245 OA
ENDROOT
BRANCH   2   8
ATOM      8  N   LIG A   1      -9.631   4.765 130.617  0.00  0.00    -0.301 N 
ATOM      9  C   LIG A   1     -10.156   3.391 130.462  0.00  0.00    +0.108 C 
ATOM     10  C   LIG A   1      -9.035   2.417 130.104  0.00  0.00    +0.019 C 
ATOM     11  C   LIG A   1      -7.896   2.479 131.113  0.00  0.00    +0.003 C 
ATOM     12  C   LIG A   1      -7.397   3.910 131.249  0.00  0.00    +0.019 C 
ATOM     13  C   LIG A   1      -8.538   4.862 131.604  0.00  0.00    +0.108 C 
ENDBRANCH   2   8
BRANCH   4  14
ATOM     14  O   LIG A   1     -10.833   8.536 127.934  0.00  0.00    -0.495 OA
ATOM     15  C   LIG A   1     -10.896   7.889 126.668  0.00  0.00    +0.277 C 
ENDBRANCH   4  14
TORSDOF 2
ENDMDL
MODEL 9
REMARK VINA RESULT:      -5.6      8.130      9.084
REMARK  Name = NuBBE_2240
REMARK  3 active torsions:
REMARK  status: ('A' for Active; 'I' for Inactive)
REMARK    1  A    between atoms: C_2  and  N_3
REMARK    2  A    between atoms: C_10  and  O_14
REMARK    3  A    between atoms: O_14  and  C_15
REMARK                            x       y       z     vdW  Elec       q    Type
REMARK                         _______ _______ _______ _____ _____    ______ ____
ROOT
ATOM      1  O   LIG A   1      -9.294  -1.019 124.480  0.00  0.00    -0.408 OA
ATOM      2  C   LIG A   1      -8.878  -0.559 125.763  0.00  0.00    +0.196 A 
ATOM      3  C   LIG A   1      -8.818   0.763 125.982  0.00  0.00    +0.108 A 
ATOM      4  C   LIG A   1      -9.160   1.711 124.956  0.00  0.00    +0.132 A 
ATOM      5  C   LIG A   1      -9.560   1.277 123.756  0.00  0.00    +0.137 A 
ATOM      6  C   LIG A   1      -9.649  -0.163 123.480  0.00  0.00    +0.342 A 
ATOM      7  O   LIG A   1     -10.029  -0.553 122.381  0.00  0.00    -0.245 OA
ENDROOT
BRANCH   2   8
ATOM      8  N   LIG A   1      -8.547  -1.557 126.690  0.00  0.00    -0.301 N 
ATOM      9  C   LIG A   1      -7.540  -1.286 127.739  0.00  0.00    +0.108 C 
ATOM     10  C   LIG A   1      -7.840  -2.091 129.002  0.00  0.00    +0.019 C 
ATOM     11  C   LIG A   1      -7.962  -3.579 128.702  0.00  0.00    +0.003 C 
ATOM     12  C   LIG A   1      -8.998  -3.807 127.611  0.00  0.00    +0.019 C 
ATOM     13  C   LIG A   1      -8.675  -2.990 126.362  0.00  0.00    +0.108 C 
ENDBRANCH   2   8
BRANCH   4  14
ATOM     14  O   LIG A   1      -9.016   3.013 125.364  0.00  0.00    -0.495 OA
ATOM     15  C   LIG A   1      -7.943   3.763 124.806  0.00  0.00    +0.277 C 
ENDBRANCH   4  14
TORSDOF 2
ENDMDL
