MODEL 1
REMARK VINA RESULT:      -7.7      0.000      0.000
REMARK  Name = NuBBE_1525
REMARK  19 active torsions:
REMARK  status: ('A' for Active; 'I' for Inactive)
REMARK    1  A    between atoms: C_1  and  C_2
REMARK    2  A    between atoms: C_7  and  C_9
REMARK    3  A    between atoms: C_7  and  C_25
REMARK    4  A    between atoms: C_9  and  C_10
REMARK    5  A    between atoms: C_10  and  C_11
REMARK    6  A    between atoms: C_11  and  C_12
REMARK    7  A    between atoms: C_12  and  C_13
REMARK    8  A    between atoms: C_12  and  C_24
REMARK    9  A    between atoms: C_13  and  C_14
REMARK   10  A    between atoms: C_14  and  C_15
REMARK   11  A    between atoms: C_15  and  C_16
REMARK   12  A    between atoms: C_16  and  C_17
REMARK   13  A    between atoms: C_16  and  C_23
REMARK   14  A    between atoms: C_17  and  C_18
REMARK   15  A    between atoms: C_18  and  C_19
REMARK   16  A    between atoms: C_19  and  C_20
REMARK   17  A    between atoms: C_20  and  C_21
REMARK   18  A    between atoms: C_20  and  C_22
REMARK   19  A    between atoms: C_27  and  O_29
REMARK                            x       y       z     vdW  Elec       q    Type
REMARK                         _______ _______ _______ _____ _____    ______ ____
ROOT
ATOM      1  C   LIG A   1      -6.484   1.861 124.150  0.00  0.00    +0.048 C 
ENDROOT
BRANCH   1   8
ATOM      2  C   LIG A   1      -9.230   3.722 120.216  0.00  0.00    +0.048 C 
ATOM      3  C   LIG A   1      -7.765   4.044 120.094  0.00  0.00    -0.005 A 
ATOM      4  C   LIG A   1      -6.871   3.713 121.082  0.00  0.00    +0.128 A 
ATOM      5  C   LIG A   1      -5.584   4.266 121.117  0.00  0.00    -0.002 A 
ATOM      6  C   LIG A   1      -4.801   4.125 122.378  0.00  0.00    +0.043 C 
ATOM      7  C   LIG A   1      -5.821   4.244 123.516  0.00  0.00    +0.052 C 
ATOM      8  C   LIG A   1      -6.942   3.160 123.404  0.00  0.00    +0.108 C 
ATOM      9  O   LIG A   1      -7.253   2.804 122.052  0.00  0.00    -0.485 OA
ATOM     10  C   LIG A   1      -8.242   3.759 123.973  0.00  0.00    +0.056 C 
ATOM     11  C   LIG A   1      -5.138   5.037 120.029  0.00  0.00    +0.052 A 
ATOM     12  C   LIG A   1      -6.001   5.300 119.001  0.00  0.00    +0.118 A 
ATOM     13  C   LIG A   1      -7.328   4.863 119.025  0.00  0.00    +0.052 A 
BRANCH  12  14
ATOM     14  O   LIG A   1      -5.609   6.055 117.914  0.00  0.00    -0.507 OA
ATOM     15  H   LIG A   1      -5.723   6.991 118.136  0.00  0.00    +0.292 HD
ENDBRANCH  12  14
ENDBRANCH   1   8
BRANCH   1  16
ATOM     16  C   LIG A   1      -7.405   1.227 125.240  0.00  0.00    +0.004 C 
BRANCH  16  17
ATOM     17  C   LIG A   1      -8.665   0.488 124.744  0.00  0.00    +0.003 C 
BRANCH  17  18
ATOM     18  C   LIG A   1      -8.794   0.179 123.234  0.00  0.00    -0.014 C 
ATOM     19  C   LIG A   1     -10.145   0.550 122.607  0.00  0.00    +0.007 C 
BRANCH  18  20
ATOM     20  C   LIG A   1      -8.385  -1.302 122.922  0.00  0.00    +0.003 C 
BRANCH  20  21
ATOM     21  C   LIG A   1      -6.881  -1.687 122.752  0.00  0.00    +0.000 C 
BRANCH  21  22
ATOM     22  C   LIG A   1      -6.353  -2.556 123.896  0.00  0.00    +0.003 C 
BRANCH  22  23
ATOM     23  C   LIG A   1      -6.750  -2.285 125.368  0.00  0.00    -0.014 C 
ATOM     24  C   LIG A   1      -5.541  -2.356 126.290  0.00  0.00    +0.007 C 
BRANCH  23  25
ATOM     25  C   LIG A   1      -7.853  -3.329 125.728  0.00  0.00    +0.003 C 
BRANCH  25  26
ATOM     26  C   LIG A   1      -8.839  -3.021 126.867  0.00  0.00    +0.000 C 
BRANCH  26  27
ATOM     27  C   LIG A   1      -8.724  -3.900 128.127  0.00  0.00    +0.003 C 
BRANCH  27  28
ATOM     28  C   LIG A   1      -8.139  -3.141 129.352  0.00  0.00    -0.017 C 
ATOM     29  C   LIG A   1      -6.856  -3.791 129.875  0.00  0.00    +0.007 C 
ATOM     30  C   LIG A   1      -7.845  -1.666 129.029  0.00  0.00    +0.007 C 
ENDBRANCH  27  28
ENDBRANCH  26  27
ENDBRANCH  25  26
ENDBRANCH  23  25
ENDBRANCH  22  23
ENDBRANCH  21  22
ENDBRANCH  20  21
ENDBRANCH  18  20
ENDBRANCH  17  18
ENDBRANCH  16  17
ENDBRANCH   1  16
TORSDOF 13
ENDMDL
MODEL 2
REMARK VINA RESULT:      -7.4      1.292      3.402
REMARK  Name = NuBBE_1525
REMARK  19 active torsions:
REMARK  status: ('A' for Active; 'I' for Inactive)
REMARK    1  A    between atoms: C_1  and  C_2
REMARK    2  A    between atoms: C_7  and  C_9
REMARK    3  A    between atoms: C_7  and  C_25
REMARK    4  A    between atoms: C_9  and  C_10
REMARK    5  A    between atoms: C_10  and  C_11
REMARK    6  A    between atoms: C_11  and  C_12
REMARK    7  A    between atoms: C_12  and  C_13
REMARK    8  A    between atoms: C_12  and  C_24
REMARK    9  A    between atoms: C_13  and  C_14
REMARK   10  A    between atoms: C_14  and  C_15
REMARK   11  A    between atoms: C_15  and  C_16
REMARK   12  A    between atoms: C_16  and  C_17
REMARK   13  A    between atoms: C_16  and  C_23
REMARK   14  A    between atoms: C_17  and  C_18
REMARK   15  A    between atoms: C_18  and  C_19
REMARK   16  A    between atoms: C_19  and  C_20
REMARK   17  A    between atoms: C_20  and  C_21
REMARK   18  A    between atoms: C_20  and  C_22
REMARK   19  A    between atoms: C_27  and  O_29
REMARK                            x       y       z     vdW  Elec       q    Type
REMARK                         _______ _______ _______ _____ _____    ______ ____
ROOT
ATOM      1  C   LIG A   1      -6.366   1.901 124.416  0.00  0.00    +0.048 C 
ENDROOT
BRANCH   1   8
ATOM      2  C   LIG A   1      -9.138   3.513 120.391  0.00  0.00    +0.048 C 
ATOM      3  C   LIG A   1      -7.690   3.910 120.284  0.00  0.00    -0.005 A 
ATOM      4  C   LIG A   1      -6.797   3.652 121.295  0.00  0.00    +0.128 A 
ATOM      5  C   LIG A   1      -5.541   4.273 121.335  0.00  0.00    -0.002 A 
ATOM      6  C   LIG A   1      -4.774   4.206 122.613  0.00  0.00    +0.043 C 
ATOM      7  C   LIG A   1      -5.819   4.299 123.730  0.00  0.00    +0.052 C 
ATOM      8  C   LIG A   1      -6.879   3.155 123.629  0.00  0.00    +0.108 C 
ATOM      9  O   LIG A   1      -7.148   2.748 122.281  0.00  0.00    -0.485 OA
ATOM     10  C   LIG A   1      -8.219   3.698 124.161  0.00  0.00    +0.056 C 
ATOM     11  C   LIG A   1      -5.118   5.039 120.236  0.00  0.00    +0.052 A 
ATOM     12  C   LIG A   1      -5.976   5.230 119.187  0.00  0.00    +0.118 A 
ATOM     13  C   LIG A   1      -7.278   4.723 119.201  0.00  0.00    +0.052 A 
BRANCH  12  14
ATOM     14  O   LIG A   1      -5.605   5.977 118.087  0.00  0.00    -0.507 OA
ATOM     15  H   LIG A   1      -6.256   5.827 117.384  0.00  0.00    +0.292 HD
ENDBRANCH  12  14
ENDBRANCH   1   8
BRANCH   1  16
ATOM     16  C   LIG A   1      -7.296   1.207 125.461  0.00  0.00    +0.004 C 
BRANCH  16  17
ATOM     17  C   LIG A   1      -7.134   1.638 126.933  0.00  0.00    +0.003 C 
BRANCH  17  18
ATOM     18  C   LIG A   1      -8.131   1.087 127.978  0.00  0.00    -0.014 C 
ATOM     19  C   LIG A   1      -8.739   2.140 128.916  0.00  0.00    +0.007 C 
BRANCH  18  20
ATOM     20  C   LIG A   1      -7.516  -0.120 128.767  0.00  0.00    +0.003 C 
BRANCH  20  21
ATOM     21  C   LIG A   1      -6.367  -0.971 128.139  0.00  0.00    +0.000 C 
BRANCH  21  22
ATOM     22  C   LIG A   1      -6.843  -2.330 127.622  0.00  0.00    +0.003 C 
BRANCH  22  23
ATOM     23  C   LIG A   1      -8.337  -2.733 127.662  0.00  0.00    -0.014 C 
ATOM     24  C   LIG A   1      -8.618  -3.707 128.798  0.00  0.00    +0.007 C 
BRANCH  23  25
ATOM     25  C   LIG A   1      -8.673  -3.324 126.257  0.00  0.00    +0.003 C 
BRANCH  25  26
ATOM     26  C   LIG A   1      -8.056  -2.684 125.002  0.00  0.00    +0.000 C 
BRANCH  26  27
ATOM     27  C   LIG A   1      -6.995  -3.519 124.260  0.00  0.00    +0.003 C 
BRANCH  27  28
ATOM     28  C   LIG A   1      -5.792  -2.673 123.757  0.00  0.00    -0.017 C 
ATOM     29  C   LIG A   1      -4.559  -3.534 123.471  0.00  0.00    +0.007 C 
ATOM     30  C   LIG A   1      -6.139  -1.878 122.486  0.00  0.00    +0.007 C 
ENDBRANCH  27  28
ENDBRANCH  26  27
ENDBRANCH  25  26
ENDBRANCH  23  25
ENDBRANCH  22  23
ENDBRANCH  21  22
ENDBRANCH  20  21
ENDBRANCH  18  20
ENDBRANCH  17  18
ENDBRANCH  16  17
ENDBRANCH   1  16
TORSDOF 13
ENDMDL
MODEL 3
REMARK VINA RESULT:      -7.1      3.271      8.184
REMARK  Name = NuBBE_1525
REMARK  19 active torsions:
REMARK  status: ('A' for Active; 'I' for Inactive)
REMARK    1  A    between atoms: C_1  and  C_2
REMARK    2  A    between atoms: C_7  and  C_9
REMARK    3  A    between atoms: C_7  and  C_25
REMARK    4  A    between atoms: C_9  and  C_10
REMARK    5  A    between atoms: C_10  and  C_11
REMARK    6  A    between atoms: C_11  and  C_12
REMARK    7  A    between atoms: C_12  and  C_13
REMARK    8  A    between atoms: C_12  and  C_24
REMARK    9  A    between atoms: C_13  and  C_14
REMARK   10  A    between atoms: C_14  and  C_15
REMARK   11  A    between atoms: C_15  and  C_16
REMARK   12  A    between atoms: C_16  and  C_17
REMARK   13  A    between atoms: C_16  and  C_23
REMARK   14  A    between atoms: C_17  and  C_18
REMARK   15  A    between atoms: C_18  and  C_19
REMARK   16  A    between atoms: C_19  and  C_20
REMARK   17  A    between atoms: C_20  and  C_21
REMARK   18  A    between atoms: C_20  and  C_22
REMARK   19  A    between atoms: C_27  and  O_29
REMARK                            x       y       z     vdW  Elec       q    Type
REMARK                         _______ _______ _______ _____ _____    ______ ____
ROOT
ATOM      1  C   LIG A   1      -8.349  -1.104 124.249  0.00  0.00    +0.048 C 
ENDROOT
BRANCH   1   8
ATOM      2  C   LIG A   1      -9.246  -4.093 128.339  0.00  0.00    +0.048 C 
ATOM      3  C   LIG A   1      -7.953  -3.332 128.460  0.00  0.00    -0.005 A 
ATOM      4  C   LIG A   1      -7.486  -2.543 127.438  0.00  0.00    +0.128 A 
ATOM      5  C   LIG A   1      -6.163  -2.081 127.420  0.00  0.00    -0.002 A 
ATOM      6  C   LIG A   1      -5.639  -1.523 126.140  0.00  0.00    +0.043 C 
ATOM      7  C   LIG A   1      -6.272  -2.367 125.029  0.00  0.00    +0.052 C 
ATOM      8  C   LIG A   1      -7.834  -2.323 125.086  0.00  0.00    +0.108 C 
ATOM      9  O   LIG A   1      -8.349  -2.192 126.417  0.00  0.00    -0.485 OA
ATOM     10  C   LIG A   1      -8.368  -3.676 124.578  0.00  0.00    +0.056 C 
ATOM     11  C   LIG A   1      -5.350  -2.281 128.549  0.00  0.00    +0.052 A 
ATOM     12  C   LIG A   1      -5.842  -2.998 129.605  0.00  0.00    +0.118 A 
ATOM     13  C   LIG A   1      -7.115  -3.574 129.574  0.00  0.00    +0.052 A 
BRANCH  12  14
ATOM     14  O   LIG A   1      -5.079  -3.222 130.735  0.00  0.00    -0.507 OA
ATOM     15  H   LIG A   1      -5.597  -3.765 131.348  0.00  0.00    +0.292 HD
ENDBRANCH  12  14
ENDBRANCH   1   8
BRANCH   1  16
ATOM     16  C   LIG A   1      -7.476  -0.537 123.085  0.00  0.00    +0.004 C 
BRANCH  16  17
ATOM     17  C   LIG A   1      -6.732   0.788 123.353  0.00  0.00    +0.003 C 
BRANCH  17  18
ATOM     18  C   LIG A   1      -7.378   2.108 122.873  0.00  0.00    -0.014 C 
ATOM     19  C   LIG A   1      -6.426   3.310 122.803  0.00  0.00    +0.007 C 
BRANCH  18  20
ATOM     20  C   LIG A   1      -8.677   2.432 123.688  0.00  0.00    +0.003 C 
BRANCH  20  21
ATOM     21  C   LIG A   1      -8.579   2.987 125.145  0.00  0.00    +0.000 C 
BRANCH  21  22
ATOM     22  C   LIG A   1      -8.486   1.883 126.201  0.00  0.00    +0.003 C 
BRANCH  22  23
ATOM     23  C   LIG A   1      -7.154   1.563 126.922  0.00  0.00    -0.014 C 
ATOM     24  C   LIG A   1      -7.378   1.282 128.401  0.00  0.00    +0.007 C 
BRANCH  23  25
ATOM     25  C   LIG A   1      -6.211   2.782 126.670  0.00  0.00    +0.003 C 
BRANCH  25  26
ATOM     26  C   LIG A   1      -4.795   2.539 126.122  0.00  0.00    +0.000 C 
BRANCH  26  27
ATOM     27  C   LIG A   1      -3.914   3.787 125.927  0.00  0.00    +0.003 C 
BRANCH  27  28
ATOM     28  C   LIG A   1      -2.750   3.883 126.953  0.00  0.00    -0.017 C 
ATOM     29  C   LIG A   1      -3.209   3.565 128.379  0.00  0.00    +0.007 C 
ATOM     30  C   LIG A   1      -1.587   2.943 126.592  0.00  0.00    +0.007 C 
ENDBRANCH  27  28
ENDBRANCH  26  27
ENDBRANCH  25  26
ENDBRANCH  23  25
ENDBRANCH  22  23
ENDBRANCH  21  22
ENDBRANCH  20  21
ENDBRANCH  18  20
ENDBRANCH  17  18
ENDBRANCH  16  17
ENDBRANCH   1  16
TORSDOF 13
ENDMDL
MODEL 4
REMARK VINA RESULT:      -7.0      2.359      5.432
REMARK  Name = NuBBE_1525
REMARK  19 active torsions:
REMARK  status: ('A' for Active; 'I' for Inactive)
REMARK    1  A    between atoms: C_1  and  C_2
REMARK    2  A    between atoms: C_7  and  C_9
REMARK    3  A    between atoms: C_7  and  C_25
REMARK    4  A    between atoms: C_9  and  C_10
REMARK    5  A    between atoms: C_10  and  C_11
REMARK    6  A    between atoms: C_11  and  C_12
REMARK    7  A    between atoms: C_12  and  C_13
REMARK    8  A    between atoms: C_12  and  C_24
REMARK    9  A    between atoms: C_13  and  C_14
REMARK   10  A    between atoms: C_14  and  C_15
REMARK   11  A    between atoms: C_15  and  C_16
REMARK   12  A    between atoms: C_16  and  C_17
REMARK   13  A    between atoms: C_16  and  C_23
REMARK   14  A    between atoms: C_17  and  C_18
REMARK   15  A    between atoms: C_18  and  C_19
REMARK   16  A    between atoms: C_19  and  C_20
REMARK   17  A    between atoms: C_20  and  C_21
REMARK   18  A    between atoms: C_20  and  C_22
REMARK   19  A    between atoms: C_27  and  O_29
REMARK                            x       y       z     vdW  Elec       q    Type
REMARK                         _______ _______ _______ _____ _____    ______ ____
ROOT
ATOM      1  C   LIG A   1      -8.680   1.774 128.016  0.00  0.00    +0.048 C 
ENDROOT
BRANCH   1   8
ATOM      2  C   LIG A   1      -4.928   3.621 125.019  0.00  0.00    +0.048 C 
ATOM      3  C   LIG A   1      -6.232   3.481 124.281  0.00  0.00    -0.005 A 
ATOM      4  C   LIG A   1      -7.339   2.926 124.876  0.00  0.00    +0.128 A 
ATOM      5  C   LIG A   1      -8.447   2.520 124.119  0.00  0.00    -0.002 A 
ATOM      6  C   LIG A   1      -9.450   1.635 124.778  0.00  0.00    +0.043 C 
ATOM      7  C   LIG A   1      -8.647   0.708 125.697  0.00  0.00    +0.052 C 
ATOM      8  C   LIG A   1      -7.808   1.511 126.742  0.00  0.00    +0.108 C 
ATOM      9  O   LIG A   1      -7.355   2.780 126.251  0.00  0.00    -0.485 OA
ATOM     10  C   LIG A   1      -6.525   0.713 127.039  0.00  0.00    +0.056 C 
ATOM     11  C   LIG A   1      -8.502   2.844 122.753  0.00  0.00    +0.052 A 
ATOM     12  C   LIG A   1      -7.434   3.473 122.174  0.00  0.00    +0.118 A 
ATOM     13  C   LIG A   1      -6.271   3.761 122.894  0.00  0.00    +0.052 A 
BRANCH  12  14
ATOM     14  O   LIG A   1      -7.442   3.809 120.835  0.00  0.00    -0.507 OA
ATOM     15  H   LIG A   1      -7.425   4.776 120.764  0.00  0.00    +0.292 HD
ENDBRANCH  12  14
ENDBRANCH   1   8
BRANCH   1  16
ATOM     16  C   LIG A   1      -8.133   2.691 129.156  0.00  0.00    +0.004 C 
BRANCH  16  17
ATOM     17  C   LIG A   1      -7.804   2.010 130.500  0.00  0.00    +0.003 C 
BRANCH  17  18
ATOM     18  C   LIG A   1      -8.971   1.477 131.363  0.00  0.00    -0.014 C 
ATOM     19  C   LIG A   1      -9.238   2.264 132.654  0.00  0.00    +0.007 C 
BRANCH  18  20
ATOM     20  C   LIG A   1      -8.822  -0.061 131.630  0.00  0.00    +0.003 C 
BRANCH  20  21
ATOM     21  C   LIG A   1      -7.659  -0.868 130.971  0.00  0.00    +0.000 C 
BRANCH  21  22
ATOM     22  C   LIG A   1      -8.108  -1.674 129.749  0.00  0.00    +0.003 C 
BRANCH  22  23
ATOM     23  C   LIG A   1      -7.980  -3.216 129.705  0.00  0.00    -0.014 C 
ATOM     24  C   LIG A   1      -6.545  -3.660 129.952  0.00  0.00    +0.007 C 
BRANCH  23  25
ATOM     25  C   LIG A   1      -8.524  -3.665 128.312  0.00  0.00    +0.003 C 
BRANCH  25  26
ATOM     26  C   LIG A   1      -8.324  -2.750 127.093  0.00  0.00    +0.000 C 
BRANCH  26  27
ATOM     27  C   LIG A   1      -9.339  -2.907 125.946  0.00  0.00    +0.003 C 
BRANCH  27  28
ATOM     28  C   LIG A   1      -8.682  -2.868 124.537  0.00  0.00    -0.017 C 
ATOM     29  C   LIG A   1      -7.394  -3.692 124.477  0.00  0.00    +0.007 C 
ATOM     30  C   LIG A   1      -9.638  -3.373 123.442  0.00  0.00    +0.007 C 
ENDBRANCH  27  28
ENDBRANCH  26  27
ENDBRANCH  25  26
ENDBRANCH  23  25
ENDBRANCH  22  23
ENDBRANCH  21  22
ENDBRANCH  20  21
ENDBRANCH  18  20
ENDBRANCH  17  18
ENDBRANCH  16  17
ENDBRANCH   1  16
TORSDOF 13
ENDMDL
MODEL 5
REMARK VINA RESULT:      -6.9      2.789      6.663
REMARK  Name = NuBBE_1525
REMARK  19 active torsions:
REMARK  status: ('A' for Active; 'I' for Inactive)
REMARK    1  A    between atoms: C_1  and  C_2
REMARK    2  A    between atoms: C_7  and  C_9
REMARK    3  A    between atoms: C_7  and  C_25
REMARK    4  A    between atoms: C_9  and  C_10
REMARK    5  A    between atoms: C_10  and  C_11
REMARK    6  A    between atoms: C_11  and  C_12
REMARK    7  A    between atoms: C_12  and  C_13
REMARK    8  A    between atoms: C_12  and  C_24
REMARK    9  A    between atoms: C_13  and  C_14
REMARK   10  A    between atoms: C_14  and  C_15
REMARK   11  A    between atoms: C_15  and  C_16
REMARK   12  A    between atoms: C_16  and  C_17
REMARK   13  A    between atoms: C_16  and  C_23
REMARK   14  A    between atoms: C_17  and  C_18
REMARK   15  A    between atoms: C_18  and  C_19
REMARK   16  A    between atoms: C_19  and  C_20
REMARK   17  A    between atoms: C_20  and  C_21
REMARK   18  A    between atoms: C_20  and  C_22
REMARK   19  A    between atoms: C_27  and  O_29
REMARK                            x       y       z     vdW  Elec       q    Type
REMARK                         _______ _______ _______ _____ _____    ______ ____
ROOT
ATOM      1  C   LIG A   1      -8.308  -3.654 125.240  0.00  0.00    +0.048 C 
ENDROOT
BRANCH   1   8
ATOM      2  C   LIG A   1      -5.419   0.581 125.687  0.00  0.00    +0.048 C 
ATOM      3  C   LIG A   1      -6.694   0.835 124.928  0.00  0.00    -0.005 A 
ATOM      4  C   LIG A   1      -7.565  -0.182 124.624  0.00  0.00    +0.128 A 
ATOM      5  C   LIG A   1      -8.583  -0.011 123.675  0.00  0.00    -0.002 A 
ATOM      6  C   LIG A   1      -9.263  -1.234 123.159  0.00  0.00    +0.043 C 
ATOM      7  C   LIG A   1      -8.176  -2.310 123.073  0.00  0.00    +0.052 C 
ATOM      8  C   LIG A   1      -7.499  -2.563 124.459  0.00  0.00    +0.108 C 
ATOM      9  O   LIG A   1      -7.436  -1.391 125.282  0.00  0.00    -0.485 OA
ATOM     10  C   LIG A   1      -6.032  -2.959 124.210  0.00  0.00    +0.056 C 
ATOM     11  C   LIG A   1      -8.827   1.270 123.153  0.00  0.00    +0.052 A 
ATOM     12  C   LIG A   1      -8.011   2.306 123.518  0.00  0.00    +0.118 A 
ATOM     13  C   LIG A   1      -6.913   2.114 124.361  0.00  0.00    +0.052 A 
BRANCH  12  14
ATOM     14  O   LIG A   1      -8.211   3.581 123.029  0.00  0.00    -0.507 OA
ATOM     15  H   LIG A   1      -9.147   3.672 122.792  0.00  0.00    +0.292 HD
ENDBRANCH  12  14
ENDBRANCH   1   8
BRANCH   1  16
ATOM     16  C   LIG A   1      -9.181  -3.242 126.468  0.00  0.00    +0.004 C 
BRANCH  16  17
ATOM     17  C   LIG A   1      -8.678  -3.681 127.859  0.00  0.00    +0.003 C 
BRANCH  17  18
ATOM     18  C   LIG A   1      -7.433  -2.980 128.449  0.00  0.00    -0.014 C 
ATOM     19  C   LIG A   1      -6.896  -3.592 129.750  0.00  0.00    +0.007 C 
BRANCH  18  20
ATOM     20  C   LIG A   1      -7.661  -1.434 128.575  0.00  0.00    +0.003 C 
BRANCH  20  21
ATOM     21  C   LIG A   1      -7.846  -0.774 129.979  0.00  0.00    +0.000 C 
BRANCH  21  22
ATOM     22  C   LIG A   1      -6.717   0.194 130.339  0.00  0.00    +0.003 C 
BRANCH  22  23
ATOM     23  C   LIG A   1      -5.454   0.329 129.455  0.00  0.00    -0.014 C 
ATOM     24  C   LIG A   1      -4.191  -0.001 130.237  0.00  0.00    +0.007 C 
BRANCH  23  25
ATOM     25  C   LIG A   1      -5.460   1.786 128.895  0.00  0.00    +0.003 C 
BRANCH  25  26
ATOM     26  C   LIG A   1      -4.677   2.882 129.637  0.00  0.00    +0.000 C 
BRANCH  26  27
ATOM     27  C   LIG A   1      -3.432   3.437 128.921  0.00  0.00    +0.003 C 
BRANCH  27  28
ATOM     28  C   LIG A   1      -3.399   3.106 127.402  0.00  0.00    -0.017 C 
ATOM     29  C   LIG A   1      -4.186   4.124 126.572  0.00  0.00    +0.007 C 
ATOM     30  C   LIG A   1      -1.961   3.039 126.859  0.00  0.00    +0.007 C 
ENDBRANCH  27  28
ENDBRANCH  26  27
ENDBRANCH  25  26
ENDBRANCH  23  25
ENDBRANCH  22  23
ENDBRANCH  21  22
ENDBRANCH  20  21
ENDBRANCH  18  20
ENDBRANCH  17  18
ENDBRANCH  16  17
ENDBRANCH   1  16
TORSDOF 13
ENDMDL
MODEL 6
REMARK VINA RESULT:      -6.9      2.794      6.373
REMARK  Name = NuBBE_1525
REMARK  19 active torsions:
REMARK  status: ('A' for Active; 'I' for Inactive)
REMARK    1  A    between atoms: C_1  and  C_2
REMARK    2  A    between atoms: C_7  and  C_9
REMARK    3  A    between atoms: C_7  and  C_25
REMARK    4  A    between atoms: C_9  and  C_10
REMARK    5  A    between atoms: C_10  and  C_11
REMARK    6  A    between atoms: C_11  and  C_12
REMARK    7  A    between atoms: C_12  and  C_13
REMARK    8  A    between atoms: C_12  and  C_24
REMARK    9  A    between atoms: C_13  and  C_14
REMARK   10  A    between atoms: C_14  and  C_15
REMARK   11  A    between atoms: C_15  and  C_16
REMARK   12  A    between atoms: C_16  and  C_17
REMARK   13  A    between atoms: C_16  and  C_23
REMARK   14  A    between atoms: C_17  and  C_18
REMARK   15  A    between atoms: C_18  and  C_19
REMARK   16  A    between atoms: C_19  and  C_20
REMARK   17  A    between atoms: C_20  and  C_21
REMARK   18  A    between atoms: C_20  and  C_22
REMARK   19  A    between atoms: C_27  and  O_29
REMARK                            x       y       z     vdW  Elec       q    Type
REMARK                         _______ _______ _______ _____ _____    ______ ____
ROOT
ATOM      1  C   LIG A   1      -8.520  -3.576 124.856  0.00  0.00    +0.048 C 
ENDROOT
BRANCH   1   8
ATOM      2  C   LIG A   1      -5.650   0.593 125.784  0.00  0.00    +0.048 C 
ATOM      3  C   LIG A   1      -6.866   0.909 124.956  0.00  0.00    -0.005 A 
ATOM      4  C   LIG A   1      -7.718  -0.078 124.525  0.00  0.00    +0.128 A 
ATOM      5  C   LIG A   1      -8.665   0.164 123.520  0.00  0.00    -0.002 A 
ATOM      6  C   LIG A   1      -9.313  -1.016 122.878  0.00  0.00    +0.043 C 
ATOM      7  C   LIG A   1      -8.228  -2.094 122.798  0.00  0.00    +0.052 C 
ATOM      8  C   LIG A   1      -7.652  -2.444 124.208  0.00  0.00    +0.108 C 
ATOM      9  O   LIG A   1      -7.642  -1.329 125.109  0.00  0.00    -0.485 OA
ATOM     10  C   LIG A   1      -6.173  -2.837 124.036  0.00  0.00    +0.056 C 
ATOM     11  C   LIG A   1      -8.866   1.480 123.068  0.00  0.00    +0.052 A 
ATOM     12  C   LIG A   1      -8.073   2.481 123.558  0.00  0.00    +0.118 A 
ATOM     13  C   LIG A   1      -7.038   2.224 124.461  0.00  0.00    +0.052 A 
BRANCH  12  14
ATOM     14  O   LIG A   1      -8.232   3.788 123.141  0.00  0.00    -0.507 OA
ATOM     15  H   LIG A   1      -8.336   3.789 122.177  0.00  0.00    +0.292 HD
ENDBRANCH  12  14
ENDBRANCH   1   8
BRANCH   1  16
ATOM     16  C   LIG A   1      -9.340  -3.280 126.152  0.00  0.00    +0.004 C 
BRANCH  16  17
ATOM     17  C   LIG A   1      -8.712  -3.723 127.490  0.00  0.00    +0.003 C 
BRANCH  17  18
ATOM     18  C   LIG A   1      -7.957  -2.672 128.335  0.00  0.00    -0.014 C 
ATOM     19  C   LIG A   1      -6.450  -2.576 128.059  0.00  0.00    +0.007 C 
BRANCH  18  20
ATOM     20  C   LIG A   1      -8.267  -2.844 129.862  0.00  0.00    +0.003 C 
BRANCH  20  21
ATOM     21  C   LIG A   1      -7.216  -2.417 130.935  0.00  0.00    +0.000 C 
BRANCH  21  22
ATOM     22  C   LIG A   1      -7.451  -3.074 132.298  0.00  0.00    +0.003 C 
BRANCH  22  23
ATOM     23  C   LIG A   1      -6.393  -4.003 132.941  0.00  0.00    -0.014 C 
ATOM     24  C   LIG A   1      -5.618  -3.286 134.037  0.00  0.00    +0.007 C 
BRANCH  23  25
ATOM     25  C   LIG A   1      -5.480  -4.505 131.779  0.00  0.00    +0.003 C 
BRANCH  25  26
ATOM     26  C   LIG A   1      -4.029  -4.005 131.690  0.00  0.00    +0.000 C 
BRANCH  26  27
ATOM     27  C   LIG A   1      -3.669  -3.168 130.449  0.00  0.00    +0.003 C 
BRANCH  27  28
ATOM     28  C   LIG A   1      -3.200  -1.726 130.798  0.00  0.00    -0.017 C 
ATOM     29  C   LIG A   1      -4.133  -0.660 130.219  0.00  0.00    +0.007 C 
ATOM     30  C   LIG A   1      -3.088  -1.509 132.316  0.00  0.00    +0.007 C 
ENDBRANCH  27  28
ENDBRANCH  26  27
ENDBRANCH  25  26
ENDBRANCH  23  25
ENDBRANCH  22  23
ENDBRANCH  21  22
ENDBRANCH  20  21
ENDBRANCH  18  20
ENDBRANCH  17  18
ENDBRANCH  16  17
ENDBRANCH   1  16
TORSDOF 13
ENDMDL
MODEL 7
REMARK VINA RESULT:      -6.9      4.660      9.304
REMARK  Name = NuBBE_1525
REMARK  19 active torsions:
REMARK  status: ('A' for Active; 'I' for Inactive)
REMARK    1  A    between atoms: C_1  and  C_2
REMARK    2  A    between atoms: C_7  and  C_9
REMARK    3  A    between atoms: C_7  and  C_25
REMARK    4  A    between atoms: C_9  and  C_10
REMARK    5  A    between atoms: C_10  and  C_11
REMARK    6  A    between atoms: C_11  and  C_12
REMARK    7  A    between atoms: C_12  and  C_13
REMARK    8  A    between atoms: C_12  and  C_24
REMARK    9  A    between atoms: C_13  and  C_14
REMARK   10  A    between atoms: C_14  and  C_15
REMARK   11  A    between atoms: C_15  and  C_16
REMARK   12  A    between atoms: C_16  and  C_17
REMARK   13  A    between atoms: C_16  and  C_23
REMARK   14  A    between atoms: C_17  and  C_18
REMARK   15  A    between atoms: C_18  and  C_19
REMARK   16  A    between atoms: C_19  and  C_20
REMARK   17  A    between atoms: C_20  and  C_21
REMARK   18  A    between atoms: C_20  and  C_22
REMARK   19  A    between atoms: C_27  and  O_29
REMARK                            x       y       z     vdW  Elec       q    Type
REMARK                         _______ _______ _______ _____ _____    ______ ____
ROOT
ATOM      1  C   LIG A   1      -7.399  -2.017 131.265  0.00  0.00    +0.048 C 
ENDROOT
BRANCH   1   8
ATOM      2  C   LIG A   1      -5.128   1.791 133.876  0.00  0.00    +0.048 C 
ATOM      3  C   LIG A   1      -6.605   2.021 133.699  0.00  0.00    -0.005 A 
ATOM      4  C   LIG A   1      -7.382   1.165 132.957  0.00  0.00    +0.128 A 
ATOM      5  C   LIG A   1      -8.671   1.526 132.542  0.00  0.00    -0.002 A 
ATOM      6  C   LIG A   1      -9.312   0.702 131.477  0.00  0.00    +0.043 C 
ATOM      7  C   LIG A   1      -8.182   0.298 130.525  0.00  0.00    +0.052 C 
ATOM      8  C   LIG A   1      -7.053  -0.489 131.267  0.00  0.00    +0.108 C 
ATOM      9  O   LIG A   1      -6.878  -0.080 132.629  0.00  0.00    -0.485 OA
ATOM     10  C   LIG A   1      -5.714  -0.170 130.575  0.00  0.00    +0.056 C 
ATOM     11  C   LIG A   1      -9.247   2.708 133.037  0.00  0.00    +0.052 A 
ATOM     12  C   LIG A   1      -8.503   3.524 133.845  0.00  0.00    +0.118 A 
ATOM     13  C   LIG A   1      -7.171   3.236 134.155  0.00  0.00    +0.052 A 
BRANCH  12  14
ATOM     14  O   LIG A   1      -9.026   4.697 134.353  0.00  0.00    -0.507 OA
ATOM     15  H   LIG A   1      -9.805   4.934 133.828  0.00  0.00    +0.292 HD
ENDBRANCH  12  14
ENDBRANCH   1   8
BRANCH   1  16
ATOM     16  C   LIG A   1      -6.912  -2.922 130.089  0.00  0.00    +0.004 C 
BRANCH  16  17
ATOM     17  C   LIG A   1      -7.975  -3.359 129.060  0.00  0.00    +0.003 C 
BRANCH  17  18
ATOM     18  C   LIG A   1      -8.181  -2.492 127.797  0.00  0.00    -0.014 C 
ATOM     19  C   LIG A   1      -8.747  -3.238 126.581  0.00  0.00    +0.007 C 
BRANCH  18  20
ATOM     20  C   LIG A   1      -6.881  -1.688 127.444  0.00  0.00    +0.003 C 
BRANCH  20  21
ATOM     21  C   LIG A   1      -5.722  -2.370 126.650  0.00  0.00    +0.000 C 
BRANCH  21  22
ATOM     22  C   LIG A   1      -5.615  -1.876 125.205  0.00  0.00    +0.003 C 
BRANCH  22  23
ATOM     23  C   LIG A   1      -5.875  -2.819 124.006  0.00  0.00    -0.014 C 
ATOM     24  C   LIG A   1      -4.570  -3.308 123.392  0.00  0.00    +0.007 C 
BRANCH  23  25
ATOM     25  C   LIG A   1      -6.760  -2.020 122.998  0.00  0.00    +0.003 C 
BRANCH  25  26
ATOM     26  C   LIG A   1      -8.291  -2.115 123.100  0.00  0.00    +0.000 C 
BRANCH  26  27
ATOM     27  C   LIG A   1      -9.048  -0.787 123.283  0.00  0.00    +0.003 C 
BRANCH  27  28
ATOM     28  C   LIG A   1      -8.466   0.099 124.420  0.00  0.00    -0.017 C 
ATOM     29  C   LIG A   1      -8.039   1.480 123.915  0.00  0.00    +0.007 C 
ATOM     30  C   LIG A   1      -9.467   0.287 125.573  0.00  0.00    +0.007 C 
ENDBRANCH  27  28
ENDBRANCH  26  27
ENDBRANCH  25  26
ENDBRANCH  23  25
ENDBRANCH  22  23
ENDBRANCH  21  22
ENDBRANCH  20  21
ENDBRANCH  18  20
ENDBRANCH  17  18
ENDBRANCH  16  17
ENDBRANCH   1  16
TORSDOF 13
ENDMDL
MODEL 8
REMARK VINA RESULT:      -6.9      2.780      6.158
REMARK  Name = NuBBE_1525
REMARK  19 active torsions:
REMARK  status: ('A' for Active; 'I' for Inactive)
REMARK    1  A    between atoms: C_1  and  C_2
REMARK    2  A    between atoms: C_7  and  C_9
REMARK    3  A    between atoms: C_7  and  C_25
REMARK    4  A    between atoms: C_9  and  C_10
REMARK    5  A    between atoms: C_10  and  C_11
REMARK    6  A    between atoms: C_11  and  C_12
REMARK    7  A    between atoms: C_12  and  C_13
REMARK    8  A    between atoms: C_12  and  C_24
REMARK    9  A    between atoms: C_13  and  C_14
REMARK   10  A    between atoms: C_14  and  C_15
REMARK   11  A    between atoms: C_15  and  C_16
REMARK   12  A    between atoms: C_16  and  C_17
REMARK   13  A    between atoms: C_16  and  C_23
REMARK   14  A    between atoms: C_17  and  C_18
REMARK   15  A    between atoms: C_18  and  C_19
REMARK   16  A    between atoms: C_19  and  C_20
REMARK   17  A    between atoms: C_20  and  C_21
REMARK   18  A    between atoms: C_20  and  C_22
REMARK   19  A    between atoms: C_27  and  O_29
REMARK                            x       y       z     vdW  Elec       q    Type
REMARK                         _______ _______ _______ _____ _____    ______ ____
ROOT
ATOM      1  C   LIG A   1      -8.289  -3.625 125.238  0.00  0.00    +0.048 C 
ENDROOT
BRANCH   1   8
ATOM      2  C   LIG A   1      -5.579   0.707 125.839  0.00  0.00    +0.048 C 
ATOM      3  C   LIG A   1      -6.816   0.917 125.008  0.00  0.00    -0.005 A 
ATOM      4  C   LIG A   1      -7.633  -0.130 124.657  0.00  0.00    +0.128 A 
ATOM      5  C   LIG A   1      -8.599   0.005 123.651  0.00  0.00    -0.002 A 
ATOM      6  C   LIG A   1      -9.206  -1.241 123.100  0.00  0.00    +0.043 C 
ATOM      7  C   LIG A   1      -8.079  -2.279 123.080  0.00  0.00    +0.052 C 
ATOM      8  C   LIG A   1      -7.475  -2.508 124.503  0.00  0.00    +0.108 C 
ATOM      9  O   LIG A   1      -7.500  -1.334 125.325  0.00  0.00    -0.485 OA
ATOM     10  C   LIG A   1      -5.983  -2.853 124.338  0.00  0.00    +0.056 C 
ATOM     11  C   LIG A   1      -8.857   1.277 123.112  0.00  0.00    +0.052 A 
ATOM     12  C   LIG A   1      -8.100   2.340 123.521  0.00  0.00    +0.118 A 
ATOM     13  C   LIG A   1      -7.046   2.187 124.426  0.00  0.00    +0.052 A 
BRANCH  12  14
ATOM     14  O   LIG A   1      -8.316   3.607 123.018  0.00  0.00    -0.507 OA
ATOM     15  H   LIG A   1      -9.026   4.021 123.531  0.00  0.00    +0.292 HD
ENDBRANCH  12  14
ENDBRANCH   1   8
BRANCH   1  16
ATOM     16  C   LIG A   1      -9.171  -3.257 126.474  0.00  0.00    +0.004 C 
BRANCH  16  17
ATOM     17  C   LIG A   1      -8.795  -3.915 127.819  0.00  0.00    +0.003 C 
BRANCH  17  18
ATOM     18  C   LIG A   1      -8.181  -3.030 128.927  0.00  0.00    -0.014 C 
ATOM     19  C   LIG A   1      -7.802  -1.608 128.489  0.00  0.00    +0.007 C 
BRANCH  18  20
ATOM     20  C   LIG A   1      -6.994  -3.762 129.644  0.00  0.00    +0.003 C 
BRANCH  20  21
ATOM     21  C   LIG A   1      -5.536  -3.218 129.515  0.00  0.00    +0.000 C 
BRANCH  21  22
ATOM     22  C   LIG A   1      -4.670  -3.529 130.738  0.00  0.00    +0.003 C 
BRANCH  22  23
ATOM     23  C   LIG A   1      -3.656  -2.501 131.294  0.00  0.00    -0.014 C 
ATOM     24  C   LIG A   1      -3.573  -2.569 132.813  0.00  0.00    +0.007 C 
BRANCH  23  25
ATOM     25  C   LIG A   1      -4.113  -1.103 130.772  0.00  0.00    +0.003 C 
BRANCH  25  26
ATOM     26  C   LIG A   1      -4.954  -0.195 131.684  0.00  0.00    +0.000 C 
BRANCH  26  27
ATOM     27  C   LIG A   1      -6.386   0.114 131.209  0.00  0.00    +0.003 C 
BRANCH  27  28
ATOM     28  C   LIG A   1      -7.474  -0.266 132.253  0.00  0.00    -0.017 C 
ATOM     29  C   LIG A   1      -8.889   0.013 131.741  0.00  0.00    +0.007 C 
ATOM     30  C   LIG A   1      -7.384  -1.746 132.665  0.00  0.00    +0.007 C 
ENDBRANCH  27  28
ENDBRANCH  26  27
ENDBRANCH  25  26
ENDBRANCH  23  25
ENDBRANCH  22  23
ENDBRANCH  21  22
ENDBRANCH  20  21
ENDBRANCH  18  20
ENDBRANCH  17  18
ENDBRANCH  16  17
ENDBRANCH   1  16
TORSDOF 13
ENDMDL
MODEL 9
REMARK VINA RESULT:      -6.9      2.801      6.227
REMARK  Name = NuBBE_1525
REMARK  19 active torsions:
REMARK  status: ('A' for Active; 'I' for Inactive)
REMARK    1  A    between atoms: C_1  and  C_2
REMARK    2  A    between atoms: C_7  and  C_9
REMARK    3  A    between atoms: C_7  and  C_25
REMARK    4  A    between atoms: C_9  and  C_10
REMARK    5  A    between atoms: C_10  and  C_11
REMARK    6  A    between atoms: C_11  and  C_12
REMARK    7  A    between atoms: C_12  and  C_13
REMARK    8  A    between atoms: C_12  and  C_24
REMARK    9  A    between atoms: C_13  and  C_14
REMARK   10  A    between atoms: C_14  and  C_15
REMARK   11  A    between atoms: C_15  and  C_16
REMARK   12  A    between atoms: C_16  and  C_17
REMARK   13  A    between atoms: C_16  and  C_23
REMARK   14  A    between atoms: C_17  and  C_18
REMARK   15  A    between atoms: C_18  and  C_19
REMARK   16  A    between atoms: C_19  and  C_20
REMARK   17  A    between atoms: C_20  and  C_21
REMARK   18  A    between atoms: C_20  and  C_22
REMARK   19  A    between atoms: C_27  and  O_29
REMARK                            x       y       z     vdW  Elec       q    Type
REMARK                         _______ _______ _______ _____ _____    ______ ____
ROOT
ATOM      1  C   LIG A   1      -8.304  -3.615 125.108  0.00  0.00    +0.048 C 
ENDROOT
BRANCH   1   8
ATOM      2  C   LIG A   1      -5.549   0.658 125.900  0.00  0.00    +0.048 C 
ATOM      3  C   LIG A   1      -6.774   0.914 125.065  0.00  0.00    -0.005 A 
ATOM      4  C   LIG A   1      -7.600  -0.108 124.666  0.00  0.00    +0.128 A 
ATOM      5  C   LIG A   1      -8.554   0.076 123.656  0.00  0.00    -0.002 A 
ATOM      6  C   LIG A   1      -9.169  -1.141 123.052  0.00  0.00    +0.043 C 
ATOM      7  C   LIG A   1      -8.055  -2.191 123.004  0.00  0.00    +0.052 C 
ATOM      8  C   LIG A   1      -7.469  -2.481 124.423  0.00  0.00    +0.108 C 
ATOM      9  O   LIG A   1      -7.489  -1.338 125.289  0.00  0.00    -0.485 OA
ATOM     10  C   LIG A   1      -5.979  -2.838 124.261  0.00  0.00    +0.056 C 
ATOM     11  C   LIG A   1      -8.791   1.371 123.163  0.00  0.00    +0.052 A 
ATOM     12  C   LIG A   1      -8.025   2.408 123.620  0.00  0.00    +0.118 A 
ATOM     13  C   LIG A   1      -6.983   2.208 124.529  0.00  0.00    +0.052 A 
BRANCH  12  14
ATOM     14  O   LIG A   1      -8.220   3.696 123.163  0.00  0.00    -0.507 OA
ATOM     15  H   LIG A   1      -7.355   4.075 122.943  0.00  0.00    +0.292 HD
ENDBRANCH  12  14
ENDBRANCH   1   8
BRANCH   1  16
ATOM     16  C   LIG A   1      -9.183  -3.286 126.356  0.00  0.00    +0.004 C 
BRANCH  16  17
ATOM     17  C   LIG A   1      -8.677  -3.802 127.720  0.00  0.00    +0.003 C 
BRANCH  17  18
ATOM     18  C   LIG A   1      -7.627  -2.962 128.483  0.00  0.00    -0.014 C 
ATOM     19  C   LIG A   1      -7.177  -3.550 129.827  0.00  0.00    +0.007 C 
BRANCH  18  20
ATOM     20  C   LIG A   1      -8.085  -1.469 128.617  0.00  0.00    +0.003 C 
BRANCH  20  21
ATOM     21  C   LIG A   1      -7.069  -0.366 129.055  0.00  0.00    +0.000 C 
BRANCH  21  22
ATOM     22  C   LIG A   1      -7.502   0.376 130.322  0.00  0.00    +0.003 C 
BRANCH  22  23
ATOM     23  C   LIG A   1      -8.583  -0.200 131.268  0.00  0.00    -0.014 C 
ATOM     24  C   LIG A   1      -9.497   0.895 131.799  0.00  0.00    +0.007 C 
BRANCH  23  25
ATOM     25  C   LIG A   1      -7.821  -0.959 132.400  0.00  0.00    +0.003 C 
BRANCH  25  26
ATOM     26  C   LIG A   1      -6.353  -0.607 132.688  0.00  0.00    +0.000 C 
BRANCH  26  27
ATOM     27  C   LIG A   1      -5.312  -1.693 132.359  0.00  0.00    +0.003 C 
BRANCH  27  28
ATOM     28  C   LIG A   1      -4.050  -1.135 131.641  0.00  0.00    -0.017 C 
ATOM     29  C   LIG A   1      -3.876  -1.723 130.238  0.00  0.00    +0.007 C 
ATOM     30  C   LIG A   1      -4.082   0.399 131.529  0.00  0.00    +0.007 C 
ENDBRANCH  27  28
ENDBRANCH  26  27
ENDBRANCH  25  26
ENDBRANCH  23  25
ENDBRANCH  22  23
ENDBRANCH  21  22
ENDBRANCH  20  21
ENDBRANCH  18  20
ENDBRANCH  17  18
ENDBRANCH  16  17
ENDBRANCH   1  16
TORSDOF 13
ENDMDL
