MODEL 1
REMARK VINA RESULT:      -7.1      0.000      0.000
REMARK  Name = NuBBE_1610
REMARK  5 active torsions:
REMARK  status: ('A' for Active; 'I' for Inactive)
REMARK    1  A    between atoms: O_1  and  C_2
REMARK    2  A    between atoms: O_1  and  C_7
REMARK    3  A    between atoms: C_2  and  C_3
REMARK    4  A    between atoms: C_4  and  C_5
REMARK    5  A    between atoms: C_4  and  C_6
REMARK                            x       y       z     vdW  Elec       q    Type
REMARK                         _______ _______ _______ _____ _____    ______ ____
ROOT
ATOM      1  C   LIG A   1      -9.080  -1.836 125.755  0.00  0.00    +0.142 A 
ATOM      2  C   LIG A   1      -8.588  -2.258 127.030  0.00  0.00    +0.060 A 
ATOM      3  C   LIG A   1      -7.891  -1.350 127.849  0.00  0.00    +0.146 A 
ATOM      4  C   LIG A   1      -7.618  -0.046 127.470  0.00  0.00    +0.094 A 
ATOM      5  C   LIG A   1      -8.153   0.352 126.259  0.00  0.00    +0.142 A 
ATOM      6  C   LIG A   1      -8.933  -0.460 125.421  0.00  0.00    +0.063 A 
ATOM      7  C   LIG A   1      -9.414   0.456 124.434  0.00  0.00    +0.053 A 
ATOM      8  C   LIG A   1      -8.765   1.653 124.624  0.00  0.00    +0.196 A 
ATOM      9  O   LIG A   1      -8.006   1.597 125.740  0.00  0.00    -0.463 OA
ATOM     10  O   LIG A   1      -7.416  -1.704 129.136  0.00  0.00    -0.422 OA
ATOM     11  C   LIG A   1      -7.605  -2.961 129.674  0.00  0.00    +0.337 A 
ATOM     12  O   LIG A   1      -7.202  -3.283 130.777  0.00  0.00    -0.245 OA
ATOM     13  C   LIG A   1      -8.320  -3.913 128.816  0.00  0.00    +0.093 A 
ATOM     14  C   LIG A   1      -8.776  -3.604 127.590  0.00  0.00    +0.022 A 
ENDROOT
BRANCH   1  15
ATOM     15  O   LIG A   1      -9.699  -2.806 124.946  0.00  0.00    -0.486 OA
BRANCH  15  16
ATOM     16  C   LIG A   1      -9.011  -3.184 123.738  0.00  0.00    +0.257 C 
BRANCH  16  17
ATOM     17  C   LIG A   1      -7.562  -3.498 124.038  0.00  0.00    +0.012 C 
ATOM     18  C   LIG A   1      -6.453  -2.824 123.651  0.00  0.00    -0.076 C 
ATOM     19  C   LIG A   1      -6.413  -1.536 122.865  0.00  0.00    +0.038 C 
ATOM     20  C   LIG A   1      -5.075  -3.363 123.952  0.00  0.00    +0.038 C 
ENDBRANCH  16  17
ENDBRANCH  15  16
ENDBRANCH   1  15
TORSDOF 3
ENDMDL
MODEL 2
REMARK VINA RESULT:      -6.8      3.672      6.870
REMARK  Name = NuBBE_1610
REMARK  5 active torsions:
REMARK  status: ('A' for Active; 'I' for Inactive)
REMARK    1  A    between atoms: O_1  and  C_2
REMARK    2  A    between atoms: O_1  and  C_7
REMARK    3  A    between atoms: C_2  and  C_3
REMARK    4  A    between atoms: C_4  and  C_5
REMARK    5  A    between atoms: C_4  and  C_6
REMARK                            x       y       z     vdW  Elec       q    Type
REMARK                         _______ _______ _______ _____ _____    ______ ____
ROOT
ATOM      1  C   LIG A   1      -6.859   2.022 123.736  0.00  0.00    +0.142 A 
ATOM      2  C   LIG A   1      -6.258   3.020 122.905  0.00  0.00    +0.060 A 
ATOM      3  C   LIG A   1      -5.691   4.170 123.487  0.00  0.00    +0.146 A 
ATOM      4  C   LIG A   1      -5.710   4.415 124.850  0.00  0.00    +0.094 A 
ATOM      5  C   LIG A   1      -6.246   3.409 125.633  0.00  0.00    +0.142 A 
ATOM      6  C   LIG A   1      -6.753   2.196 125.146  0.00  0.00    +0.063 A 
ATOM      7  C   LIG A   1      -6.973   1.431 126.334  0.00  0.00    +0.053 A 
ATOM      8  C   LIG A   1      -6.781   2.267 127.408  0.00  0.00    +0.196 A 
ATOM      9  O   LIG A   1      -6.327   3.468 126.987  0.00  0.00    -0.463 OA
ATOM     10  O   LIG A   1      -5.050   5.169 122.715  0.00  0.00    -0.422 OA
ATOM     11  C   LIG A   1      -4.936   5.083 121.342  0.00  0.00    +0.337 A 
ATOM     12  O   LIG A   1      -4.390   5.933 120.662  0.00  0.00    -0.245 OA
ATOM     13  C   LIG A   1      -5.538   3.891 120.733  0.00  0.00    +0.093 A 
ATOM     14  C   LIG A   1      -6.156   2.932 121.441  0.00  0.00    +0.022 A 
ENDROOT
BRANCH   1  15
ATOM     15  O   LIG A   1      -7.479   0.934 123.096  0.00  0.00    -0.486 OA
BRANCH  15  16
ATOM     16  C   LIG A   1      -6.893  -0.366 123.303  0.00  0.00    +0.257 C 
BRANCH  16  17
ATOM     17  C   LIG A   1      -7.912  -1.449 123.032  0.00  0.00    +0.012 C 
ATOM     18  C   LIG A   1      -8.640  -2.166 123.921  0.00  0.00    -0.076 C 
ATOM     19  C   LIG A   1      -8.645  -2.000 125.421  0.00  0.00    +0.038 C 
ATOM     20  C   LIG A   1      -9.528  -3.297 123.459  0.00  0.00    +0.038 C 
ENDBRANCH  16  17
ENDBRANCH  15  16
ENDBRANCH   1  15
TORSDOF 3
ENDMDL
MODEL 3
REMARK VINA RESULT:      -6.7      5.281      8.438
REMARK  Name = NuBBE_1610
REMARK  5 active torsions:
REMARK  status: ('A' for Active; 'I' for Inactive)
REMARK    1  A    between atoms: O_1  and  C_2
REMARK    2  A    between atoms: O_1  and  C_7
REMARK    3  A    between atoms: C_2  and  C_3
REMARK    4  A    between atoms: C_4  and  C_5
REMARK    5  A    between atoms: C_4  and  C_6
REMARK                            x       y       z     vdW  Elec       q    Type
REMARK                         _______ _______ _______ _____ _____    ______ ____
ROOT
ATOM      1  C   LIG A   1      -6.408   3.265 123.596  0.00  0.00    +0.142 A 
ATOM      2  C   LIG A   1      -6.190   3.822 122.296  0.00  0.00    +0.060 A 
ATOM      3  C   LIG A   1      -7.202   3.742 121.320  0.00  0.00    +0.146 A 
ATOM      4  C   LIG A   1      -8.415   3.111 121.539  0.00  0.00    +0.094 A 
ATOM      5  C   LIG A   1      -8.620   2.632 122.819  0.00  0.00    +0.142 A 
ATOM      6  C   LIG A   1      -7.704   2.746 123.875  0.00  0.00    +0.063 A 
ATOM      7  C   LIG A   1      -8.455   2.308 125.010  0.00  0.00    +0.053 A 
ATOM      8  C   LIG A   1      -9.647   1.800 124.550  0.00  0.00    +0.196 A 
ATOM      9  O   LIG A   1      -9.756   2.006 123.219  0.00  0.00    -0.463 OA
ATOM     10  O   LIG A   1      -7.054   4.310 120.030  0.00  0.00    -0.422 OA
ATOM     11  C   LIG A   1      -5.910   4.981 119.645  0.00  0.00    +0.337 A 
ATOM     12  O   LIG A   1      -5.766   5.474 118.540  0.00  0.00    -0.245 OA
ATOM     13  C   LIG A   1      -4.851   5.054 120.657  0.00  0.00    +0.093 A 
ATOM     14  C   LIG A   1      -4.963   4.519 121.884  0.00  0.00    +0.022 A 
ENDROOT
BRANCH   1  15
ATOM     15  O   LIG A   1      -5.335   3.304 124.504  0.00  0.00    -0.486 OA
BRANCH  15  16
ATOM     16  C   LIG A   1      -5.347   4.360 125.485  0.00  0.00    +0.257 C 
BRANCH  16  17
ATOM     17  C   LIG A   1      -4.970   3.816 126.844  0.00  0.00    +0.012 C 
ATOM     18  C   LIG A   1      -3.756   3.408 127.284  0.00  0.00    -0.076 C 
ATOM     19  C   LIG A   1      -2.457   3.464 126.518  0.00  0.00    +0.038 C 
ATOM     20  C   LIG A   1      -3.599   2.779 128.648  0.00  0.00    +0.038 C 
ENDBRANCH  16  17
ENDBRANCH  15  16
ENDBRANCH   1  15
TORSDOF 3
ENDMDL
MODEL 4
REMARK VINA RESULT:      -6.7      0.732      4.268
REMARK  Name = NuBBE_1610
REMARK  5 active torsions:
REMARK  status: ('A' for Active; 'I' for Inactive)
REMARK    1  A    between atoms: O_1  and  C_2
REMARK    2  A    between atoms: O_1  and  C_7
REMARK    3  A    between atoms: C_2  and  C_3
REMARK    4  A    between atoms: C_4  and  C_5
REMARK    5  A    between atoms: C_4  and  C_6
REMARK                            x       y       z     vdW  Elec       q    Type
REMARK                         _______ _______ _______ _____ _____    ______ ____
ROOT
ATOM      1  C   LIG A   1      -9.067  -1.695 125.834  0.00  0.00    +0.142 A 
ATOM      2  C   LIG A   1      -8.980  -0.323 125.437  0.00  0.00    +0.060 A 
ATOM      3  C   LIG A   1      -8.367   0.616 126.287  0.00  0.00    +0.146 A 
ATOM      4  C   LIG A   1      -7.858   0.289 127.533  0.00  0.00    +0.094 A 
ATOM      5  C   LIG A   1      -7.904  -1.052 127.867  0.00  0.00    +0.142 A 
ATOM      6  C   LIG A   1      -8.417  -2.067 127.046  0.00  0.00    +0.063 A 
ATOM      7  C   LIG A   1      -8.041  -3.264 127.731  0.00  0.00    +0.053 A 
ATOM      8  C   LIG A   1      -7.529  -2.902 128.953  0.00  0.00    +0.196 A 
ATOM      9  O   LIG A   1      -7.433  -1.557 129.036  0.00  0.00    -0.463 OA
ATOM     10  O   LIG A   1      -8.220   1.979 125.927  0.00  0.00    -0.422 OA
ATOM     11  C   LIG A   1      -8.666   2.476 124.719  0.00  0.00    +0.337 A 
ATOM     12  O   LIG A   1      -8.549   3.644 124.394  0.00  0.00    -0.245 OA
ATOM     13  C   LIG A   1      -9.316   1.501 123.837  0.00  0.00    +0.093 A 
ATOM     14  C   LIG A   1      -9.473   0.205 124.157  0.00  0.00    +0.022 A 
ENDROOT
BRANCH   1  15
ATOM     15  O   LIG A   1      -9.759  -2.573 124.982  0.00  0.00    -0.486 OA
BRANCH  15  16
ATOM     16  C   LIG A   1      -9.071  -3.007 123.793  0.00  0.00    +0.257 C 
BRANCH  16  17
ATOM     17  C   LIG A   1      -7.656  -3.422 124.130  0.00  0.00    +0.012 C 
ATOM     18  C   LIG A   1      -6.492  -2.851 123.739  0.00  0.00    -0.076 C 
ATOM     19  C   LIG A   1      -6.338  -1.601 122.909  0.00  0.00    +0.038 C 
ATOM     20  C   LIG A   1      -5.165  -3.486 124.085  0.00  0.00    +0.038 C 
ENDBRANCH  16  17
ENDBRANCH  15  16
ENDBRANCH   1  15
TORSDOF 3
ENDMDL
MODEL 5
REMARK VINA RESULT:      -6.4      1.785      4.952
REMARK  Name = NuBBE_1610
REMARK  5 active torsions:
REMARK  status: ('A' for Active; 'I' for Inactive)
REMARK    1  A    between atoms: O_1  and  C_2
REMARK    2  A    between atoms: O_1  and  C_7
REMARK    3  A    between atoms: C_2  and  C_3
REMARK    4  A    between atoms: C_4  and  C_5
REMARK    5  A    between atoms: C_4  and  C_6
REMARK                            x       y       z     vdW  Elec       q    Type
REMARK                         _______ _______ _______ _____ _____    ______ ____
ROOT
ATOM      1  C   LIG A   1      -7.991  -1.871 126.641  0.00  0.00    +0.142 A 
ATOM      2  C   LIG A   1      -8.087  -0.500 127.042  0.00  0.00    +0.060 A 
ATOM      3  C   LIG A   1      -8.650   0.449 126.167  0.00  0.00    +0.146 A 
ATOM      4  C   LIG A   1      -9.099   0.132 124.896  0.00  0.00    +0.094 A 
ATOM      5  C   LIG A   1      -9.046  -1.207 124.557  0.00  0.00    +0.142 A 
ATOM      6  C   LIG A   1      -8.583  -2.230 125.397  0.00  0.00    +0.063 A 
ATOM      7  C   LIG A   1      -8.934  -3.421 124.687  0.00  0.00    +0.053 A 
ATOM      8  C   LIG A   1      -9.382  -3.048 123.443  0.00  0.00    +0.196 A 
ATOM      9  O   LIG A   1      -9.463  -1.702 123.364  0.00  0.00    -0.463 OA
ATOM     10  O   LIG A   1      -8.803   1.810 126.528  0.00  0.00    -0.422 OA
ATOM     11  C   LIG A   1      -8.414   2.297 127.759  0.00  0.00    +0.337 A 
ATOM     12  O   LIG A   1      -8.537   3.465 128.085  0.00  0.00    -0.245 OA
ATOM     13  C   LIG A   1      -7.816   1.312 128.667  0.00  0.00    +0.093 A 
ATOM     14  C   LIG A   1      -7.653   0.017 128.348  0.00  0.00    +0.022 A 
ENDROOT
BRANCH   1  15
ATOM     15  O   LIG A   1      -7.349  -2.759 127.522  0.00  0.00    -0.486 OA
BRANCH  15  16
ATOM     16  C   LIG A   1      -8.193  -3.554 128.378  0.00  0.00    +0.257 C 
BRANCH  16  17
ATOM     17  C   LIG A   1      -8.001  -3.150 129.823  0.00  0.00    +0.012 C 
ATOM     18  C   LIG A   1      -6.990  -3.472 130.663  0.00  0.00    -0.076 C 
ATOM     19  C   LIG A   1      -5.759  -4.277 130.322  0.00  0.00    +0.038 C 
ATOM     20  C   LIG A   1      -7.034  -3.067 132.118  0.00  0.00    +0.038 C 
ENDBRANCH  16  17
ENDBRANCH  15  16
ENDBRANCH   1  15
TORSDOF 3
ENDMDL
MODEL 6
REMARK VINA RESULT:      -6.3      3.385      5.505
REMARK  Name = NuBBE_1610
REMARK  5 active torsions:
REMARK  status: ('A' for Active; 'I' for Inactive)
REMARK    1  A    between atoms: O_1  and  C_2
REMARK    2  A    between atoms: O_1  and  C_7
REMARK    3  A    between atoms: C_2  and  C_3
REMARK    4  A    between atoms: C_4  and  C_5
REMARK    5  A    between atoms: C_4  and  C_6
REMARK                            x       y       z     vdW  Elec       q    Type
REMARK                         _______ _______ _______ _____ _____    ______ ____
ROOT
ATOM      1  C   LIG A   1      -7.091   2.326 123.578  0.00  0.00    +0.142 A 
ATOM      2  C   LIG A   1      -7.157   2.811 124.922  0.00  0.00    +0.060 A 
ATOM      3  C   LIG A   1      -6.446   3.971 125.285  0.00  0.00    +0.146 A 
ATOM      4  C   LIG A   1      -5.639   4.670 124.403  0.00  0.00    +0.094 A 
ATOM      5  C   LIG A   1      -5.638   4.212 123.098  0.00  0.00    +0.142 A 
ATOM      6  C   LIG A   1      -6.383   3.119 122.631  0.00  0.00    +0.063 A 
ATOM      7  C   LIG A   1      -6.215   3.192 121.212  0.00  0.00    +0.053 A 
ATOM      8  C   LIG A   1      -5.269   4.154 120.953  0.00  0.00    +0.196 A 
ATOM      9  O   LIG A   1      -4.924   4.785 122.097  0.00  0.00    -0.463 OA
ATOM     10  O   LIG A   1      -6.507   4.516 126.591  0.00  0.00    -0.422 OA
ATOM     11  C   LIG A   1      -7.268   3.950 127.594  0.00  0.00    +0.337 A 
ATOM     12  O   LIG A   1      -7.331   4.405 128.723  0.00  0.00    -0.245 OA
ATOM     13  C   LIG A   1      -7.999   2.734 127.220  0.00  0.00    +0.093 A 
ATOM     14  C   LIG A   1      -7.955   2.194 125.991  0.00  0.00    +0.022 A 
ENDROOT
BRANCH   1  15
ATOM     15  O   LIG A   1      -7.757   1.121 123.291  0.00  0.00    -0.486 OA
BRANCH  15  16
ATOM     16  C   LIG A   1      -6.995  -0.094 123.427  0.00  0.00    +0.257 C 
BRANCH  16  17
ATOM     17  C   LIG A   1      -7.874  -1.295 123.161  0.00  0.00    +0.012 C 
ATOM     18  C   LIG A   1      -8.670  -1.969 124.025  0.00  0.00    -0.076 C 
ATOM     19  C   LIG A   1      -8.915  -1.626 125.475  0.00  0.00    +0.038 C 
ATOM     20  C   LIG A   1      -9.387  -3.227 123.597  0.00  0.00    +0.038 C 
ENDBRANCH  16  17
ENDBRANCH  15  16
ENDBRANCH   1  15
TORSDOF 3
ENDMDL
MODEL 7
REMARK VINA RESULT:      -6.3      2.086      4.770
REMARK  Name = NuBBE_1610
REMARK  5 active torsions:
REMARK  status: ('A' for Active; 'I' for Inactive)
REMARK    1  A    between atoms: O_1  and  C_2
REMARK    2  A    between atoms: O_1  and  C_7
REMARK    3  A    between atoms: C_2  and  C_3
REMARK    4  A    between atoms: C_4  and  C_5
REMARK    5  A    between atoms: C_4  and  C_6
REMARK                            x       y       z     vdW  Elec       q    Type
REMARK                         _______ _______ _______ _____ _____    ______ ____
ROOT
ATOM      1  C   LIG A   1      -6.198  -0.720 126.026  0.00  0.00    +0.142 A 
ATOM      2  C   LIG A   1      -7.207  -1.485 125.362  0.00  0.00    +0.060 A 
ATOM      3  C   LIG A   1      -8.159  -0.838 124.551  0.00  0.00    +0.146 A 
ATOM      4  C   LIG A   1      -8.197   0.536 124.379  0.00  0.00    +0.094 A 
ATOM      5  C   LIG A   1      -7.177   1.245 124.987  0.00  0.00    +0.142 A 
ATOM      6  C   LIG A   1      -6.140   0.674 125.739  0.00  0.00    +0.063 A 
ATOM      7  C   LIG A   1      -5.248   1.771 125.952  0.00  0.00    +0.053 A 
ATOM      8  C   LIG A   1      -5.874   2.910 125.507  0.00  0.00    +0.196 A 
ATOM      9  O   LIG A   1      -7.043   2.593 124.909  0.00  0.00    -0.463 OA
ATOM     10  O   LIG A   1      -9.156  -1.551 123.840  0.00  0.00    -0.422 OA
ATOM     11  C   LIG A   1      -9.260  -2.926 123.893  0.00  0.00    +0.337 A 
ATOM     12  O   LIG A   1     -10.112  -3.555 123.290  0.00  0.00    -0.245 OA
ATOM     13  C   LIG A   1      -8.277  -3.601 124.748  0.00  0.00    +0.093 A 
ATOM     14  C   LIG A   1      -7.326  -2.949 125.436  0.00  0.00    +0.022 A 
ENDROOT
BRANCH   1  15
ATOM     15  O   LIG A   1      -5.323  -1.409 126.885  0.00  0.00    -0.486 OA
BRANCH  15  16
ATOM     16  C   LIG A   1      -5.461  -1.156 128.297  0.00  0.00    +0.257 C 
BRANCH  16  17
ATOM     17  C   LIG A   1      -5.328  -2.446 129.074  0.00  0.00    +0.012 C 
ATOM     18  C   LIG A   1      -6.303  -3.293 129.482  0.00  0.00    -0.076 C 
ATOM     19  C   LIG A   1      -7.779  -3.170 129.189  0.00  0.00    +0.038 C 
ATOM     20  C   LIG A   1      -5.982  -4.480 130.358  0.00  0.00    +0.038 C 
ENDBRANCH  16  17
ENDBRANCH  15  16
ENDBRANCH   1  15
TORSDOF 3
ENDMDL
MODEL 8
REMARK VINA RESULT:      -6.3      1.805      4.886
REMARK  Name = NuBBE_1610
REMARK  5 active torsions:
REMARK  status: ('A' for Active; 'I' for Inactive)
REMARK    1  A    between atoms: O_1  and  C_2
REMARK    2  A    between atoms: O_1  and  C_7
REMARK    3  A    between atoms: C_2  and  C_3
REMARK    4  A    between atoms: C_4  and  C_5
REMARK    5  A    between atoms: C_4  and  C_6
REMARK                            x       y       z     vdW  Elec       q    Type
REMARK                         _______ _______ _______ _____ _____    ______ ____
ROOT
ATOM      1  C   LIG A   1      -7.627  -0.664 127.660  0.00  0.00    +0.142 A 
ATOM      2  C   LIG A   1      -7.891   0.392 126.731  0.00  0.00    +0.060 A 
ATOM      3  C   LIG A   1      -8.313   1.650 127.200  0.00  0.00    +0.146 A 
ATOM      4  C   LIG A   1      -8.525   1.925 128.541  0.00  0.00    +0.094 A 
ATOM      5  C   LIG A   1      -8.208   0.906 129.420  0.00  0.00    +0.142 A 
ATOM      6  C   LIG A   1      -7.700  -0.347 129.047  0.00  0.00    +0.063 A 
ATOM      7  C   LIG A   1      -7.338  -0.940 130.297  0.00  0.00    +0.053 A 
ATOM      8  C   LIG A   1      -7.812  -0.125 131.297  0.00  0.00    +0.196 A 
ATOM      9  O   LIG A   1      -8.332   1.004 130.768  0.00  0.00    -0.463 OA
ATOM     10  O   LIG A   1      -8.552   2.741 126.328  0.00  0.00    -0.422 OA
ATOM     11  C   LIG A   1      -8.385   2.643 124.961  0.00  0.00    +0.337 A 
ATOM     12  O   LIG A   1      -8.587   3.570 124.196  0.00  0.00    -0.245 OA
ATOM     13  C   LIG A   1      -7.957   1.329 124.470  0.00  0.00    +0.093 A 
ATOM     14  C   LIG A   1      -7.730   0.278 125.275  0.00  0.00    +0.022 A 
ENDROOT
BRANCH   1  15
ATOM     15  O   LIG A   1      -7.285  -1.921 127.131  0.00  0.00    -0.486 OA
BRANCH  15  16
ATOM     16  C   LIG A   1      -8.274  -2.964 127.235  0.00  0.00    +0.257 C 
BRANCH  16  17
ATOM     17  C   LIG A   1      -9.064  -3.065 125.949  0.00  0.00    +0.012 C 
ATOM     18  C   LIG A   1      -8.618  -3.355 124.704  0.00  0.00    -0.076 C 
ATOM     19  C   LIG A   1      -7.204  -3.716 124.317  0.00  0.00    +0.038 C 
ATOM     20  C   LIG A   1      -9.547  -3.292 123.515  0.00  0.00    +0.038 C 
ENDBRANCH  16  17
ENDBRANCH  15  16
ENDBRANCH   1  15
TORSDOF 3
ENDMDL
MODEL 9
REMARK VINA RESULT:      -6.2      2.290      5.400
REMARK  Name = NuBBE_1610
REMARK  5 active torsions:
REMARK  status: ('A' for Active; 'I' for Inactive)
REMARK    1  A    between atoms: O_1  and  C_2
REMARK    2  A    between atoms: O_1  and  C_7
REMARK    3  A    between atoms: C_2  and  C_3
REMARK    4  A    between atoms: C_4  and  C_5
REMARK    5  A    between atoms: C_4  and  C_6
REMARK                            x       y       z     vdW  Elec       q    Type
REMARK                         _______ _______ _______ _____ _____    ______ ____
ROOT
ATOM      1  C   LIG A   1      -6.947  -0.395 124.826  0.00  0.00    +0.142 A 
ATOM      2  C   LIG A   1      -7.351   0.965 125.012  0.00  0.00    +0.060 A 
ATOM      3  C   LIG A   1      -8.597   1.400 124.522  0.00  0.00    +0.146 A 
ATOM      4  C   LIG A   1      -9.464   0.577 123.822  0.00  0.00    +0.094 A 
ATOM      5  C   LIG A   1      -9.074  -0.745 123.707  0.00  0.00    +0.142 A 
ATOM      6  C   LIG A   1      -7.893  -1.283 124.240  0.00  0.00    +0.063 A 
ATOM      7  C   LIG A   1      -8.059  -2.690 124.048  0.00  0.00    +0.053 A 
ATOM      8  C   LIG A   1      -9.181  -2.876 123.275  0.00  0.00    +0.196 A 
ATOM      9  O   LIG A   1      -9.807  -1.696 123.075  0.00  0.00    -0.463 OA
ATOM     10  O   LIG A   1      -9.062   2.725 124.711  0.00  0.00    -0.422 OA
ATOM     11  C   LIG A   1      -8.327   3.676 125.391  0.00  0.00    +0.337 A 
ATOM     12  O   LIG A   1      -8.711   4.820 125.562  0.00  0.00    -0.245 OA
ATOM     13  C   LIG A   1      -7.024   3.227 125.892  0.00  0.00    +0.093 A 
ATOM     14  C   LIG A   1      -6.557   1.979 125.720  0.00  0.00    +0.022 A 
ENDROOT
BRANCH   1  15
ATOM     15  O   LIG A   1      -5.661  -0.755 125.267  0.00  0.00    -0.486 OA
BRANCH  15  16
ATOM     16  C   LIG A   1      -5.578  -1.794 126.261  0.00  0.00    +0.257 C 
BRANCH  16  17
ATOM     17  C   LIG A   1      -6.132  -1.302 127.579  0.00  0.00    +0.012 C 
ATOM     18  C   LIG A   1      -7.238  -1.719 128.240  0.00  0.00    -0.076 C 
ATOM     19  C   LIG A   1      -8.159  -2.843 127.831  0.00  0.00    +0.038 C 
ATOM     20  C   LIG A   1      -7.698  -1.019 129.496  0.00  0.00    +0.038 C 
ENDBRANCH  16  17
ENDBRANCH  15  16
ENDBRANCH   1  15
TORSDOF 3
ENDMDL
