MODEL 1
REMARK VINA RESULT:      -9.7      0.000      0.000
REMARK  Name = NuBBE_1442
REMARK  6 active torsions:
REMARK  status: ('A' for Active; 'I' for Inactive)
REMARK    1  A    between atoms: C_1  and  C_2
REMARK    2  A    between atoms: C_2  and  C_3
REMARK    3  A    between atoms: C_8  and  C_31
REMARK    4  A    between atoms: C_10  and  C_11
REMARK    5  A    between atoms: C_17  and  C_19
REMARK    6  A    between atoms: C_25  and  C_26
REMARK                            x       y       z     vdW  Elec       q    Type
REMARK                         _______ _______ _______ _____ _____    ______ ____
ROOT
ATOM      1  C   LIG A   1      -5.744  -4.481 130.396  0.00  0.00    +0.019 C 
ATOM      2  C   LIG A   1      -6.273  -3.026 130.469  0.00  0.00    +0.027 C 
ATOM      3  C   LIG A   1      -7.357  -3.000 131.565  0.00  0.00    +0.019 C 
ATOM      4  C   LIG A   1      -5.102  -2.140 131.004  0.00  0.00    +0.142 C 
ATOM      5  C   LIG A   1      -4.982  -0.693 130.555  0.00  0.00    +0.107 C 
ATOM      6  C   LIG A   1      -5.198  -0.683 129.067  0.00  0.00    +0.132 C 
ATOM      7  C   LIG A   1      -6.628  -1.137 128.699  0.00  0.00    +0.008 C 
ATOM      8  C   LIG A   1      -6.484  -0.798 127.209  0.00  0.00    +0.073 C 
ATOM      9  C   LIG A   1      -7.581  -1.061 126.165  0.00  0.00    +0.148 C 
ATOM     10  C   LIG A   1      -6.997  -1.996 125.061  0.00  0.00    +0.059 C 
ATOM     11  O   LIG A   1      -8.708  -1.701 126.814  0.00  0.00    -0.455 OA
ATOM     12  C   LIG A   1      -8.019   0.240 125.480  0.00  0.00    +0.141 C 
ATOM     13  C   LIG A   1      -8.885   0.145 124.242  0.00  0.00    +0.156 C 
ATOM     14  C   LIG A   1      -8.408   1.170 123.255  0.00  0.00    +0.043 C 
ATOM     15  C   LIG A   1      -6.964   1.494 123.722  0.00  0.00    +0.034 C 
ATOM     16  O   LIG A   1      -9.410   0.588 125.490  0.00  0.00    -0.360 OA
ATOM     17  C   LIG A   1      -7.055   1.443 125.282  0.00  0.00    +0.013 C 
ATOM     18  C   LIG A   1      -7.698   2.743 125.851  0.00  0.00    +0.015 C 
ATOM     19  C   LIG A   1      -5.686   1.217 125.981  0.00  0.00    +0.042 C 
ATOM     20  C   LIG A   1      -5.998   0.639 127.349  0.00  0.00    +0.127 C 
ATOM     21  O   LIG A   1      -4.960   0.557 128.351  0.00  0.00    -0.372 OA
ATOM     22  C   LIG A   1      -7.730  -0.281 129.393  0.00  0.00    +0.014 C 
ATOM     23  C   LIG A   1      -6.778  -2.637 129.013  0.00  0.00    +0.021 C 
ATOM     24  C   LIG A   1      -8.201  -3.134 128.670  0.00  0.00    +0.125 C 
ATOM     25  C   LIG A   1      -8.542  -2.994 127.203  0.00  0.00    +0.308 C 
ATOM     26  O   LIG A   1      -8.695  -3.949 126.453  0.00  0.00    -0.251 OA
ATOM     27  O   LIG A   1      -4.334  -2.563 131.874  0.00  0.00    -0.297 OA
ENDROOT
BRANCH  15  28
ATOM     28  C   LIG A   1      -6.364   2.728 123.126  0.00  0.00    -0.006 A 
ATOM     29  C   LIG A   1      -5.862   3.844 123.768  0.00  0.00    +0.198 A 
ATOM     30  O   LIG A   1      -5.413   4.760 122.875  0.00  0.00    -0.471 OA
ATOM     31  C   LIG A   1      -5.627   4.244 121.640  0.00  0.00    +0.195 A 
ATOM     32  C   LIG A   1      -6.208   3.002 121.736  0.00  0.00    +0.045 A 
ENDBRANCH  15  28
TORSDOF 1
ENDMDL
MODEL 2
REMARK VINA RESULT:      -9.4      3.217      6.431
REMARK  Name = NuBBE_1442
REMARK  6 active torsions:
REMARK  status: ('A' for Active; 'I' for Inactive)
REMARK    1  A    between atoms: C_1  and  C_2
REMARK    2  A    between atoms: C_2  and  C_3
REMARK    3  A    between atoms: C_8  and  C_31
REMARK    4  A    between atoms: C_10  and  C_11
REMARK    5  A    between atoms: C_17  and  C_19
REMARK    6  A    between atoms: C_25  and  C_26
REMARK                            x       y       z     vdW  Elec       q    Type
REMARK                         _______ _______ _______ _____ _____    ______ ____
ROOT
ATOM      1  C   LIG A   1      -8.268  -3.760 125.115  0.00  0.00    +0.019 C 
ATOM      2  C   LIG A   1      -7.746  -2.311 124.936  0.00  0.00    +0.027 C 
ATOM      3  C   LIG A   1      -6.557  -2.384 123.957  0.00  0.00    +0.019 C 
ATOM      4  C   LIG A   1      -8.864  -1.511 124.194  0.00  0.00    +0.142 C 
ATOM      5  C   LIG A   1      -9.040  -0.027 124.467  0.00  0.00    +0.107 C 
ATOM      6  C   LIG A   1      -8.975   0.148 125.959  0.00  0.00    +0.132 C 
ATOM      7  C   LIG A   1      -7.587  -0.236 126.515  0.00  0.00    +0.008 C 
ATOM      8  C   LIG A   1      -7.882   0.260 127.938  0.00  0.00    +0.073 C 
ATOM      9  C   LIG A   1      -6.895   0.133 129.107  0.00  0.00    +0.148 C 
ATOM     10  C   LIG A   1      -7.579  -0.688 130.244  0.00  0.00    +0.059 C 
ATOM     11  O   LIG A   1      -5.703  -0.553 128.648  0.00  0.00    -0.455 OA
ATOM     12  C   LIG A   1      -6.539   1.508 129.686  0.00  0.00    +0.141 C 
ATOM     13  C   LIG A   1      -5.801   1.564 131.007  0.00  0.00    +0.156 C 
ATOM     14  C   LIG A   1      -6.383   2.680 131.823  0.00  0.00    +0.043 C 
ATOM     15  C   LIG A   1      -7.776   2.924 131.183  0.00  0.00    +0.034 C 
ATOM     16  O   LIG A   1      -5.156   1.879 129.776  0.00  0.00    -0.360 OA
ATOM     17  C   LIG A   1      -7.527   2.707 129.655  0.00  0.00    +0.013 C 
ATOM     18  C   LIG A   1      -6.840   3.950 129.013  0.00  0.00    +0.015 C 
ATOM     19  C   LIG A   1      -8.817   2.380 128.851  0.00  0.00    +0.042 C 
ATOM     20  C   LIG A   1      -8.364   1.664 127.593  0.00  0.00    +0.127 C 
ATOM     21  O   LIG A   1      -9.294   1.454 126.508  0.00  0.00    -0.372 OA
ATOM     22  C   LIG A   1      -6.427   0.561 125.845  0.00  0.00    +0.014 C 
ATOM     23  C   LIG A   1      -7.393  -1.758 126.384  0.00  0.00    +0.021 C 
ATOM     24  C   LIG A   1      -6.008  -2.187 126.918  0.00  0.00    +0.125 C 
ATOM     25  C   LIG A   1      -5.819  -1.883 128.388  0.00  0.00    +0.308 C 
ATOM     26  O   LIG A   1      -5.734  -2.748 129.250  0.00  0.00    -0.251 OA
ATOM     27  O   LIG A   1      -9.537  -2.040 123.303  0.00  0.00    -0.297 OA
ENDROOT
BRANCH  15  28
ATOM     28  C   LIG A   1      -8.442   4.204 131.577  0.00  0.00    -0.006 A 
ATOM     29  C   LIG A   1      -7.897   5.306 132.208  0.00  0.00    +0.198 A 
ATOM     30  O   LIG A   1      -8.833   6.269 132.402  0.00  0.00    -0.471 OA
ATOM     31  C   LIG A   1      -9.999   5.793 131.902  0.00  0.00    +0.195 A 
ATOM     32  C   LIG A   1      -9.816   4.532 131.385  0.00  0.00    +0.045 A 
ENDBRANCH  15  28
TORSDOF 1
ENDMDL
MODEL 3
REMARK VINA RESULT:      -9.2      1.857      7.651
REMARK  Name = NuBBE_1442
REMARK  6 active torsions:
REMARK  status: ('A' for Active; 'I' for Inactive)
REMARK    1  A    between atoms: C_1  and  C_2
REMARK    2  A    between atoms: C_2  and  C_3
REMARK    3  A    between atoms: C_8  and  C_31
REMARK    4  A    between atoms: C_10  and  C_11
REMARK    5  A    between atoms: C_17  and  C_19
REMARK    6  A    between atoms: C_25  and  C_26
REMARK                            x       y       z     vdW  Elec       q    Type
REMARK                         _______ _______ _______ _____ _____    ______ ____
ROOT
ATOM      1  C   LIG A   1      -9.087   0.954 123.713  0.00  0.00    +0.019 C 
ATOM      2  C   LIG A   1      -7.954   1.287 124.718  0.00  0.00    +0.027 C 
ATOM      3  C   LIG A   1      -6.745   1.759 123.887  0.00  0.00    +0.019 C 
ATOM      4  C   LIG A   1      -8.422   2.531 125.540  0.00  0.00    +0.142 C 
ATOM      5  C   LIG A   1      -7.977   2.696 126.983  0.00  0.00    +0.107 C 
ATOM      6  C   LIG A   1      -8.154   1.357 127.645  0.00  0.00    +0.132 C 
ATOM      7  C   LIG A   1      -7.227   0.291 127.022  0.00  0.00    +0.008 C 
ATOM      8  C   LIG A   1      -7.563  -0.787 128.063  0.00  0.00    +0.073 C 
ATOM      9  C   LIG A   1      -7.001  -2.216 128.023  0.00  0.00    +0.148 C 
ATOM     10  C   LIG A   1      -8.197  -3.215 127.961  0.00  0.00    +0.059 C 
ATOM     11  O   LIG A   1      -6.168  -2.364 126.846  0.00  0.00    -0.455 OA
ATOM     12  C   LIG A   1      -6.203  -2.535 129.294  0.00  0.00    +0.141 C 
ATOM     13  C   LIG A   1      -5.810  -3.974 129.555  0.00  0.00    +0.156 C 
ATOM     14  C   LIG A   1      -5.995  -4.254 131.017  0.00  0.00    +0.043 C 
ATOM     15  C   LIG A   1      -6.969  -3.142 131.490  0.00  0.00    +0.034 C 
ATOM     16  O   LIG A   1      -4.852  -2.995 129.160  0.00  0.00    -0.360 OA
ATOM     17  C   LIG A   1      -6.529  -1.886 130.668  0.00  0.00    +0.013 C 
ATOM     18  C   LIG A   1      -5.248  -1.238 131.272  0.00  0.00    +0.015 C 
ATOM     19  C   LIG A   1      -7.632  -0.797 130.553  0.00  0.00    +0.042 C 
ATOM     20  C   LIG A   1      -7.292   0.024 129.324  0.00  0.00    +0.127 C 
ATOM     21  O   LIG A   1      -7.970   1.277 129.083  0.00  0.00    -0.372 OA
ATOM     22  C   LIG A   1      -5.724   0.699 127.063  0.00  0.00    +0.014 C 
ATOM     23  C   LIG A   1      -7.703  -0.019 125.591  0.00  0.00    +0.021 C 
ATOM     24  C   LIG A   1      -6.796  -1.076 124.922  0.00  0.00    +0.125 C 
ATOM     25  C   LIG A   1      -6.802  -2.406 125.644  0.00  0.00    +0.308 C 
ATOM     26  O   LIG A   1      -7.289  -3.425 125.174  0.00  0.00    -0.251 OA
ATOM     27  O   LIG A   1      -9.057   3.443 125.001  0.00  0.00    -0.297 OA
ENDROOT
BRANCH  15  28
ATOM     28  C   LIG A   1      -7.068  -2.970 132.972  0.00  0.00    -0.006 A 
ATOM     29  C   LIG A   1      -8.157  -2.584 133.729  0.00  0.00    +0.198 A 
ATOM     30  O   LIG A   1      -7.843  -2.536 135.048  0.00  0.00    -0.471 OA
ATOM     31  C   LIG A   1      -6.538  -2.887 135.156  0.00  0.00    +0.195 A 
ATOM     32  C   LIG A   1      -6.015  -3.162 133.915  0.00  0.00    +0.045 A 
ENDBRANCH  15  28
TORSDOF 1
ENDMDL
MODEL 4
REMARK VINA RESULT:      -9.0      2.883      6.653
REMARK  Name = NuBBE_1442
REMARK  6 active torsions:
REMARK  status: ('A' for Active; 'I' for Inactive)
REMARK    1  A    between atoms: C_1  and  C_2
REMARK    2  A    between atoms: C_2  and  C_3
REMARK    3  A    between atoms: C_8  and  C_31
REMARK    4  A    between atoms: C_10  and  C_11
REMARK    5  A    between atoms: C_17  and  C_19
REMARK    6  A    between atoms: C_25  and  C_26
REMARK                            x       y       z     vdW  Elec       q    Type
REMARK                         _______ _______ _______ _____ _____    ______ ____
ROOT
ATOM      1  C   LIG A   1      -6.357  -1.933 122.999  0.00  0.00    +0.019 C 
ATOM      2  C   LIG A   1      -7.581  -1.640 123.905  0.00  0.00    +0.027 C 
ATOM      3  C   LIG A   1      -8.811  -1.557 122.979  0.00  0.00    +0.019 C 
ATOM      4  C   LIG A   1      -7.801  -2.902 124.799  0.00  0.00    +0.142 C 
ATOM      5  C   LIG A   1      -8.369  -2.747 126.200  0.00  0.00    +0.107 C 
ATOM      6  C   LIG A   1      -7.637  -1.599 126.838  0.00  0.00    +0.132 C 
ATOM      7  C   LIG A   1      -7.918  -0.270 126.104  0.00  0.00    +0.008 C 
ATOM      8  C   LIG A   1      -7.193   0.599 127.142  0.00  0.00    +0.073 C 
ATOM      9  C   LIG A   1      -7.023   2.120 127.011  0.00  0.00    +0.148 C 
ATOM     10  C   LIG A   1      -5.499   2.451 127.031  0.00  0.00    +0.059 C 
ATOM     11  O   LIG A   1      -7.610   2.556 125.759  0.00  0.00    -0.455 OA
ATOM     12  C   LIG A   1      -7.666   2.855 128.195  0.00  0.00    +0.141 C 
ATOM     13  C   LIG A   1      -7.364   4.327 128.379  0.00  0.00    +0.156 C 
ATOM     14  C   LIG A   1      -7.171   4.587 129.843  0.00  0.00    +0.043 C 
ATOM     15  C   LIG A   1      -6.859   3.186 130.434  0.00  0.00    +0.034 C 
ATOM     16  O   LIG A   1      -8.637   3.875 127.925  0.00  0.00    -0.360 OA
ATOM     17  C   LIG A   1      -7.773   2.222 129.610  0.00  0.00    +0.013 C 
ATOM     18  C   LIG A   1      -9.247   2.278 130.111  0.00  0.00    +0.015 C 
ATOM     19  C   LIG A   1      -7.297   0.742 129.626  0.00  0.00    +0.042 C 
ATOM     20  C   LIG A   1      -7.895   0.090 128.394  0.00  0.00    +0.127 C 
ATOM     21  O   LIG A   1      -7.860  -1.347 128.251  0.00  0.00    -0.372 OA
ATOM     22  C   LIG A   1      -9.438   0.063 126.018  0.00  0.00    +0.014 C 
ATOM     23  C   LIG A   1      -7.256  -0.310 124.714  0.00  0.00    +0.021 C 
ATOM     24  C   LIG A   1      -7.521   0.999 123.937  0.00  0.00    +0.125 C 
ATOM     25  C   LIG A   1      -6.948   2.221 124.619  0.00  0.00    +0.308 C 
ATOM     26  O   LIG A   1      -6.012   2.868 124.168  0.00  0.00    -0.251 OA
ATOM     27  O   LIG A   1      -7.627  -4.037 124.346  0.00  0.00    -0.297 OA
ENDROOT
BRANCH  15  28
ATOM     28  C   LIG A   1      -6.953   3.088 131.923  0.00  0.00    -0.006 A 
ATOM     29  C   LIG A   1      -6.461   2.104 132.759  0.00  0.00    +0.198 A 
ATOM     30  O   LIG A   1      -6.760   2.370 134.055  0.00  0.00    -0.471 OA
ATOM     31  C   LIG A   1      -7.458   3.532 134.068  0.00  0.00    +0.195 A 
ATOM     32  C   LIG A   1      -7.605   4.014 132.789  0.00  0.00    +0.045 A 
ENDBRANCH  15  28
TORSDOF 1
ENDMDL
MODEL 5
REMARK VINA RESULT:      -8.9      3.073      5.575
REMARK  Name = NuBBE_1442
REMARK  6 active torsions:
REMARK  status: ('A' for Active; 'I' for Inactive)
REMARK    1  A    between atoms: C_1  and  C_2
REMARK    2  A    between atoms: C_2  and  C_3
REMARK    3  A    between atoms: C_8  and  C_31
REMARK    4  A    between atoms: C_10  and  C_11
REMARK    5  A    between atoms: C_17  and  C_19
REMARK    6  A    between atoms: C_25  and  C_26
REMARK                            x       y       z     vdW  Elec       q    Type
REMARK                         _______ _______ _______ _____ _____    ______ ____
ROOT
ATOM      1  C   LIG A   1      -5.915  -3.549 135.840  0.00  0.00    +0.019 C 
ATOM      2  C   LIG A   1      -5.035  -3.563 134.563  0.00  0.00    +0.027 C 
ATOM      3  C   LIG A   1      -3.615  -3.148 134.995  0.00  0.00    +0.019 C 
ATOM      4  C   LIG A   1      -4.924  -5.052 134.101  0.00  0.00    +0.142 C 
ATOM      5  C   LIG A   1      -4.791  -5.377 132.623  0.00  0.00    +0.107 C 
ATOM      6  C   LIG A   1      -5.803  -4.530 131.901  0.00  0.00    +0.132 C 
ATOM      7  C   LIG A   1      -5.488  -3.025 132.047  0.00  0.00    +0.008 C 
ATOM      8  C   LIG A   1      -6.571  -2.577 131.055  0.00  0.00    +0.073 C 
ATOM      9  C   LIG A   1      -6.876  -1.107 130.732  0.00  0.00    +0.148 C 
ATOM     10  C   LIG A   1      -8.374  -0.829 131.069  0.00  0.00    +0.059 C 
ATOM     11  O   LIG A   1      -6.021  -0.258 131.538  0.00  0.00    -0.455 OA
ATOM     12  C   LIG A   1      -6.680  -0.812 129.240  0.00  0.00    +0.141 C 
ATOM     13  C   LIG A   1      -7.194   0.502 128.691  0.00  0.00    +0.156 C 
ATOM     14  C   LIG A   1      -7.816   0.241 127.352  0.00  0.00    +0.043 C 
ATOM     15  C   LIG A   1      -8.112  -1.283 127.368  0.00  0.00    +0.034 C 
ATOM     16  O   LIG A   1      -5.800   0.255 128.860  0.00  0.00    -0.360 OA
ATOM     17  C   LIG A   1      -6.897  -1.890 128.142  0.00  0.00    +0.013 C 
ATOM     18  C   LIG A   1      -5.638  -1.985 127.229  0.00  0.00    +0.015 C 
ATOM     19  C   LIG A   1      -7.180  -3.294 128.748  0.00  0.00    +0.042 C 
ATOM     20  C   LIG A   1      -6.190  -3.474 129.883  0.00  0.00    +0.127 C 
ATOM     21  O   LIG A   1      -6.012  -4.774 130.485  0.00  0.00    -0.372 OA
ATOM     22  C   LIG A   1      -4.055  -2.658 131.557  0.00  0.00    +0.014 C 
ATOM     23  C   LIG A   1      -5.727  -2.598 133.506  0.00  0.00    +0.021 C 
ATOM     24  C   LIG A   1      -5.414  -1.097 133.702  0.00  0.00    +0.125 C 
ATOM     25  C   LIG A   1      -6.295  -0.193 132.868  0.00  0.00    +0.308 C 
ATOM     26  O   LIG A   1      -7.137   0.554 133.348  0.00  0.00    -0.251 OA
ATOM     27  O   LIG A   1      -4.830  -5.966 134.926  0.00  0.00    -0.297 OA
ENDROOT
BRANCH  15  28
ATOM     28  C   LIG A   1      -8.425  -1.884 126.036  0.00  0.00    -0.006 A 
ATOM     29  C   LIG A   1      -8.177  -1.375 124.775  0.00  0.00    +0.198 A 
ATOM     30  O   LIG A   1      -8.621  -2.220 123.811  0.00  0.00    -0.471 OA
ATOM     31  C   LIG A   1      -9.169  -3.286 124.443  0.00  0.00    +0.195 A 
ATOM     32  C   LIG A   1      -9.077  -3.132 125.806  0.00  0.00    +0.045 A 
ENDBRANCH  15  28
TORSDOF 1
ENDMDL
MODEL 6
REMARK VINA RESULT:      -8.8      3.523      6.538
REMARK  Name = NuBBE_1442
REMARK  6 active torsions:
REMARK  status: ('A' for Active; 'I' for Inactive)
REMARK    1  A    between atoms: C_1  and  C_2
REMARK    2  A    between atoms: C_2  and  C_3
REMARK    3  A    between atoms: C_8  and  C_31
REMARK    4  A    between atoms: C_10  and  C_11
REMARK    5  A    between atoms: C_17  and  C_19
REMARK    6  A    between atoms: C_25  and  C_26
REMARK                            x       y       z     vdW  Elec       q    Type
REMARK                         _______ _______ _______ _____ _____    ______ ____
ROOT
ATOM      1  C   LIG A   1      -2.235   5.518 130.893  0.00  0.00    +0.019 C 
ATOM      2  C   LIG A   1      -3.501   5.469 129.998  0.00  0.00    +0.027 C 
ATOM      3  C   LIG A   1      -4.439   6.589 130.492  0.00  0.00    +0.019 C 
ATOM      4  C   LIG A   1      -3.058   5.885 128.558  0.00  0.00    +0.142 C 
ATOM      5  C   LIG A   1      -3.769   5.299 127.350  0.00  0.00    +0.107 C 
ATOM      6  C   LIG A   1      -3.907   3.823 127.604  0.00  0.00    +0.132 C 
ATOM      7  C   LIG A   1      -4.813   3.541 128.822  0.00  0.00    +0.008 C 
ATOM      8  C   LIG A   1      -4.842   2.021 128.603  0.00  0.00    +0.073 C 
ATOM      9  C   LIG A   1      -5.563   1.038 129.538  0.00  0.00    +0.148 C 
ATOM     10  C   LIG A   1      -4.518   0.011 130.073  0.00  0.00    +0.059 C 
ATOM     11  O   LIG A   1      -6.144   1.776 130.642  0.00  0.00    -0.455 OA
ATOM     12  C   LIG A   1      -6.642   0.247 128.789  0.00  0.00    +0.141 C 
ATOM     13  C   LIG A   1      -7.262  -0.952 129.475  0.00  0.00    +0.156 C 
ATOM     14  C   LIG A   1      -7.424  -2.044 128.458  0.00  0.00    +0.043 C 
ATOM     15  C   LIG A   1      -6.435  -1.651 127.328  0.00  0.00    +0.034 C 
ATOM     16  O   LIG A   1      -7.983   0.264 129.295  0.00  0.00    -0.360 OA
ATOM     17  C   LIG A   1      -6.529  -0.091 127.276  0.00  0.00    +0.013 C 
ATOM     18  C   LIG A   1      -7.814   0.372 126.527  0.00  0.00    +0.015 C 
ATOM     19  C   LIG A   1      -5.295   0.588 126.616  0.00  0.00    +0.042 C 
ATOM     20  C   LIG A   1      -5.264   2.012 127.139  0.00  0.00    +0.127 C 
ATOM     21  O   LIG A   1      -4.395   2.987 126.522  0.00  0.00    -0.372 OA
ATOM     22  C   LIG A   1      -6.226   4.181 128.685  0.00  0.00    +0.014 C 
ATOM     23  C   LIG A   1      -4.093   3.998 130.104  0.00  0.00    +0.021 C 
ATOM     24  C   LIG A   1      -4.969   3.744 131.351  0.00  0.00    +0.125 C 
ATOM     25  C   LIG A   1      -5.284   2.280 131.568  0.00  0.00    +0.308 C 
ATOM     26  O   LIG A   1      -4.845   1.628 132.505  0.00  0.00    -0.251 OA
ATOM     27  O   LIG A   1      -2.213   6.769 128.385  0.00  0.00    -0.297 OA
ENDROOT
BRANCH  15  28
ATOM     28  C   LIG A   1      -6.626  -2.376 126.035  0.00  0.00    -0.006 A 
ATOM     29  C   LIG A   1      -7.752  -3.022 125.562  0.00  0.00    +0.198 A 
ATOM     30  O   LIG A   1      -7.524  -3.571 124.342  0.00  0.00    -0.471 OA
ATOM     31  C   LIG A   1      -6.240  -3.288 124.016  0.00  0.00    +0.195 A 
ATOM     32  C   LIG A   1      -5.643  -2.559 125.018  0.00  0.00    +0.045 A 
ENDBRANCH  15  28
TORSDOF 1
ENDMDL
MODEL 7
REMARK VINA RESULT:      -8.7      3.036      5.801
REMARK  Name = NuBBE_1442
REMARK  6 active torsions:
REMARK  status: ('A' for Active; 'I' for Inactive)
REMARK    1  A    between atoms: C_1  and  C_2
REMARK    2  A    between atoms: C_2  and  C_3
REMARK    3  A    between atoms: C_8  and  C_31
REMARK    4  A    between atoms: C_10  and  C_11
REMARK    5  A    between atoms: C_17  and  C_19
REMARK    6  A    between atoms: C_25  and  C_26
REMARK                            x       y       z     vdW  Elec       q    Type
REMARK                         _______ _______ _______ _____ _____    ______ ____
ROOT
ATOM      1  C   LIG A   1      -7.673  -1.905 122.787  0.00  0.00    +0.019 C 
ATOM      2  C   LIG A   1      -7.671  -2.118 124.323  0.00  0.00    +0.027 C 
ATOM      3  C   LIG A   1      -8.812  -3.106 124.638  0.00  0.00    +0.019 C 
ATOM      4  C   LIG A   1      -6.346  -2.864 124.680  0.00  0.00    +0.142 C 
ATOM      5  C   LIG A   1      -5.676  -2.618 126.021  0.00  0.00    +0.107 C 
ATOM      6  C   LIG A   1      -5.682  -1.130 126.240  0.00  0.00    +0.132 C 
ATOM      7  C   LIG A   1      -7.120  -0.581 126.362  0.00  0.00    +0.008 C 
ATOM      8  C   LIG A   1      -6.677   0.835 126.758  0.00  0.00    +0.073 C 
ATOM      9  C   LIG A   1      -7.651   1.998 126.999  0.00  0.00    +0.148 C 
ATOM     10  C   LIG A   1      -7.290   3.156 126.019  0.00  0.00    +0.059 C 
ATOM     11  O   LIG A   1      -9.004   1.541 126.749  0.00  0.00    -0.455 OA
ATOM     12  C   LIG A   1      -7.520   2.547 128.425  0.00  0.00    +0.141 C 
ATOM     13  C   LIG A   1      -8.198   3.859 128.757  0.00  0.00    +0.156 C 
ATOM     14  C   LIG A   1      -7.274   4.659 129.626  0.00  0.00    +0.043 C 
ATOM     15  C   LIG A   1      -5.879   4.028 129.369  0.00  0.00    +0.034 C 
ATOM     16  O   LIG A   1      -8.695   2.616 129.245  0.00  0.00    -0.360 OA
ATOM     17  C   LIG A   1      -6.184   2.502 129.217  0.00  0.00    +0.013 C 
ATOM     18  C   LIG A   1      -6.406   1.830 130.605  0.00  0.00    +0.015 C 
ATOM     19  C   LIG A   1      -5.079   1.717 128.454  0.00  0.00    +0.042 C 
ATOM     20  C   LIG A   1      -5.746   0.469 127.907  0.00  0.00    +0.127 C 
ATOM     21  O   LIG A   1      -4.939  -0.603 127.371  0.00  0.00    -0.372 OA
ATOM     22  C   LIG A   1      -7.938  -1.277 127.491  0.00  0.00    +0.014 C 
ATOM     23  C   LIG A   1      -7.818  -0.684 124.994  0.00  0.00    +0.021 C 
ATOM     24  C   LIG A   1      -9.268  -0.154 125.072  0.00  0.00    +0.125 C 
ATOM     25  C   LIG A   1      -9.347   1.308 125.454  0.00  0.00    +0.308 C 
ATOM     26  O   LIG A   1      -9.723   2.185 124.688  0.00  0.00    -0.251 OA
ATOM     27  O   LIG A   1      -5.891  -3.738 123.935  0.00  0.00    -0.297 OA
ENDROOT
BRANCH  15  28
ATOM     28  C   LIG A   1      -4.819   4.403 130.354  0.00  0.00    -0.006 A 
ATOM     29  C   LIG A   1      -4.962   4.942 131.618  0.00  0.00    +0.198 A 
ATOM     30  O   LIG A   1      -3.755   5.153 132.199  0.00  0.00    -0.471 OA
ATOM     31  C   LIG A   1      -2.814   4.755 131.308  0.00  0.00    +0.195 A 
ATOM     32  C   LIG A   1      -3.411   4.288 130.161  0.00  0.00    +0.045 A 
ENDBRANCH  15  28
TORSDOF 1
ENDMDL
MODEL 8
REMARK VINA RESULT:      -8.7      3.506      4.577
REMARK  Name = NuBBE_1442
REMARK  6 active torsions:
REMARK  status: ('A' for Active; 'I' for Inactive)
REMARK    1  A    between atoms: C_1  and  C_2
REMARK    2  A    between atoms: C_2  and  C_3
REMARK    3  A    between atoms: C_8  and  C_31
REMARK    4  A    between atoms: C_10  and  C_11
REMARK    5  A    between atoms: C_17  and  C_19
REMARK    6  A    between atoms: C_25  and  C_26
REMARK                            x       y       z     vdW  Elec       q    Type
REMARK                         _______ _______ _______ _____ _____    ______ ____
ROOT
ATOM      1  C   LIG A   1      -6.696   2.635 133.936  0.00  0.00    +0.019 C 
ATOM      2  C   LIG A   1      -7.600   3.377 132.917  0.00  0.00    +0.027 C 
ATOM      3  C   LIG A   1      -9.009   3.446 133.539  0.00  0.00    +0.019 C 
ATOM      4  C   LIG A   1      -7.091   4.852 132.843  0.00  0.00    +0.142 C 
ATOM      5  C   LIG A   1      -7.211   5.629 131.543  0.00  0.00    +0.107 C 
ATOM      6  C   LIG A   1      -6.750   4.710 130.446  0.00  0.00    +0.132 C 
ATOM      7  C   LIG A   1      -7.677   3.483 130.308  0.00  0.00    +0.008 C 
ATOM      8  C   LIG A   1      -7.003   2.964 129.030  0.00  0.00    +0.073 C 
ATOM      9  C   LIG A   1      -7.407   1.662 128.322  0.00  0.00    +0.148 C 
ATOM     10  C   LIG A   1      -6.158   0.729 128.254  0.00  0.00    +0.059 C 
ATOM     11  O   LIG A   1      -8.465   1.021 129.077  0.00  0.00    -0.455 OA
ATOM     12  C   LIG A   1      -7.857   1.930 126.880  0.00  0.00    +0.141 C 
ATOM     13  C   LIG A   1      -8.029   0.749 125.948  0.00  0.00    +0.156 C 
ATOM     14  C   LIG A   1      -7.488   1.131 124.601  0.00  0.00    +0.043 C 
ATOM     15  C   LIG A   1      -6.554   2.334 124.901  0.00  0.00    +0.034 C 
ATOM     16  O   LIG A   1      -9.148   1.463 126.465  0.00  0.00    -0.360 OA
ATOM     17  C   LIG A   1      -7.298   3.109 126.037  0.00  0.00    +0.013 C 
ATOM     18  C   LIG A   1      -8.470   3.961 125.464  0.00  0.00    +0.015 C 
ATOM     19  C   LIG A   1      -6.370   4.036 126.872  0.00  0.00    +0.042 C 
ATOM     20  C   LIG A   1      -7.064   4.243 128.205  0.00  0.00    +0.127 C 
ATOM     21  O   LIG A   1      -6.593   5.263 129.113  0.00  0.00    -0.372 OA
ATOM     22  C   LIG A   1      -9.166   3.875 130.069  0.00  0.00    +0.014 C 
ATOM     23  C   LIG A   1      -7.508   2.581 131.544  0.00  0.00    +0.021 C 
ATOM     24  C   LIG A   1      -8.428   1.342 131.454  0.00  0.00    +0.125 C 
ATOM     25  C   LIG A   1      -8.119   0.458 130.266  0.00  0.00    +0.308 C 
ATOM     26  O   LIG A   1      -7.647  -0.667 130.368  0.00  0.00    -0.251 OA
ATOM     27  O   LIG A   1      -6.693   5.437 133.856  0.00  0.00    -0.297 OA
ENDROOT
BRANCH  15  28
ATOM     28  C   LIG A   1      -6.140   3.132 123.706  0.00  0.00    -0.006 A 
ATOM     29  C   LIG A   1      -6.585   3.032 122.402  0.00  0.00    +0.198 A 
ATOM     30  O   LIG A   1      -5.957   3.931 121.603  0.00  0.00    -0.471 OA
ATOM     31  C   LIG A   1      -5.093   4.620 122.386  0.00  0.00    +0.195 A 
ATOM     32  C   LIG A   1      -5.164   4.171 123.684  0.00  0.00    +0.045 A 
ENDBRANCH  15  28
TORSDOF 1
ENDMDL
MODEL 9
REMARK VINA RESULT:      -8.6      4.779      8.226
REMARK  Name = NuBBE_1442
REMARK  6 active torsions:
REMARK  status: ('A' for Active; 'I' for Inactive)
REMARK    1  A    between atoms: C_1  and  C_2
REMARK    2  A    between atoms: C_2  and  C_3
REMARK    3  A    between atoms: C_8  and  C_31
REMARK    4  A    between atoms: C_10  and  C_11
REMARK    5  A    between atoms: C_17  and  C_19
REMARK    6  A    between atoms: C_25  and  C_26
REMARK                            x       y       z     vdW  Elec       q    Type
REMARK                         _______ _______ _______ _____ _____    ______ ____
ROOT
ATOM      1  C   LIG A   1      -2.881   7.294 131.978  0.00  0.00    +0.019 C 
ATOM      2  C   LIG A   1      -3.595   6.717 130.728  0.00  0.00    +0.027 C 
ATOM      3  C   LIG A   1      -4.202   7.913 129.969  0.00  0.00    +0.019 C 
ATOM      4  C   LIG A   1      -2.484   6.136 129.795  0.00  0.00    +0.142 C 
ATOM      5  C   LIG A   1      -2.787   4.935 128.915  0.00  0.00    +0.107 C 
ATOM      6  C   LIG A   1      -3.519   3.943 129.776  0.00  0.00    +0.132 C 
ATOM      7  C   LIG A   1      -4.883   4.496 130.244  0.00  0.00    +0.008 C 
ATOM      8  C   LIG A   1      -5.344   3.173 130.871  0.00  0.00    +0.073 C 
ATOM      9  C   LIG A   1      -6.677   3.000 131.615  0.00  0.00    +0.148 C 
ATOM     10  C   LIG A   1      -6.373   2.515 133.066  0.00  0.00    +0.059 C 
ATOM     11  O   LIG A   1      -7.367   4.274 131.651  0.00  0.00    -0.455 OA
ATOM     12  C   LIG A   1      -7.551   1.930 130.948  0.00  0.00    +0.141 C 
ATOM     13  C   LIG A   1      -8.771   1.431 131.692  0.00  0.00    +0.156 C 
ATOM     14  C   LIG A   1      -8.866  -0.053 131.498  0.00  0.00    +0.043 C 
ATOM     15  C   LIG A   1      -7.430  -0.467 131.076  0.00  0.00    +0.034 C 
ATOM     16  O   LIG A   1      -8.884   2.281 130.553  0.00  0.00    -0.360 OA
ATOM     17  C   LIG A   1      -6.948   0.721 130.181  0.00  0.00    +0.013 C 
ATOM     18  C   LIG A   1      -7.561   0.634 128.751  0.00  0.00    +0.015 C 
ATOM     19  C   LIG A   1      -5.402   0.820 130.054  0.00  0.00    +0.042 C 
ATOM     20  C   LIG A   1      -5.098   2.258 129.678  0.00  0.00    +0.127 C 
ATOM     21  O   LIG A   1      -3.774   2.622 129.230  0.00  0.00    -0.372 OA
ATOM     22  C   LIG A   1      -5.796   4.933 129.059  0.00  0.00    +0.014 C 
ATOM     23  C   LIG A   1      -4.647   5.642 131.244  0.00  0.00    +0.021 C 
ATOM     24  C   LIG A   1      -5.988   6.236 131.732  0.00  0.00    +0.125 C 
ATOM     25  C   LIG A   1      -6.849   5.232 132.466  0.00  0.00    +0.308 C 
ATOM     26  O   LIG A   1      -7.092   5.301 133.664  0.00  0.00    -0.251 OA
ATOM     27  O   LIG A   1      -1.395   6.705 129.677  0.00  0.00    -0.297 OA
ENDROOT
BRANCH  15  28
ATOM     28  C   LIG A   1      -7.309  -1.838 130.492  0.00  0.00    -0.006 A 
ATOM     29  C   LIG A   1      -6.319  -2.781 130.693  0.00  0.00    +0.198 A 
ATOM     30  O   LIG A   1      -6.562  -3.904 129.973  0.00  0.00    -0.471 OA
ATOM     31  C   LIG A   1      -7.715  -3.695 129.292  0.00  0.00    +0.195 A 
ATOM     32  C   LIG A   1      -8.214  -2.445 129.572  0.00  0.00    +0.045 A 
ENDBRANCH  15  28
TORSDOF 1
ENDMDL
