MODEL 1
REMARK VINA RESULT:      -7.7      0.000      0.000
REMARK  Name = NuBBE_649
REMARK  3 active torsions:
REMARK  status: ('A' for Active; 'I' for Inactive)
REMARK    1  A    between atoms: O_1  and  C_2
REMARK    2  A    between atoms: C_13  and  C_15
REMARK    3  A    between atoms: C_15  and  C_16
REMARK                            x       y       z     vdW  Elec       q    Type
REMARK                         _______ _______ _______ _____ _____    ______ ____
ROOT
ATOM      1  C   LIG A   1      -9.771   5.533 132.638  0.00  0.00    +0.131 A 
ATOM      2  C   LIG A   1      -8.567   6.028 132.096  0.00  0.00    +0.059 A 
ATOM      3  C   LIG A   1      -8.640   6.856 130.967  0.00  0.00    +0.149 A 
ATOM      4  O   LIG A   1      -7.491   7.390 130.362  0.00  0.00    -0.422 OA
ATOM      5  C   LIG A   1      -6.226   7.121 130.861  0.00  0.00    +0.337 A 
ATOM      6  C   LIG A   1      -6.151   6.223 132.025  0.00  0.00    +0.093 A 
ATOM      7  C   LIG A   1      -7.238   5.706 132.608  0.00  0.00    +0.022 A 
ATOM      8  O   LIG A   1      -5.209   7.592 130.367  0.00  0.00    -0.245 OA
ATOM      9  C   LIG A   1      -9.865   7.171 130.410  0.00  0.00    +0.041 A 
ATOM     10  C   LIG A   1     -11.026   6.657 130.956  0.00  0.00    +0.132 A 
ATOM     11  O   LIG A   1     -12.159   7.036 130.285  0.00  0.00    -0.484 OA
ATOM     12  C   LIG A   1     -11.713   8.136 129.437  0.00  0.00    +0.203 C 
ATOM     13  C   LIG A   1     -10.201   7.944 129.192  0.00  0.00    +0.091 C 
ATOM     14  C   LIG A   1     -11.009   5.832 132.060  0.00  0.00    +0.092 A 
ENDROOT
BRANCH  12  15
ATOM     15  C   LIG A   1     -12.626   8.233 128.226  0.00  0.00    -0.040 C 
ATOM     16  C   LIG A   1     -12.333   7.239 127.130  0.00  0.00    +0.042 C 
ATOM     17  C   LIG A   1     -13.655   9.089 128.097  0.00  0.00    +0.011 C 
ENDBRANCH  12  15
BRANCH   1  18
ATOM     18  O   LIG A   1      -9.822   4.736 133.751  0.00  0.00    -0.506 OA
ATOM     19  H   LIG A   1     -10.458   4.020 133.607  0.00  0.00    +0.292 HD
ENDBRANCH   1  18
TORSDOF 2
ENDMDL
MODEL 2
REMARK VINA RESULT:      -7.3      1.712      5.473
REMARK  Name = NuBBE_649
REMARK  3 active torsions:
REMARK  status: ('A' for Active; 'I' for Inactive)
REMARK    1  A    between atoms: O_1  and  C_2
REMARK    2  A    between atoms: C_13  and  C_15
REMARK    3  A    between atoms: C_15  and  C_16
REMARK                            x       y       z     vdW  Elec       q    Type
REMARK                         _______ _______ _______ _____ _____    ______ ____
ROOT
ATOM      1  C   LIG A   1     -12.296   7.041 131.103  0.00  0.00    +0.131 A 
ATOM      2  C   LIG A   1     -11.932   7.299 129.766  0.00  0.00    +0.059 A 
ATOM      3  C   LIG A   1     -10.586   7.152 129.405  0.00  0.00    +0.149 A 
ATOM      4  O   LIG A   1     -10.136   7.391 128.096  0.00  0.00    -0.422 OA
ATOM      5  C   LIG A   1     -11.013   7.781 127.097  0.00  0.00    +0.337 A 
ATOM      6  C   LIG A   1     -12.420   7.968 127.486  0.00  0.00    +0.093 A 
ATOM      7  C   LIG A   1     -12.860   7.747 128.730  0.00  0.00    +0.022 A 
ATOM      8  O   LIG A   1     -10.653   7.973 125.942  0.00  0.00    -0.245 OA
ATOM      9  C   LIG A   1      -9.649   6.765 130.345  0.00  0.00    +0.041 A 
ATOM     10  C   LIG A   1     -10.035   6.535 131.652  0.00  0.00    +0.132 A 
ATOM     11  O   LIG A   1      -8.997   6.182 132.474  0.00  0.00    -0.484 OA
ATOM     12  C   LIG A   1      -7.917   5.849 131.551  0.00  0.00    +0.203 C 
ATOM     13  C   LIG A   1      -8.179   6.621 130.240  0.00  0.00    +0.091 C 
ATOM     14  C   LIG A   1     -11.345   6.673 132.060  0.00  0.00    +0.092 A 
ENDROOT
BRANCH  12  15
ATOM     15  C   LIG A   1      -6.584   6.059 132.250  0.00  0.00    -0.040 C 
ATOM     16  C   LIG A   1      -5.535   6.754 131.418  0.00  0.00    +0.042 C 
ATOM     17  C   LIG A   1      -6.310   5.709 133.519  0.00  0.00    +0.011 C 
ENDBRANCH  12  15
BRANCH   1  18
ATOM     18  O   LIG A   1     -13.584   7.129 131.562  0.00  0.00    -0.506 OA
ATOM     19  H   LIG A   1     -13.576   7.335 132.508  0.00  0.00    +0.292 HD
ENDBRANCH   1  18
TORSDOF 2
ENDMDL
MODEL 3
REMARK VINA RESULT:      -7.0      2.109      2.221
REMARK  Name = NuBBE_649
REMARK  3 active torsions:
REMARK  status: ('A' for Active; 'I' for Inactive)
REMARK    1  A    between atoms: O_1  and  C_2
REMARK    2  A    between atoms: C_13  and  C_15
REMARK    3  A    between atoms: C_15  and  C_16
REMARK                            x       y       z     vdW  Elec       q    Type
REMARK                         _______ _______ _______ _____ _____    ______ ____
ROOT
ATOM      1  C   LIG A   1     -10.030   5.325 132.096  0.00  0.00    +0.131 A 
ATOM      2  C   LIG A   1      -9.284   4.947 130.960  0.00  0.00    +0.059 A 
ATOM      3  C   LIG A   1      -9.573   5.573 129.740  0.00  0.00    +0.149 A 
ATOM      4  O   LIG A   1      -8.881   5.255 128.559  0.00  0.00    -0.422 OA
ATOM      5  C   LIG A   1      -7.873   4.305 128.553  0.00  0.00    +0.337 A 
ATOM      6  C   LIG A   1      -7.595   3.625 129.828  0.00  0.00    +0.093 A 
ATOM      7  C   LIG A   1      -8.250   3.915 130.958  0.00  0.00    +0.022 A 
ATOM      8  O   LIG A   1      -7.237   4.026 127.543  0.00  0.00    -0.245 OA
ATOM      9  C   LIG A   1     -10.565   6.532 129.664  0.00  0.00    +0.041 A 
ATOM     10  C   LIG A   1     -11.289   6.869 130.792  0.00  0.00    +0.132 A 
ATOM     11  O   LIG A   1     -12.253   7.815 130.560  0.00  0.00    -0.484 OA
ATOM     12  C   LIG A   1     -11.903   8.358 129.252  0.00  0.00    +0.203 C 
ATOM     13  C   LIG A   1     -11.109   7.268 128.499  0.00  0.00    +0.091 C 
ATOM     14  C   LIG A   1     -11.050   6.277 132.014  0.00  0.00    +0.092 A 
ENDROOT
BRANCH  12  15
ATOM     15  C   LIG A   1     -13.155   8.912 128.593  0.00  0.00    -0.040 C 
ATOM     16  C   LIG A   1     -13.887   7.939 127.703  0.00  0.00    +0.042 C 
ATOM     17  C   LIG A   1     -13.645  10.151 128.777  0.00  0.00    +0.011 C 
ENDBRANCH  12  15
BRANCH   1  18
ATOM     18  O   LIG A   1      -9.819   4.798 133.342  0.00  0.00    -0.506 OA
ATOM     19  H   LIG A   1     -10.665   4.522 133.724  0.00  0.00    +0.292 HD
ENDBRANCH   1  18
TORSDOF 2
ENDMDL
MODEL 4
REMARK VINA RESULT:      -7.0      1.803      5.802
REMARK  Name = NuBBE_649
REMARK  3 active torsions:
REMARK  status: ('A' for Active; 'I' for Inactive)
REMARK    1  A    between atoms: O_1  and  C_2
REMARK    2  A    between atoms: C_13  and  C_15
REMARK    3  A    between atoms: C_15  and  C_16
REMARK                            x       y       z     vdW  Elec       q    Type
REMARK                         _______ _______ _______ _____ _____    ______ ____
ROOT
ATOM      1  C   LIG A   1      -9.375   5.522 132.746  0.00  0.00    +0.131 A 
ATOM      2  C   LIG A   1      -9.652   6.282 131.590  0.00  0.00    +0.059 A 
ATOM      3  C   LIG A   1      -8.576   6.871 130.912  0.00  0.00    +0.149 A 
ATOM      4  O   LIG A   1      -8.762   7.645 129.755  0.00  0.00    -0.422 OA
ATOM      5  C   LIG A   1     -10.026   7.857 129.228  0.00  0.00    +0.337 A 
ATOM      6  C   LIG A   1     -11.156   7.265 129.962  0.00  0.00    +0.093 A 
ATOM      7  C   LIG A   1     -10.993   6.529 131.067  0.00  0.00    +0.022 A 
ATOM      8  O   LIG A   1     -10.214   8.507 128.208  0.00  0.00    -0.245 OA
ATOM      9  C   LIG A   1      -7.284   6.706 131.374  0.00  0.00    +0.041 A 
ATOM     10  C   LIG A   1      -7.048   5.970 132.519  0.00  0.00    +0.132 A 
ATOM     11  O   LIG A   1      -5.724   5.913 132.869  0.00  0.00    -0.484 OA
ATOM     12  C   LIG A   1      -5.027   6.382 131.676  0.00  0.00    +0.203 C 
ATOM     13  C   LIG A   1      -6.007   7.283 130.895  0.00  0.00    +0.091 C 
ATOM     14  C   LIG A   1      -8.071   5.376 133.228  0.00  0.00    +0.092 A 
ENDROOT
BRANCH  12  15
ATOM     15  C   LIG A   1      -3.686   6.970 132.083  0.00  0.00    -0.040 C 
ATOM     16  C   LIG A   1      -3.038   6.305 133.273  0.00  0.00    +0.042 C 
ATOM     17  C   LIG A   1      -3.057   7.978 131.453  0.00  0.00    +0.011 C 
ENDBRANCH  12  15
BRANCH   1  18
ATOM     18  O   LIG A   1     -10.343   4.882 133.474  0.00  0.00    -0.506 OA
ATOM     19  H   LIG A   1     -10.846   4.292 132.893  0.00  0.00    +0.292 HD
ENDBRANCH   1  18
TORSDOF 2
ENDMDL
MODEL 5
REMARK VINA RESULT:      -6.6      1.326      1.892
REMARK  Name = NuBBE_649
REMARK  3 active torsions:
REMARK  status: ('A' for Active; 'I' for Inactive)
REMARK    1  A    between atoms: O_1  and  C_2
REMARK    2  A    between atoms: C_13  and  C_15
REMARK    3  A    between atoms: C_15  and  C_16
REMARK                            x       y       z     vdW  Elec       q    Type
REMARK                         _______ _______ _______ _____ _____    ______ ____
ROOT
ATOM      1  C   LIG A   1      -7.779   5.454 133.326  0.00  0.00    +0.131 A 
ATOM      2  C   LIG A   1      -6.864   6.079 132.452  0.00  0.00    +0.059 A 
ATOM      3  C   LIG A   1      -7.373   6.764 131.340  0.00  0.00    +0.149 A 
ATOM      4  O   LIG A   1      -6.534   7.411 130.418  0.00  0.00    -0.422 OA
ATOM      5  C   LIG A   1      -5.157   7.402 130.573  0.00  0.00    +0.337 A 
ATOM      6  C   LIG A   1      -4.624   6.653 131.722  0.00  0.00    +0.093 A 
ATOM      7  C   LIG A   1      -5.412   6.030 132.605  0.00  0.00    +0.022 A 
ATOM      8  O   LIG A   1      -4.404   7.979 129.797  0.00  0.00    -0.245 OA
ATOM      9  C   LIG A   1      -8.736   6.818 131.116  0.00  0.00    +0.041 A 
ATOM     10  C   LIG A   1      -9.605   6.183 131.983  0.00  0.00    +0.132 A 
ATOM     11  O   LIG A   1     -10.921   6.302 131.621  0.00  0.00    -0.484 OA
ATOM     12  C   LIG A   1     -10.915   7.367 130.624  0.00  0.00    +0.203 C 
ATOM     13  C   LIG A   1      -9.507   7.397 129.992  0.00  0.00    +0.091 C 
ATOM     14  C   LIG A   1      -9.156   5.488 133.086  0.00  0.00    +0.092 A 
ENDROOT
BRANCH  12  15
ATOM     15  C   LIG A   1     -12.109   7.190 129.700  0.00  0.00    -0.040 C 
ATOM     16  C   LIG A   1     -12.755   8.475 129.246  0.00  0.00    +0.042 C 
ATOM     17  C   LIG A   1     -12.579   6.010 129.257  0.00  0.00    +0.011 C 
ENDBRANCH  12  15
BRANCH   1  18
ATOM     18  O   LIG A   1      -7.397   4.779 134.454  0.00  0.00    -0.506 OA
ATOM     19  H   LIG A   1      -7.473   3.825 134.301  0.00  0.00    +0.292 HD
ENDBRANCH   1  18
TORSDOF 2
ENDMDL
MODEL 6
REMARK VINA RESULT:      -6.5      2.453      3.196
REMARK  Name = NuBBE_649
REMARK  3 active torsions:
REMARK  status: ('A' for Active; 'I' for Inactive)
REMARK    1  A    between atoms: O_1  and  C_2
REMARK    2  A    between atoms: C_13  and  C_15
REMARK    3  A    between atoms: C_15  and  C_16
REMARK                            x       y       z     vdW  Elec       q    Type
REMARK                         _______ _______ _______ _____ _____    ______ ____
ROOT
ATOM      1  C   LIG A   1      -9.482   2.629 131.492  0.00  0.00    +0.131 A 
ATOM      2  C   LIG A   1      -9.001   3.492 132.498  0.00  0.00    +0.059 A 
ATOM      3  C   LIG A   1      -9.462   4.815 132.513  0.00  0.00    +0.149 A 
ATOM      4  O   LIG A   1      -9.034   5.742 133.478  0.00  0.00    -0.422 OA
ATOM      5  C   LIG A   1      -8.133   5.381 134.467  0.00  0.00    +0.337 A 
ATOM      6  C   LIG A   1      -7.625   4.001 134.429  0.00  0.00    +0.093 A 
ATOM      7  C   LIG A   1      -8.022   3.111 133.513  0.00  0.00    +0.022 A 
ATOM      8  O   LIG A   1      -7.761   6.162 135.335  0.00  0.00    -0.245 OA
ATOM      9  C   LIG A   1     -10.363   5.252 131.559  0.00  0.00    +0.041 A 
ATOM     10  C   LIG A   1     -10.803   4.386 130.576  0.00  0.00    +0.132 A 
ATOM     11  O   LIG A   1     -11.672   4.964 129.688  0.00  0.00    -0.484 OA
ATOM     12  C   LIG A   1     -12.068   6.206 130.344  0.00  0.00    +0.203 C 
ATOM     13  C   LIG A   1     -10.930   6.598 131.311  0.00  0.00    +0.091 C 
ATOM     14  C   LIG A   1     -10.374   3.078 130.512  0.00  0.00    +0.092 A 
ENDROOT
BRANCH  12  15
ATOM     15  C   LIG A   1     -12.485   7.215 129.287  0.00  0.00    -0.040 C 
ATOM     16  C   LIG A   1     -12.356   8.659 129.703  0.00  0.00    +0.042 C 
ATOM     17  C   LIG A   1     -12.909   6.909 128.048  0.00  0.00    +0.011 C 
ENDBRANCH  12  15
BRANCH   1  18
ATOM     18  O   LIG A   1      -9.119   1.312 131.395  0.00  0.00    -0.506 OA
ATOM     19  H   LIG A   1      -9.530   0.921 130.609  0.00  0.00    +0.292 HD
ENDBRANCH   1  18
TORSDOF 2
ENDMDL
MODEL 7
REMARK VINA RESULT:      -6.5      7.533      9.876
REMARK  Name = NuBBE_649
REMARK  3 active torsions:
REMARK  status: ('A' for Active; 'I' for Inactive)
REMARK    1  A    between atoms: O_1  and  C_2
REMARK    2  A    between atoms: C_13  and  C_15
REMARK    3  A    between atoms: C_15  and  C_16
REMARK                            x       y       z     vdW  Elec       q    Type
REMARK                         _______ _______ _______ _____ _____    ______ ____
ROOT
ATOM      1  C   LIG A   1      -7.075   3.512 122.541  0.00  0.00    +0.131 A 
ATOM      2  C   LIG A   1      -7.941   2.682 123.282  0.00  0.00    +0.059 A 
ATOM      3  C   LIG A   1      -7.573   2.341 124.590  0.00  0.00    +0.149 A 
ATOM      4  O   LIG A   1      -8.375   1.517 125.397  0.00  0.00    -0.422 OA
ATOM      5  C   LIG A   1      -9.576   1.006 124.931  0.00  0.00    +0.337 A 
ATOM      6  C   LIG A   1      -9.942   1.338 123.545  0.00  0.00    +0.093 A 
ATOM      7  C   LIG A   1      -9.186   2.118 122.765  0.00  0.00    +0.022 A 
ATOM      8  O   LIG A   1     -10.306   0.305 125.621  0.00  0.00    -0.245 OA
ATOM      9  C   LIG A   1      -6.390   2.811 125.128  0.00  0.00    +0.041 A 
ATOM     10  C   LIG A   1      -5.555   3.610 124.371  0.00  0.00    +0.132 A 
ATOM     11  O   LIG A   1      -4.410   3.980 125.026  0.00  0.00    -0.484 OA
ATOM     12  C   LIG A   1      -4.686   3.656 126.422  0.00  0.00    +0.203 C 
ATOM     13  C   LIG A   1      -5.746   2.534 126.433  0.00  0.00    +0.091 C 
ATOM     14  C   LIG A   1      -5.866   3.968 123.076  0.00  0.00    +0.092 A 
ENDROOT
BRANCH  12  15
ATOM     15  C   LIG A   1      -3.371   3.405 127.143  0.00  0.00    -0.040 C 
ATOM     16  C   LIG A   1      -3.491   3.228 128.636  0.00  0.00    +0.042 C 
ATOM     17  C   LIG A   1      -2.169   3.300 126.549  0.00  0.00    +0.011 C 
ENDBRANCH  12  15
BRANCH   1  18
ATOM     18  O   LIG A   1      -7.344   3.928 121.264  0.00  0.00    -0.506 OA
ATOM     19  H   LIG A   1      -7.688   4.834 121.285  0.00  0.00    +0.292 HD
ENDBRANCH   1  18
TORSDOF 2
ENDMDL
MODEL 8
REMARK VINA RESULT:      -6.3      8.994     10.056
REMARK  Name = NuBBE_649
REMARK  3 active torsions:
REMARK  status: ('A' for Active; 'I' for Inactive)
REMARK    1  A    between atoms: O_1  and  C_2
REMARK    2  A    between atoms: C_13  and  C_15
REMARK    3  A    between atoms: C_15  and  C_16
REMARK                            x       y       z     vdW  Elec       q    Type
REMARK                         _______ _______ _______ _____ _____    ______ ____
ROOT
ATOM      1  C   LIG A   1      -7.949   2.705 123.156  0.00  0.00    +0.131 A 
ATOM      2  C   LIG A   1      -6.909   2.686 124.108  0.00  0.00    +0.059 A 
ATOM      3  C   LIG A   1      -6.585   1.463 124.710  0.00  0.00    +0.149 A 
ATOM      4  O   LIG A   1      -5.564   1.354 125.669  0.00  0.00    -0.422 OA
ATOM      5  C   LIG A   1      -4.827   2.460 126.060  0.00  0.00    +0.337 A 
ATOM      6  C   LIG A   1      -5.192   3.748 125.451  0.00  0.00    +0.093 A 
ATOM      7  C   LIG A   1      -6.164   3.866 124.540  0.00  0.00    +0.022 A 
ATOM      8  O   LIG A   1      -3.916   2.389 126.877  0.00  0.00    -0.245 OA
ATOM      9  C   LIG A   1      -7.275   0.313 124.373  0.00  0.00    +0.041 A 
ATOM     10  C   LIG A   1      -8.300   0.369 123.448  0.00  0.00    +0.132 A 
ATOM     11  O   LIG A   1      -8.907  -0.841 123.233  0.00  0.00    -0.484 OA
ATOM     12  C   LIG A   1      -7.987  -1.805 123.828  0.00  0.00    +0.203 C 
ATOM     13  C   LIG A   1      -7.182  -1.062 124.916  0.00  0.00    +0.091 C 
ATOM     14  C   LIG A   1      -8.664   1.547 122.833  0.00  0.00    +0.092 A 
ENDROOT
BRANCH  12  15
ATOM     15  C   LIG A   1      -8.764  -3.046 124.237  0.00  0.00    -0.040 C 
ATOM     16  C   LIG A   1      -8.391  -3.612 125.584  0.00  0.00    +0.042 C 
ATOM     17  C   LIG A   1      -9.743  -3.621 123.516  0.00  0.00    +0.011 C 
ENDBRANCH  12  15
BRANCH   1  18
ATOM     18  O   LIG A   1      -8.335   3.837 122.487  0.00  0.00    -0.506 OA
ATOM     19  H   LIG A   1      -7.701   4.548 122.664  0.00  0.00    +0.292 HD
ENDBRANCH   1  18
TORSDOF 2
ENDMDL
MODEL 9
REMARK VINA RESULT:      -6.2      8.851      9.751
REMARK  Name = NuBBE_649
REMARK  3 active torsions:
REMARK  status: ('A' for Active; 'I' for Inactive)
REMARK    1  A    between atoms: O_1  and  C_2
REMARK    2  A    between atoms: C_13  and  C_15
REMARK    3  A    between atoms: C_15  and  C_16
REMARK                            x       y       z     vdW  Elec       q    Type
REMARK                         _______ _______ _______ _____ _____    ______ ____
ROOT
ATOM      1  C   LIG A   1      -6.394   2.737 126.078  0.00  0.00    +0.131 A 
ATOM      2  C   LIG A   1      -6.274   2.971 124.693  0.00  0.00    +0.059 A 
ATOM      3  C   LIG A   1      -6.815   2.026 123.812  0.00  0.00    +0.149 A 
ATOM      4  O   LIG A   1      -6.739   2.179 122.418  0.00  0.00    -0.422 OA
ATOM      5  C   LIG A   1      -6.122   3.283 121.851  0.00  0.00    +0.337 A 
ATOM      6  C   LIG A   1      -5.525   4.257 122.778  0.00  0.00    +0.093 A 
ATOM      7  C   LIG A   1      -5.588   4.120 124.107  0.00  0.00    +0.022 A 
ATOM      8  O   LIG A   1      -6.062   3.454 120.639  0.00  0.00    -0.245 OA
ATOM      9  C   LIG A   1      -7.447   0.897 124.300  0.00  0.00    +0.041 A 
ATOM     10  C   LIG A   1      -7.534   0.689 125.663  0.00  0.00    +0.132 A 
ATOM     11  O   LIG A   1      -8.164  -0.482 125.997  0.00  0.00    -0.484 OA
ATOM     12  C   LIG A   1      -8.814  -0.896 124.758  0.00  0.00    +0.203 C 
ATOM     13  C   LIG A   1      -8.019  -0.271 123.591  0.00  0.00    +0.091 C 
ATOM     14  C   LIG A   1      -7.011   1.583 126.572  0.00  0.00    +0.092 A 
ENDROOT
BRANCH  12  15
ATOM     15  C   LIG A   1      -8.995  -2.405 124.772  0.00  0.00    -0.040 C 
ATOM     16  C   LIG A   1      -9.249  -3.025 123.421  0.00  0.00    +0.042 C 
ATOM     17  C   LIG A   1      -8.911  -3.186 125.864  0.00  0.00    +0.011 C 
ENDBRANCH  12  15
BRANCH   1  18
ATOM     18  O   LIG A   1      -5.924   3.603 127.030  0.00  0.00    -0.506 OA
ATOM     19  H   LIG A   1      -6.375   3.433 127.871  0.00  0.00    +0.292 HD
ENDBRANCH   1  18
TORSDOF 2
ENDMDL
