MODEL 1
REMARK VINA RESULT:      -6.9      0.000      0.000
REMARK  Name = NuBBE_192
REMARK  13 active torsions:
REMARK  status: ('A' for Active; 'I' for Inactive)
REMARK    1  A    between atoms: O_1  and  C_2
REMARK    2  A    between atoms: C_5  and  C_6
REMARK    3  A    between atoms: C_6  and  O_7
REMARK    4  A    between atoms: C_12  and  O_14
REMARK    5  A    between atoms: O_14  and  C_15
REMARK    6  A    between atoms: C_18  and  C_20
REMARK    7  A    between atoms: C_20  and  O_21
REMARK    8  A    between atoms: C_22  and  O_24
REMARK    9  A    between atoms: C_25  and  O_27
REMARK   10  A    between atoms: C_28  and  O_30
REMARK   11  A    between atoms: C_33  and  C_34
REMARK   12  A    between atoms: C_34  and  O_35
REMARK   13  A    between atoms: O_35  and  C_36
REMARK                            x       y       z     vdW  Elec       q    Type
REMARK                         _______ _______ _______ _____ _____    ______ ____
ROOT
ATOM      1  C   LIG A   1      -8.908   6.026 132.654  0.00  0.00    +0.146 C 
ATOM      2  C   LIG A   1      -8.362   4.735 133.158  0.00  0.00    +0.006 C 
ATOM      3  C   LIG A   1      -8.027   3.900 132.165  0.00  0.00    -0.036 C 
ATOM      4  C   LIG A   1      -9.142   5.767 131.138  0.00  0.00    +0.075 C 
ATOM      5  C   LIG A   1      -8.257   4.533 130.805  0.00  0.00    +0.096 C 
ATOM      6  C   LIG A   1      -8.905   3.650 129.713  0.00  0.00    +0.317 C 
ATOM      7  O   LIG A   1     -10.259   3.292 130.050  0.00  0.00    -0.470 OA
ATOM      8  C   LIG A   1     -11.048   4.379 130.334  0.00  0.00    +0.201 C 
ATOM      9  C   LIG A   1     -10.588   5.557 130.774  0.00  0.00    +0.077 C 
ENDROOT
BRANCH   1  10
ATOM     10  O   LIG A   1     -10.090   6.323 133.377  0.00  0.00    -0.387 OA
ATOM     11  H   LIG A   1     -10.778   5.704 133.082  0.00  0.00    +0.210 HD
ENDBRANCH   1  10
BRANCH   9  12
ATOM     12  C   LIG A   1     -11.546   6.688 130.890  0.00  0.00    +0.338 C 
ATOM     13  O   LIG A   1     -12.524   6.697 131.610  0.00  0.00    -0.245 OA
BRANCH  12  14
ATOM     14  O   LIG A   1     -11.190   7.656 130.001  0.00  0.00    -0.465 OA
ATOM     15  C   LIG A   1     -12.248   8.484 129.521  0.00  0.00    +0.280 C 
ENDBRANCH  12  14
ENDBRANCH   9  12
BRANCH   3  16
ATOM     16  C   LIG A   1      -7.445   2.541 132.337  0.00  0.00    +0.187 C 
BRANCH  16  17
ATOM     17  O   LIG A   1      -8.219   1.808 133.271  0.00  0.00    -0.391 OA
ATOM     18  H   LIG A   1      -7.614   1.200 133.731  0.00  0.00    +0.210 HD
ENDBRANCH  16  17
ENDBRANCH   3  16
BRANCH   6  19
ATOM     19  O   LIG A   1      -8.824   4.338 128.447  0.00  0.00    -0.309 OA
BRANCH  19  20
ATOM     20  C   LIG A   1      -7.834   3.773 127.567  0.00  0.00    +0.286 C 
ATOM     21  O   LIG A   1      -6.572   3.765 128.241  0.00  0.00    -0.340 OA
ATOM     22  C   LIG A   1      -5.492   3.300 127.434  0.00  0.00    +0.178 C 
ATOM     23  C   LIG A   1      -5.259   4.278 126.276  0.00  0.00    +0.177 C 
ATOM     24  C   LIG A   1      -6.530   4.334 125.433  0.00  0.00    +0.179 C 
ATOM     25  C   LIG A   1      -7.780   4.626 126.269  0.00  0.00    +0.201 C 
BRANCH  23  26
ATOM     26  O   LIG A   1      -4.188   3.881 125.411  0.00  0.00    -0.387 OA
ATOM     27  H   LIG A   1      -4.602   3.445 124.633  0.00  0.00    +0.210 HD
ENDBRANCH  23  26
BRANCH  24  28
ATOM     28  O   LIG A   1      -6.391   5.342 124.414  0.00  0.00    -0.386 OA
ATOM     29  H   LIG A   1      -5.628   5.049 123.873  0.00  0.00    +0.210 HD
ENDBRANCH  24  28
BRANCH  25  30
ATOM     30  O   LIG A   1      -8.923   4.384 125.426  0.00  0.00    -0.384 OA
ATOM     31  H   LIG A   1      -9.536   5.124 125.615  0.00  0.00    +0.210 HD
ENDBRANCH  25  30
BRANCH  22  32
ATOM     32  C   LIG A   1      -4.248   3.180 128.322  0.00  0.00    +0.190 C 
BRANCH  32  33
ATOM     33  O   LIG A   1      -3.260   2.348 127.716  0.00  0.00    -0.392 OA
ATOM     34  H   LIG A   1      -3.734   1.699 127.162  0.00  0.00    +0.209 HD
ENDBRANCH  32  33
ENDBRANCH  22  32
ENDBRANCH  19  20
ENDBRANCH   6  19
TORSDOF 12
ENDMDL
MODEL 2
REMARK VINA RESULT:      -6.8      3.201      6.676
REMARK  Name = NuBBE_192
REMARK  13 active torsions:
REMARK  status: ('A' for Active; 'I' for Inactive)
REMARK    1  A    between atoms: O_1  and  C_2
REMARK    2  A    between atoms: C_5  and  C_6
REMARK    3  A    between atoms: C_6  and  O_7
REMARK    4  A    between atoms: C_12  and  O_14
REMARK    5  A    between atoms: O_14  and  C_15
REMARK    6  A    between atoms: C_18  and  C_20
REMARK    7  A    between atoms: C_20  and  O_21
REMARK    8  A    between atoms: C_22  and  O_24
REMARK    9  A    between atoms: C_25  and  O_27
REMARK   10  A    between atoms: C_28  and  O_30
REMARK   11  A    between atoms: C_33  and  C_34
REMARK   12  A    between atoms: C_34  and  O_35
REMARK   13  A    between atoms: O_35  and  C_36
REMARK                            x       y       z     vdW  Elec       q    Type
REMARK                         _______ _______ _______ _____ _____    ______ ____
ROOT
ATOM      1  C   LIG A   1      -4.337   5.893 133.258  0.00  0.00    +0.146 C 
ATOM      2  C   LIG A   1      -3.715   6.081 131.917  0.00  0.00    +0.006 C 
ATOM      3  C   LIG A   1      -4.599   6.493 130.999  0.00  0.00    -0.036 C 
ATOM      4  C   LIG A   1      -5.864   5.979 132.978  0.00  0.00    +0.075 C 
ATOM      5  C   LIG A   1      -5.976   6.696 131.604  0.00  0.00    +0.096 C 
ATOM      6  C   LIG A   1      -7.189   6.182 130.794  0.00  0.00    +0.317 C 
ATOM      7  O   LIG A   1      -7.182   4.747 130.675  0.00  0.00    -0.470 OA
ATOM      8  C   LIG A   1      -7.094   4.107 131.887  0.00  0.00    +0.201 C 
ATOM      9  C   LIG A   1      -6.560   4.643 132.991  0.00  0.00    +0.077 C 
ENDROOT
BRANCH   1  10
ATOM     10  O   LIG A   1      -3.914   4.641 133.773  0.00  0.00    -0.387 OA
ATOM     11  H   LIG A   1      -4.671   4.035 133.727  0.00  0.00    +0.210 HD
ENDBRANCH   1  10
BRANCH   9  12
ATOM     12  C   LIG A   1      -6.676   3.888 134.267  0.00  0.00    +0.338 C 
ATOM     13  O   LIG A   1      -6.558   4.374 135.373  0.00  0.00    -0.245 OA
BRANCH  12  14
ATOM     14  O   LIG A   1      -6.848   2.568 133.980  0.00  0.00    -0.465 OA
ATOM     15  C   LIG A   1      -5.882   1.676 134.535  0.00  0.00    +0.280 C 
ENDBRANCH  12  14
ENDBRANCH   9  12
BRANCH   3  16
ATOM     16  C   LIG A   1      -4.292   6.782 129.571  0.00  0.00    +0.187 C 
BRANCH  16  17
ATOM     17  O   LIG A   1      -4.377   8.177 129.341  0.00  0.00    -0.391 OA
ATOM     18  H   LIG A   1      -3.581   8.582 129.729  0.00  0.00    +0.210 HD
ENDBRANCH  16  17
ENDBRANCH   3  16
BRANCH   6  19
ATOM     19  O   LIG A   1      -8.401   6.671 131.407  0.00  0.00    -0.309 OA
BRANCH  19  20
ATOM     20  C   LIG A   1      -9.587   6.279 130.691  0.00  0.00    +0.286 C 
ATOM     21  O   LIG A   1      -9.626   6.987 129.448  0.00  0.00    -0.340 OA
ATOM     22  C   LIG A   1     -10.804   6.740 128.683  0.00  0.00    +0.178 C 
ATOM     23  C   LIG A   1     -12.026   7.288 129.432  0.00  0.00    +0.177 C 
ATOM     24  C   LIG A   1     -12.133   6.562 130.770  0.00  0.00    +0.179 C 
ATOM     25  C   LIG A   1     -10.827   6.603 131.569  0.00  0.00    +0.201 C 
BRANCH  23  26
ATOM     26  O   LIG A   1     -13.258   7.077 128.731  0.00  0.00    -0.387 OA
ATOM     27  H   LIG A   1     -13.835   6.551 129.328  0.00  0.00    +0.210 HD
ENDBRANCH  23  26
BRANCH  24  28
ATOM     28  O   LIG A   1     -13.191   7.145 131.554  0.00  0.00    -0.386 OA
ATOM     29  H   LIG A   1     -12.879   7.087 132.481  0.00  0.00    +0.210 HD
ENDBRANCH  24  28
BRANCH  25  30
ATOM     30  O   LIG A   1     -10.964   5.671 132.660  0.00  0.00    -0.384 OA
ATOM     31  H   LIG A   1     -11.849   5.854 133.037  0.00  0.00    +0.210 HD
ENDBRANCH  25  30
BRANCH  22  32
ATOM     32  C   LIG A   1     -10.639   7.415 127.317  0.00  0.00    +0.190 C 
BRANCH  32  33
ATOM     33  O   LIG A   1     -11.379   6.730 126.309  0.00  0.00    -0.392 OA
ATOM     34  H   LIG A   1     -10.976   6.961 125.451  0.00  0.00    +0.209 HD
ENDBRANCH  32  33
ENDBRANCH  22  32
ENDBRANCH  19  20
ENDBRANCH   6  19
TORSDOF 12
ENDMDL
MODEL 3
REMARK VINA RESULT:      -6.8      2.597      6.383
REMARK  Name = NuBBE_192
REMARK  13 active torsions:
REMARK  status: ('A' for Active; 'I' for Inactive)
REMARK    1  A    between atoms: O_1  and  C_2
REMARK    2  A    between atoms: C_5  and  C_6
REMARK    3  A    between atoms: C_6  and  O_7
REMARK    4  A    between atoms: C_12  and  O_14
REMARK    5  A    between atoms: O_14  and  C_15
REMARK    6  A    between atoms: C_18  and  C_20
REMARK    7  A    between atoms: C_20  and  O_21
REMARK    8  A    between atoms: C_22  and  O_24
REMARK    9  A    between atoms: C_25  and  O_27
REMARK   10  A    between atoms: C_28  and  O_30
REMARK   11  A    between atoms: C_33  and  C_34
REMARK   12  A    between atoms: C_34  and  O_35
REMARK   13  A    between atoms: O_35  and  C_36
REMARK                            x       y       z     vdW  Elec       q    Type
REMARK                         _______ _______ _______ _____ _____    ______ ____
ROOT
ATOM      1  C   LIG A   1      -5.961   3.011 130.525  0.00  0.00    +0.146 C 
ATOM      2  C   LIG A   1      -6.550   2.403 131.750  0.00  0.00    +0.006 C 
ATOM      3  C   LIG A   1      -7.514   3.164 132.284  0.00  0.00    -0.036 C 
ATOM      4  C   LIG A   1      -6.523   4.461 130.519  0.00  0.00    +0.075 C 
ATOM      5  C   LIG A   1      -7.763   4.410 131.454  0.00  0.00    +0.096 C 
ATOM      6  C   LIG A   1      -7.954   5.743 132.216  0.00  0.00    +0.317 C 
ATOM      7  O   LIG A   1      -6.752   6.141 132.904  0.00  0.00    -0.470 OA
ATOM      8  C   LIG A   1      -5.655   6.198 132.080  0.00  0.00    +0.201 C 
ATOM      9  C   LIG A   1      -5.521   5.503 130.944  0.00  0.00    +0.077 C 
ENDROOT
BRANCH   1  10
ATOM     10  O   LIG A   1      -4.549   2.941 130.626  0.00  0.00    -0.387 OA
ATOM     11  H   LIG A   1      -4.218   3.845 130.753  0.00  0.00    +0.210 HD
ENDBRANCH   1  10
BRANCH   9  12
ATOM     12  C   LIG A   1      -4.345   5.786 130.080  0.00  0.00    +0.338 C 
ATOM     13  O   LIG A   1      -3.187   5.703 130.436  0.00  0.00    -0.245 OA
BRANCH  12  14
ATOM     14  O   LIG A   1      -4.787   6.230 128.871  0.00  0.00    -0.465 OA
ATOM     15  C   LIG A   1      -3.878   6.086 127.781  0.00  0.00    +0.280 C 
ENDBRANCH  12  14
ENDBRANCH   9  12
BRANCH   3  16
ATOM     16  C   LIG A   1      -8.304   2.832 133.502  0.00  0.00    +0.187 C 
BRANCH  16  17
ATOM     17  O   LIG A   1      -9.686   2.960 133.220  0.00  0.00    -0.391 OA
ATOM     18  H   LIG A   1      -9.783   2.968 132.251  0.00  0.00    +0.210 HD
ENDBRANCH  16  17
ENDBRANCH   3  16
BRANCH   6  19
ATOM     19  O   LIG A   1      -8.408   6.750 131.288  0.00  0.00    -0.309 OA
BRANCH  19  20
ATOM     20  C   LIG A   1      -9.616   6.372 130.602  0.00  0.00    +0.286 C 
ATOM     21  O   LIG A   1      -9.693   7.103 129.374  0.00  0.00    -0.340 OA
ATOM     22  C   LIG A   1     -10.894   6.871 128.641  0.00  0.00    +0.178 C 
ATOM     23  C   LIG A   1     -12.092   7.406 129.437  0.00  0.00    +0.177 C 
ATOM     24  C   LIG A   1     -12.159   6.656 130.764  0.00  0.00    +0.179 C 
ATOM     25  C   LIG A   1     -10.828   6.682 131.524  0.00  0.00    +0.201 C 
BRANCH  23  26
ATOM     26  O   LIG A   1     -13.344   7.210 128.770  0.00  0.00    -0.387 OA
ATOM     27  H   LIG A   1     -13.147   6.718 127.942  0.00  0.00    +0.210 HD
ENDBRANCH  23  26
BRANCH  24  28
ATOM     28  O   LIG A   1     -13.191   7.226 131.590  0.00  0.00    -0.386 OA
ATOM     29  H   LIG A   1     -14.029   7.003 131.136  0.00  0.00    +0.210 HD
ENDBRANCH  24  28
BRANCH  25  30
ATOM     30  O   LIG A   1     -10.934   5.730 132.601  0.00  0.00    -0.384 OA
ATOM     31  H   LIG A   1     -10.862   4.854 132.169  0.00  0.00    +0.210 HD
ENDBRANCH  25  30
BRANCH  22  32
ATOM     32  C   LIG A   1     -10.769   7.571 127.283  0.00  0.00    +0.190 C 
BRANCH  32  33
ATOM     33  O   LIG A   1     -10.650   6.624 126.223  0.00  0.00    -0.392 OA
ATOM     34  H   LIG A   1     -10.621   7.130 125.389  0.00  0.00    +0.209 HD
ENDBRANCH  32  33
ENDBRANCH  22  32
ENDBRANCH  19  20
ENDBRANCH   6  19
TORSDOF 12
ENDMDL
MODEL 4
REMARK VINA RESULT:      -6.6      2.442      3.265
REMARK  Name = NuBBE_192
REMARK  13 active torsions:
REMARK  status: ('A' for Active; 'I' for Inactive)
REMARK    1  A    between atoms: O_1  and  C_2
REMARK    2  A    between atoms: C_5  and  C_6
REMARK    3  A    between atoms: C_6  and  O_7
REMARK    4  A    between atoms: C_12  and  O_14
REMARK    5  A    between atoms: O_14  and  C_15
REMARK    6  A    between atoms: C_18  and  C_20
REMARK    7  A    between atoms: C_20  and  O_21
REMARK    8  A    between atoms: C_22  and  O_24
REMARK    9  A    between atoms: C_25  and  O_27
REMARK   10  A    between atoms: C_28  and  O_30
REMARK   11  A    between atoms: C_33  and  C_34
REMARK   12  A    between atoms: C_34  and  O_35
REMARK   13  A    between atoms: O_35  and  C_36
REMARK                            x       y       z     vdW  Elec       q    Type
REMARK                         _______ _______ _______ _____ _____    ______ ____
ROOT
ATOM      1  C   LIG A   1      -8.728   5.997 133.087  0.00  0.00    +0.146 C 
ATOM      2  C   LIG A   1      -8.507   4.659 133.704  0.00  0.00    +0.006 C 
ATOM      3  C   LIG A   1      -7.749   3.864 132.936  0.00  0.00    -0.036 C 
ATOM      4  C   LIG A   1      -8.213   5.829 131.630  0.00  0.00    +0.075 C 
ATOM      5  C   LIG A   1      -7.292   4.577 131.677  0.00  0.00    +0.096 C 
ATOM      6  C   LIG A   1      -7.351   3.781 130.351  0.00  0.00    +0.317 C 
ATOM      7  O   LIG A   1      -8.706   3.465 129.978  0.00  0.00    -0.470 OA
ATOM      8  C   LIG A   1      -9.520   4.569 129.925  0.00  0.00    +0.201 C 
ATOM      9  C   LIG A   1      -9.312   5.701 130.608  0.00  0.00    +0.077 C 
ENDROOT
BRANCH   1  10
ATOM     10  O   LIG A   1     -10.108   6.306 133.179  0.00  0.00    -0.387 OA
ATOM     11  H   LIG A   1     -10.187   7.268 133.288  0.00  0.00    +0.210 HD
ENDBRANCH   1  10
BRANCH   9  12
ATOM     12  C   LIG A   1     -10.194   6.864 130.329  0.00  0.00    +0.338 C 
ATOM     13  O   LIG A   1     -11.321   6.999 130.761  0.00  0.00    -0.245 OA
BRANCH  12  14
ATOM     14  O   LIG A   1      -9.561   7.693 129.454  0.00  0.00    -0.465 OA
ATOM     15  C   LIG A   1     -10.393   8.338 128.490  0.00  0.00    +0.280 C 
ENDBRANCH  12  14
ENDBRANCH   9  12
BRANCH   3  16
ATOM     16  C   LIG A   1      -7.337   2.473 133.273  0.00  0.00    +0.187 C 
BRANCH  16  17
ATOM     17  O   LIG A   1      -8.427   1.593 133.065  0.00  0.00    -0.391 OA
ATOM     18  H   LIG A   1      -8.165   0.722 133.416  0.00  0.00    +0.210 HD
ENDBRANCH  16  17
ENDBRANCH   3  16
BRANCH   6  19
ATOM     19  O   LIG A   1      -6.666   4.531 129.327  0.00  0.00    -0.309 OA
BRANCH  19  20
ATOM     20  C   LIG A   1      -5.306   4.846 129.680  0.00  0.00    +0.286 C 
ATOM     21  O   LIG A   1      -5.168   6.269 129.747  0.00  0.00    -0.340 OA
ATOM     22  C   LIG A   1      -3.837   6.705 130.011  0.00  0.00    +0.178 C 
ATOM     23  C   LIG A   1      -2.929   6.325 128.834  0.00  0.00    +0.177 C 
ATOM     24  C   LIG A   1      -2.941   4.806 128.691  0.00  0.00    +0.179 C 
ATOM     25  C   LIG A   1      -4.360   4.233 128.610  0.00  0.00    +0.201 C 
BRANCH  23  26
ATOM     26  O   LIG A   1      -1.566   6.727 129.021  0.00  0.00    -0.387 OA
ATOM     27  H   LIG A   1      -1.023   6.162 128.428  0.00  0.00    +0.210 HD
ENDBRANCH  23  26
BRANCH  24  28
ATOM     28  O   LIG A   1      -2.205   4.425 127.514  0.00  0.00    -0.386 OA
ATOM     29  H   LIG A   1      -2.214   3.445 127.517  0.00  0.00    +0.210 HD
ENDBRANCH  24  28
BRANCH  25  30
ATOM     30  O   LIG A   1      -4.251   2.803 128.754  0.00  0.00    -0.384 OA
ATOM     31  H   LIG A   1      -5.004   2.550 129.327  0.00  0.00    +0.210 HD
ENDBRANCH  25  30
BRANCH  22  32
ATOM     32  C   LIG A   1      -3.864   8.223 130.227  0.00  0.00    +0.190 C 
BRANCH  32  33
ATOM     33  O   LIG A   1      -3.871   8.920 128.983  0.00  0.00    -0.392 OA
ATOM     34  H   LIG A   1      -4.733   9.374 128.914  0.00  0.00    +0.209 HD
ENDBRANCH  32  33
ENDBRANCH  22  32
ENDBRANCH  19  20
ENDBRANCH   6  19
TORSDOF 12
ENDMDL
MODEL 5
REMARK VINA RESULT:      -6.5      3.433      7.497
REMARK  Name = NuBBE_192
REMARK  13 active torsions:
REMARK  status: ('A' for Active; 'I' for Inactive)
REMARK    1  A    between atoms: O_1  and  C_2
REMARK    2  A    between atoms: C_5  and  C_6
REMARK    3  A    between atoms: C_6  and  O_7
REMARK    4  A    between atoms: C_12  and  O_14
REMARK    5  A    between atoms: O_14  and  C_15
REMARK    6  A    between atoms: C_18  and  C_20
REMARK    7  A    between atoms: C_20  and  O_21
REMARK    8  A    between atoms: C_22  and  O_24
REMARK    9  A    between atoms: C_25  and  O_27
REMARK   10  A    between atoms: C_28  and  O_30
REMARK   11  A    between atoms: C_33  and  C_34
REMARK   12  A    between atoms: C_34  and  O_35
REMARK   13  A    between atoms: O_35  and  C_36
REMARK                            x       y       z     vdW  Elec       q    Type
REMARK                         _______ _______ _______ _____ _____    ______ ____
ROOT
ATOM      1  C   LIG A   1      -2.364   6.362 128.613  0.00  0.00    +0.146 C 
ATOM      2  C   LIG A   1      -2.493   4.990 128.046  0.00  0.00    +0.006 C 
ATOM      3  C   LIG A   1      -3.748   4.525 128.120  0.00  0.00    -0.036 C 
ATOM      4  C   LIG A   1      -3.717   6.595 129.342  0.00  0.00    +0.075 C 
ATOM      5  C   LIG A   1      -4.689   5.554 128.719  0.00  0.00    +0.096 C 
ATOM      6  C   LIG A   1      -5.721   5.051 129.757  0.00  0.00    +0.317 C 
ATOM      7  O   LIG A   1      -5.083   4.571 130.955  0.00  0.00    -0.470 OA
ATOM      8  C   LIG A   1      -4.232   5.492 131.516  0.00  0.00    +0.201 C 
ATOM      9  C   LIG A   1      -3.628   6.478 130.842  0.00  0.00    +0.077 C 
ENDROOT
BRANCH   1  10
ATOM     10  O   LIG A   1      -1.236   6.384 129.471  0.00  0.00    -0.387 OA
ATOM     11  H   LIG A   1      -0.611   7.038 129.117  0.00  0.00    +0.210 HD
ENDBRANCH   1  10
BRANCH   9  12
ATOM     12  C   LIG A   1      -2.858   7.490 131.612  0.00  0.00    +0.338 C 
ATOM     13  O   LIG A   1      -3.042   8.689 131.559  0.00  0.00    -0.245 OA
BRANCH  12  14
ATOM     14  O   LIG A   1      -1.875   6.855 132.308  0.00  0.00    -0.465 OA
ATOM     15  C   LIG A   1      -0.784   7.670 132.734  0.00  0.00    +0.280 C 
ENDBRANCH  12  14
ENDBRANCH   9  12
BRANCH   3  16
ATOM     16  C   LIG A   1      -4.207   3.196 127.631  0.00  0.00    +0.187 C 
BRANCH  16  17
ATOM     17  O   LIG A   1      -3.589   2.172 128.389  0.00  0.00    -0.391 OA
ATOM     18  H   LIG A   1      -2.881   1.793 127.838  0.00  0.00    +0.210 HD
ENDBRANCH  16  17
ENDBRANCH   3  16
BRANCH   6  19
ATOM     19  O   LIG A   1      -6.663   6.109 130.027  0.00  0.00    -0.309 OA
BRANCH  19  20
ATOM     20  C   LIG A   1      -7.949   5.617 130.451  0.00  0.00    +0.286 C 
ATOM     21  O   LIG A   1      -8.962   6.240 129.655  0.00  0.00    -0.340 OA
ATOM     22  C   LIG A   1     -10.290   5.890 130.040  0.00  0.00    +0.178 C 
ATOM     23  C   LIG A   1     -10.575   6.429 131.447  0.00  0.00    +0.177 C 
ATOM     24  C   LIG A   1      -9.586   5.788 132.416  0.00  0.00    +0.179 C 
ATOM     25  C   LIG A   1      -8.131   5.941 131.960  0.00  0.00    +0.201 C 
BRANCH  23  26
ATOM     26  O   LIG A   1     -11.894   6.117 131.913  0.00  0.00    -0.387 OA
ATOM     27  H   LIG A   1     -12.162   6.851 132.511  0.00  0.00    +0.210 HD
ENDBRANCH  23  26
BRANCH  24  28
ATOM     28  O   LIG A   1      -9.740   6.372 133.723  0.00  0.00    -0.386 OA
ATOM     29  H   LIG A   1      -8.826   6.501 134.050  0.00  0.00    +0.210 HD
ENDBRANCH  24  28
BRANCH  25  30
ATOM     30  O   LIG A   1      -7.331   5.076 132.790  0.00  0.00    -0.384 OA
ATOM     31  H   LIG A   1      -7.464   5.409 133.701  0.00  0.00    +0.210 HD
ENDBRANCH  25  30
BRANCH  22  32
ATOM     32  C   LIG A   1     -11.258   6.482 129.009  0.00  0.00    +0.190 C 
BRANCH  32  33
ATOM     33  O   LIG A   1     -12.527   5.832 129.060  0.00  0.00    -0.392 OA
ATOM     34  H   LIG A   1     -12.545   5.305 129.881  0.00  0.00    +0.209 HD
ENDBRANCH  32  33
ENDBRANCH  22  32
ENDBRANCH  19  20
ENDBRANCH   6  19
TORSDOF 12
ENDMDL
MODEL 6
REMARK VINA RESULT:      -6.5      5.322      8.697
REMARK  Name = NuBBE_192
REMARK  13 active torsions:
REMARK  status: ('A' for Active; 'I' for Inactive)
REMARK    1  A    between atoms: O_1  and  C_2
REMARK    2  A    between atoms: C_5  and  C_6
REMARK    3  A    between atoms: C_6  and  O_7
REMARK    4  A    between atoms: C_12  and  O_14
REMARK    5  A    between atoms: O_14  and  C_15
REMARK    6  A    between atoms: C_18  and  C_20
REMARK    7  A    between atoms: C_20  and  O_21
REMARK    8  A    between atoms: C_22  and  O_24
REMARK    9  A    between atoms: C_25  and  O_27
REMARK   10  A    between atoms: C_28  and  O_30
REMARK   11  A    between atoms: C_33  and  C_34
REMARK   12  A    between atoms: C_34  and  O_35
REMARK   13  A    between atoms: O_35  and  C_36
REMARK                            x       y       z     vdW  Elec       q    Type
REMARK                         _______ _______ _______ _____ _____    ______ ____
ROOT
ATOM      1  C   LIG A   1      -8.592  -3.262 125.568  0.00  0.00    +0.146 C 
ATOM      2  C   LIG A   1      -8.810  -3.578 127.007  0.00  0.00    +0.006 C 
ATOM      3  C   LIG A   1      -8.293  -2.644 127.817  0.00  0.00    -0.036 C 
ATOM      4  C   LIG A   1      -7.575  -2.087 125.592  0.00  0.00    +0.075 C 
ATOM      5  C   LIG A   1      -7.675  -1.504 127.029  0.00  0.00    +0.096 C 
ATOM      6  C   LIG A   1      -6.309  -0.965 127.518  0.00  0.00    +0.317 C 
ATOM      7  O   LIG A   1      -5.267  -1.950 127.385  0.00  0.00    -0.470 OA
ATOM      8  C   LIG A   1      -5.168  -2.460 126.114  0.00  0.00    +0.201 C 
ATOM      9  C   LIG A   1      -6.170  -2.491 125.227  0.00  0.00    +0.077 C 
ENDROOT
BRANCH   1  10
ATOM     10  O   LIG A   1      -8.110  -4.429 124.923  0.00  0.00    -0.387 OA
ATOM     11  H   LIG A   1      -8.877  -4.902 124.561  0.00  0.00    +0.210 HD
ENDBRANCH   1  10
BRANCH   9  12
ATOM     12  C   LIG A   1      -5.869  -2.931 123.840  0.00  0.00    +0.338 C 
ATOM     13  O   LIG A   1      -5.983  -2.234 122.852  0.00  0.00    -0.245 OA
BRANCH  12  14
ATOM     14  O   LIG A   1      -5.534  -4.251 123.862  0.00  0.00    -0.465 OA
ATOM     15  C   LIG A   1      -4.214  -4.568 123.421  0.00  0.00    +0.280 C 
ENDBRANCH  12  14
ENDBRANCH   9  12
BRANCH   3  16
ATOM     16  C   LIG A   1      -8.353  -2.661 129.305  0.00  0.00    +0.187 C 
BRANCH  16  17
ATOM     17  O   LIG A   1      -7.421  -3.602 129.806  0.00  0.00    -0.391 OA
ATOM     18  H   LIG A   1      -7.931  -4.336 130.192  0.00  0.00    +0.210 HD
ENDBRANCH  16  17
ENDBRANCH   3  16
BRANCH   6  19
ATOM     19  O   LIG A   1      -6.004   0.249 126.800  0.00  0.00    -0.309 OA
BRANCH  19  20
ATOM     20  C   LIG A   1      -7.122   1.154 126.733  0.00  0.00    +0.286 C 
ATOM     21  O   LIG A   1      -7.378   1.466 125.360  0.00  0.00    -0.340 OA
ATOM     22  C   LIG A   1      -8.418   2.423 125.172  0.00  0.00    +0.178 C 
ATOM     23  C   LIG A   1      -7.984   3.773 125.758  0.00  0.00    +0.177 C 
ATOM     24  C   LIG A   1      -7.734   3.589 127.252  0.00  0.00    +0.179 C 
ATOM     25  C   LIG A   1      -6.777   2.430 127.551  0.00  0.00    +0.201 C 
BRANCH  23  26
ATOM     26  O   LIG A   1      -8.978   4.795 125.613  0.00  0.00    -0.387 OA
ATOM     27  H   LIG A   1      -9.791   4.351 125.284  0.00  0.00    +0.210 HD
ENDBRANCH  23  26
BRANCH  24  28
ATOM     28  O   LIG A   1      -7.198   4.805 127.806  0.00  0.00    -0.386 OA
ATOM     29  H   LIG A   1      -7.394   4.752 128.765  0.00  0.00    +0.210 HD
ENDBRANCH  24  28
BRANCH  25  30
ATOM     30  O   LIG A   1      -6.836   2.184 128.970  0.00  0.00    -0.384 OA
ATOM     31  H   LIG A   1      -6.511   3.011 129.382  0.00  0.00    +0.210 HD
ENDBRANCH  25  30
BRANCH  22  32
ATOM     32  C   LIG A   1      -8.702   2.533 123.669  0.00  0.00    +0.190 C 
BRANCH  32  33
ATOM     33  O   LIG A   1      -8.221   3.768 123.142  0.00  0.00    -0.392 OA
ATOM     34  H   LIG A   1      -7.818   3.571 122.275  0.00  0.00    +0.209 HD
ENDBRANCH  32  33
ENDBRANCH  22  32
ENDBRANCH  19  20
ENDBRANCH   6  19
TORSDOF 12
ENDMDL
MODEL 7
REMARK VINA RESULT:      -6.5      2.009      6.926
REMARK  Name = NuBBE_192
REMARK  13 active torsions:
REMARK  status: ('A' for Active; 'I' for Inactive)
REMARK    1  A    between atoms: O_1  and  C_2
REMARK    2  A    between atoms: C_5  and  C_6
REMARK    3  A    between atoms: C_6  and  O_7
REMARK    4  A    between atoms: C_12  and  O_14
REMARK    5  A    between atoms: O_14  and  C_15
REMARK    6  A    between atoms: C_18  and  C_20
REMARK    7  A    between atoms: C_20  and  O_21
REMARK    8  A    between atoms: C_22  and  O_24
REMARK    9  A    between atoms: C_25  and  O_27
REMARK   10  A    between atoms: C_28  and  O_30
REMARK   11  A    between atoms: C_33  and  C_34
REMARK   12  A    between atoms: C_34  and  O_35
REMARK   13  A    between atoms: O_35  and  C_36
REMARK                            x       y       z     vdW  Elec       q    Type
REMARK                         _______ _______ _______ _____ _____    ______ ____
ROOT
ATOM      1  C   LIG A   1      -6.503   1.014 125.867  0.00  0.00    +0.146 C 
ATOM      2  C   LIG A   1      -5.167   1.381 126.414  0.00  0.00    +0.006 C 
ATOM      3  C   LIG A   1      -5.254   2.253 127.428  0.00  0.00    -0.036 C 
ATOM      4  C   LIG A   1      -7.471   2.037 126.524  0.00  0.00    +0.075 C 
ATOM      5  C   LIG A   1      -6.699   2.579 127.759  0.00  0.00    +0.096 C 
ATOM      6  C   LIG A   1      -7.045   4.061 128.038  0.00  0.00    +0.317 C 
ATOM      7  O   LIG A   1      -6.870   4.880 126.867  0.00  0.00    -0.470 OA
ATOM      8  C   LIG A   1      -7.559   4.411 125.775  0.00  0.00    +0.201 C 
ATOM      9  C   LIG A   1      -7.918   3.135 125.594  0.00  0.00    +0.077 C 
ENDROOT
BRANCH   1  10
ATOM     10  O   LIG A   1      -6.444   1.101 124.453  0.00  0.00    -0.387 OA
ATOM     11  H   LIG A   1      -5.837   1.825 124.229  0.00  0.00    +0.210 HD
ENDBRANCH   1  10
BRANCH   9  12
ATOM     12  C   LIG A   1      -8.795   2.807 124.439  0.00  0.00    +0.338 C 
ATOM     13  O   LIG A   1      -8.670   3.265 123.321  0.00  0.00    -0.245 OA
BRANCH  12  14
ATOM     14  O   LIG A   1      -9.794   1.987 124.867  0.00  0.00    -0.465 OA
ATOM     15  C   LIG A   1     -10.465   1.238 123.855  0.00  0.00    +0.280 C 
ENDBRANCH  12  14
ENDBRANCH   9  12
BRANCH   3  16
ATOM     16  C   LIG A   1      -4.104   2.806 128.194  0.00  0.00    +0.187 C 
BRANCH  16  17
ATOM     17  O   LIG A   1      -2.897   2.245 127.709  0.00  0.00    -0.391 OA
ATOM     18  H   LIG A   1      -2.322   2.089 128.480  0.00  0.00    +0.210 HD
ENDBRANCH  16  17
ENDBRANCH   3  16
BRANCH   6  19
ATOM     19  O   LIG A   1      -8.389   4.136 128.559  0.00  0.00    -0.309 OA
BRANCH  19  20
ATOM     20  C   LIG A   1      -8.508   5.044 129.669  0.00  0.00    +0.286 C 
ATOM     21  O   LIG A   1      -8.562   4.283 130.880  0.00  0.00    -0.340 OA
ATOM     22  C   LIG A   1      -8.763   5.075 132.048  0.00  0.00    +0.178 C 
ATOM     23  C   LIG A   1     -10.148   5.732 131.990  0.00  0.00    +0.177 C 
ATOM     24  C   LIG A   1     -10.201   6.630 130.758  0.00  0.00    +0.179 C 
ATOM     25  C   LIG A   1      -9.792   5.898 129.476  0.00  0.00    +0.201 C 
BRANCH  23  26
ATOM     26  O   LIG A   1     -10.430   6.552 133.131  0.00  0.00    -0.387 OA
ATOM     27  H   LIG A   1      -9.641   6.502 133.715  0.00  0.00    +0.210 HD
ENDBRANCH  23  26
BRANCH  24  28
ATOM     28  O   LIG A   1     -11.532   7.159 130.602  0.00  0.00    -0.386 OA
ATOM     29  H   LIG A   1     -12.070   6.686 131.269  0.00  0.00    +0.210 HD
ENDBRANCH  24  28
BRANCH  25  30
ATOM     30  O   LIG A   1      -9.617   6.896 128.452  0.00  0.00    -0.384 OA
ATOM     31  H   LIG A   1     -10.503   7.298 128.339  0.00  0.00    +0.210 HD
ENDBRANCH  25  30
BRANCH  22  32
ATOM     32  C   LIG A   1      -8.629   4.163 133.274  0.00  0.00    +0.190 C 
BRANCH  32  33
ATOM     33  O   LIG A   1      -9.898   3.923 133.879  0.00  0.00    -0.392 OA
ATOM     34  H   LIG A   1     -10.117   4.715 134.407  0.00  0.00    +0.209 HD
ENDBRANCH  32  33
ENDBRANCH  22  32
ENDBRANCH  19  20
ENDBRANCH   6  19
TORSDOF 12
ENDMDL
MODEL 8
REMARK VINA RESULT:      -6.5      2.662      6.894
REMARK  Name = NuBBE_192
REMARK  13 active torsions:
REMARK  status: ('A' for Active; 'I' for Inactive)
REMARK    1  A    between atoms: O_1  and  C_2
REMARK    2  A    between atoms: C_5  and  C_6
REMARK    3  A    between atoms: C_6  and  O_7
REMARK    4  A    between atoms: C_12  and  O_14
REMARK    5  A    between atoms: O_14  and  C_15
REMARK    6  A    between atoms: C_18  and  C_20
REMARK    7  A    between atoms: C_20  and  O_21
REMARK    8  A    between atoms: C_22  and  O_24
REMARK    9  A    between atoms: C_25  and  O_27
REMARK   10  A    between atoms: C_28  and  O_30
REMARK   11  A    between atoms: C_33  and  C_34
REMARK   12  A    between atoms: C_34  and  O_35
REMARK   13  A    between atoms: O_35  and  C_36
REMARK                            x       y       z     vdW  Elec       q    Type
REMARK                         _______ _______ _______ _____ _____    ______ ____
ROOT
ATOM      1  C   LIG A   1      -8.510  -0.485 125.996  0.00  0.00    +0.146 C 
ATOM      2  C   LIG A   1      -7.291  -0.879 126.757  0.00  0.00    +0.006 C 
ATOM      3  C   LIG A   1      -7.097  -0.112 127.839  0.00  0.00    -0.036 C 
ATOM      4  C   LIG A   1      -8.920   0.877 126.622  0.00  0.00    +0.075 C 
ATOM      5  C   LIG A   1      -8.207   0.910 128.003  0.00  0.00    +0.096 C 
ATOM      6  C   LIG A   1      -7.793   2.349 128.392  0.00  0.00    +0.317 C 
ATOM      7  O   LIG A   1      -7.025   2.984 127.353  0.00  0.00    -0.470 OA
ATOM      8  C   LIG A   1      -7.655   2.967 126.133  0.00  0.00    +0.201 C 
ATOM      9  C   LIG A   1      -8.576   2.068 125.765  0.00  0.00    +0.077 C 
ENDROOT
BRANCH   1  10
ATOM     10  O   LIG A   1      -8.171  -0.409 124.621  0.00  0.00    -0.387 OA
ATOM     11  H   LIG A   1      -8.894   0.052 124.166  0.00  0.00    +0.210 HD
ENDBRANCH   1  10
BRANCH   9  12
ATOM     12  C   LIG A   1      -9.282   2.271 124.472  0.00  0.00    +0.338 C 
ATOM     13  O   LIG A   1     -10.218   1.603 124.082  0.00  0.00    -0.245 OA
BRANCH  12  14
ATOM     14  O   LIG A   1      -8.652   3.260 123.781  0.00  0.00    -0.465 OA
ATOM     15  C   LIG A   1      -8.335   2.967 122.420  0.00  0.00    +0.280 C 
ENDBRANCH  12  14
ENDBRANCH   9  12
BRANCH   3  16
ATOM     16  C   LIG A   1      -5.979  -0.255 128.811  0.00  0.00    +0.187 C 
BRANCH  16  17
ATOM     17  O   LIG A   1      -4.818   0.370 128.294  0.00  0.00    -0.391 OA
ATOM     18  H   LIG A   1      -4.922   1.329 128.432  0.00  0.00    +0.210 HD
ENDBRANCH  16  17
ENDBRANCH   3  16
BRANCH   6  19
ATOM     19  O   LIG A   1      -8.978   3.100 128.729  0.00  0.00    -0.309 OA
BRANCH  19  20
ATOM     20  C   LIG A   1      -8.736   4.106 129.730  0.00  0.00    +0.286 C 
ATOM     21  O   LIG A   1      -8.870   3.508 131.023  0.00  0.00    -0.340 OA
ATOM     22  C   LIG A   1      -8.732   4.431 132.101  0.00  0.00    +0.178 C 
ATOM     23  C   LIG A   1      -9.889   5.439 132.065  0.00  0.00    +0.177 C 
ATOM     24  C   LIG A   1      -9.823   6.196 130.742  0.00  0.00    +0.179 C 
ATOM     25  C   LIG A   1      -9.757   5.261 129.530  0.00  0.00    +0.201 C 
BRANCH  23  26
ATOM     26  O   LIG A   1      -9.824   6.409 133.118  0.00  0.00    -0.387 OA
ATOM     27  H   LIG A   1     -10.210   7.239 132.759  0.00  0.00    +0.210 HD
ENDBRANCH  23  26
BRANCH  24  28
ATOM     28  O   LIG A   1     -10.972   7.056 130.619  0.00  0.00    -0.386 OA
ATOM     29  H   LIG A   1     -10.762   7.650 129.869  0.00  0.00    +0.210 HD
ENDBRANCH  24  28
BRANCH  25  30
ATOM     30  O   LIG A   1      -9.426   6.071 128.384  0.00  0.00    -0.384 OA
ATOM     31  H   LIG A   1     -10.165   5.933 127.757  0.00  0.00    +0.210 HD
ENDBRANCH  25  30
BRANCH  22  32
ATOM     32  C   LIG A   1      -8.724   3.638 133.413  0.00  0.00    +0.190 C 
BRANCH  32  33
ATOM     33  O   LIG A   1      -9.963   3.775 134.106  0.00  0.00    -0.392 OA
ATOM     34  H   LIG A   1     -10.501   2.990 133.887  0.00  0.00    +0.209 HD
ENDBRANCH  32  33
ENDBRANCH  22  32
ENDBRANCH  19  20
ENDBRANCH   6  19
TORSDOF 12
ENDMDL
MODEL 9
REMARK VINA RESULT:      -6.4      3.602      4.450
REMARK  Name = NuBBE_192
REMARK  13 active torsions:
REMARK  status: ('A' for Active; 'I' for Inactive)
REMARK    1  A    between atoms: O_1  and  C_2
REMARK    2  A    between atoms: C_5  and  C_6
REMARK    3  A    between atoms: C_6  and  O_7
REMARK    4  A    between atoms: C_12  and  O_14
REMARK    5  A    between atoms: O_14  and  C_15
REMARK    6  A    between atoms: C_18  and  C_20
REMARK    7  A    between atoms: C_20  and  O_21
REMARK    8  A    between atoms: C_22  and  O_24
REMARK    9  A    between atoms: C_25  and  O_27
REMARK   10  A    between atoms: C_28  and  O_30
REMARK   11  A    between atoms: C_33  and  C_34
REMARK   12  A    between atoms: C_34  and  O_35
REMARK   13  A    between atoms: O_35  and  C_36
REMARK                            x       y       z     vdW  Elec       q    Type
REMARK                         _______ _______ _______ _____ _____    ______ ____
ROOT
ATOM      1  C   LIG A   1      -9.757   6.033 132.553  0.00  0.00    +0.146 C 
ATOM      2  C   LIG A   1      -9.235   4.850 133.292  0.00  0.00    +0.006 C 
ATOM      3  C   LIG A   1      -7.993   4.520 132.913  0.00  0.00    -0.036 C 
ATOM      4  C   LIG A   1      -8.730   6.242 131.405  0.00  0.00    +0.075 C 
ATOM      5  C   LIG A   1      -7.455   5.482 131.869  0.00  0.00    +0.096 C 
ATOM      6  C   LIG A   1      -6.691   4.873 130.670  0.00  0.00    +0.317 C 
ATOM      7  O   LIG A   1      -7.550   4.066 129.843  0.00  0.00    -0.470 OA
ATOM      8  C   LIG A   1      -8.673   4.735 129.421  0.00  0.00    +0.201 C 
ATOM      9  C   LIG A   1      -9.221   5.777 130.058  0.00  0.00    +0.077 C 
ENDROOT
BRANCH   1  10
ATOM     10  O   LIG A   1     -11.069   5.736 132.106  0.00  0.00    -0.387 OA
ATOM     11  H   LIG A   1     -11.689   6.231 132.665  0.00  0.00    +0.210 HD
ENDBRANCH   1  10
BRANCH   9  12
ATOM     12  C   LIG A   1     -10.342   6.496 129.398  0.00  0.00    +0.338 C 
ATOM     13  O   LIG A   1     -11.421   6.004 129.133  0.00  0.00    -0.245 OA
BRANCH  12  14
ATOM     14  O   LIG A   1      -9.926   7.750 129.071  0.00  0.00    -0.465 OA
ATOM     15  C   LIG A   1     -10.600   8.367 127.974  0.00  0.00    +0.280 C 
ENDBRANCH  12  14
ENDBRANCH   9  12
BRANCH   3  16
ATOM     16  C   LIG A   1      -7.189   3.397 133.467  0.00  0.00    +0.187 C 
BRANCH  16  17
ATOM     17  O   LIG A   1      -5.866   3.837 133.716  0.00  0.00    -0.391 OA
ATOM     18  H   LIG A   1      -5.651   4.501 133.036  0.00  0.00    +0.210 HD
ENDBRANCH  16  17
ENDBRANCH   3  16
BRANCH   6  19
ATOM     19  O   LIG A   1      -6.063   5.938 129.927  0.00  0.00    -0.309 OA
BRANCH  19  20
ATOM     20  C   LIG A   1      -4.651   6.044 130.186  0.00  0.00    +0.286 C 
ATOM     21  O   LIG A   1      -4.292   5.072 131.173  0.00  0.00    -0.340 OA
ATOM     22  C   LIG A   1      -2.925   5.136 131.573  0.00  0.00    +0.178 C 
ATOM     23  C   LIG A   1      -2.662   6.468 132.288  0.00  0.00    +0.177 C 
ATOM     24  C   LIG A   1      -2.954   7.602 131.310  0.00  0.00    +0.179 C 
ATOM     25  C   LIG A   1      -4.343   7.487 130.672  0.00  0.00    +0.201 C 
BRANCH  23  26
ATOM     26  O   LIG A   1      -1.304   6.616 132.722  0.00  0.00    -0.387 OA
ATOM     27  H   LIG A   1      -0.904   5.718 132.702  0.00  0.00    +0.210 HD
ENDBRANCH  23  26
BRANCH  24  28
ATOM     28  O   LIG A   1      -2.845   8.867 131.990  0.00  0.00    -0.386 OA
ATOM     29  H   LIG A   1      -3.156   9.530 131.339  0.00  0.00    +0.210 HD
ENDBRANCH  24  28
BRANCH  25  30
ATOM     30  O   LIG A   1      -4.393   8.435 129.587  0.00  0.00    -0.384 OA
ATOM     31  H   LIG A   1      -5.065   8.077 128.972  0.00  0.00    +0.210 HD
ENDBRANCH  25  30
BRANCH  22  32
ATOM     32  C   LIG A   1      -2.638   3.944 132.493  0.00  0.00    +0.190 C 
BRANCH  32  33
ATOM     33  O   LIG A   1      -2.768   4.308 133.866  0.00  0.00    -0.392 OA
ATOM     34  H   LIG A   1      -2.829   5.281 133.899  0.00  0.00    +0.209 HD
ENDBRANCH  32  33
ENDBRANCH  22  32
ENDBRANCH  19  20
ENDBRANCH   6  19
TORSDOF 12
ENDMDL
