MODEL 1
REMARK VINA RESULT:     -10.4      0.000      0.000
REMARK  Name = NuBBE_1826
REMARK  9 active torsions:
REMARK  status: ('A' for Active; 'I' for Inactive)
REMARK    1  A    between atoms: C_1  and  C_2
REMARK    2  A    between atoms: C_4  and  C_36
REMARK    3  A    between atoms: C_8  and  C_35
REMARK    4  A    between atoms: C_11  and  C_34
REMARK    5  A    between atoms: C_17  and  C_18
REMARK    6  A    between atoms: C_17  and  C_33
REMARK    7  A    between atoms: C_22  and  C_31
REMARK    8  A    between atoms: C_27  and  C_30
REMARK    9  A    between atoms: C_28  and  C_29
REMARK                            x       y       z     vdW  Elec       q    Type
REMARK                         _______ _______ _______ _____ _____    ______ ____
ROOT
ATOM      1  C   LIG A   1      -5.399   0.928 126.242  0.00  0.00    +0.008 C 
ATOM      2  C   LIG A   1      -6.699   1.575 125.800  0.00  0.00    -0.004 C 
ATOM      3  C   LIG A   1      -6.200   2.736 124.817  0.00  0.00    -0.011 C 
ATOM      4  C   LIG A   1      -6.674   2.613 123.395  0.00  0.00    +0.004 C 
ATOM      5  C   LIG A   1      -8.169   2.460 123.438  0.00  0.00    +0.007 C 
ATOM      6  C   LIG A   1      -8.673   1.170 124.147  0.00  0.00    -0.026 C 
ATOM      7  C   LIG A   1      -8.119   0.109 123.230  0.00  0.00    +0.008 C 
ATOM      8  C   LIG A   1      -6.641  -0.522 123.819  0.00  0.00    +0.012 C 
ATOM      9  C   LIG A   1      -6.660  -1.688 125.093  0.00  0.00    -0.005 C 
ATOM     10  C   LIG A   1      -6.200  -2.139 126.623  0.00  0.00    -0.063 C 
ATOM     11  C   LIG A   1      -4.963  -2.542 126.966  0.00  0.00    -0.026 C 
ATOM     12  C   LIG A   1      -4.621  -3.015 128.327  0.00  0.00    +0.032 C 
ATOM     13  C   LIG A   1      -5.409  -2.376 129.480  0.00  0.00    +0.012 C 
ATOM     14  C   LIG A   1      -5.072  -1.037 130.127  0.00  0.00    +0.027 C 
ATOM     15  C   LIG A   1      -5.274   0.066 129.114  0.00  0.00    +0.019 C 
ATOM     16  C   LIG A   1      -6.038  -1.009 131.327  0.00  0.00    +0.139 C 
ATOM     17  C   LIG A   1      -6.529  -2.436 131.845  0.00  0.00    +0.075 C 
ATOM     18  C   LIG A   1      -7.088  -3.434 130.628  0.00  0.00    +0.015 C 
ATOM     19  C   LIG A   1      -6.995  -2.528 129.350  0.00  0.00    -0.021 C 
ATOM     20  C   LIG A   1      -7.274  -2.358 127.763  0.00  0.00    +0.021 C 
ATOM     21  C   LIG A   1      -8.446  -3.123 127.211  0.00  0.00    +0.009 C 
ATOM     22  C   LIG A   1      -9.122  -2.150 126.258  0.00  0.00    +0.008 C 
ATOM     23  C   LIG A   1      -8.157  -1.390 125.258  0.00  0.00    -0.017 C 
ATOM     24  C   LIG A   1      -8.132   0.538 125.480  0.00  0.00    -0.018 C 
ATOM     25  C   LIG A   1      -8.978   0.963 126.734  0.00  0.00    +0.013 C 
ATOM     26  C   LIG A   1      -8.608  -2.364 123.965  0.00  0.00    +0.013 C 
ATOM     27  C   LIG A   1      -8.272  -1.638 129.843  0.00  0.00    +0.012 C 
ATOM     28  O   LIG A   1      -6.417   0.006 131.809  0.00  0.00    -0.297 OA
ATOM     29  C   LIG A   1      -3.621  -0.921 130.598  0.00  0.00    +0.019 C 
ATOM     30  C   LIG A   1      -5.781  -2.700 124.279  0.00  0.00    +0.016 C 
ATOM     31  C   LIG A   1     -10.210   1.386 124.206  0.00  0.00    +0.012 C 
ATOM     32  C   LIG A   1      -6.477   4.172 125.307  0.00  0.00    +0.008 C 
ENDROOT
TORSDOF 0
ENDMDL
MODEL 2
REMARK VINA RESULT:      -9.2      2.880      6.096
REMARK  Name = NuBBE_1826
REMARK  9 active torsions:
REMARK  status: ('A' for Active; 'I' for Inactive)
REMARK    1  A    between atoms: C_1  and  C_2
REMARK    2  A    between atoms: C_4  and  C_36
REMARK    3  A    between atoms: C_8  and  C_35
REMARK    4  A    between atoms: C_11  and  C_34
REMARK    5  A    between atoms: C_17  and  C_18
REMARK    6  A    between atoms: C_17  and  C_33
REMARK    7  A    between atoms: C_22  and  C_31
REMARK    8  A    between atoms: C_27  and  C_30
REMARK    9  A    between atoms: C_28  and  C_29
REMARK                            x       y       z     vdW  Elec       q    Type
REMARK                         _______ _______ _______ _____ _____    ______ ____
ROOT
ATOM      1  C   LIG A   1      -5.565   2.753 127.073  0.00  0.00    +0.008 C 
ATOM      2  C   LIG A   1      -4.556   2.627 128.200  0.00  0.00    -0.004 C 
ATOM      3  C   LIG A   1      -3.777   4.025 128.135  0.00  0.00    -0.011 C 
ATOM      4  C   LIG A   1      -3.894   4.876 129.370  0.00  0.00    +0.004 C 
ATOM      5  C   LIG A   1      -3.498   4.018 130.538  0.00  0.00    +0.007 C 
ATOM      6  C   LIG A   1      -4.427   2.797 130.797  0.00  0.00    -0.026 C 
ATOM      7  C   LIG A   1      -5.719   3.495 131.144  0.00  0.00    +0.008 C 
ATOM      8  C   LIG A   1      -6.759   3.601 129.788  0.00  0.00    +0.012 C 
ATOM      9  C   LIG A   1      -7.679   2.219 129.310  0.00  0.00    -0.005 C 
ATOM     10  C   LIG A   1      -8.075   1.100 128.150  0.00  0.00    -0.063 C 
ATOM     11  C   LIG A   1      -8.848   1.346 127.076  0.00  0.00    -0.026 C 
ATOM     12  C   LIG A   1      -9.243   0.294 126.113  0.00  0.00    +0.032 C 
ATOM     13  C   LIG A   1      -8.231  -0.842 125.903  0.00  0.00    +0.012 C 
ATOM     14  C   LIG A   1      -7.032  -0.776 124.962  0.00  0.00    +0.027 C 
ATOM     15  C   LIG A   1      -6.061   0.263 125.473  0.00  0.00    +0.019 C 
ATOM     16  C   LIG A   1      -6.517  -2.227 124.998  0.00  0.00    +0.139 C 
ATOM     17  C   LIG A   1      -7.601  -3.330 125.390  0.00  0.00    +0.075 C 
ATOM     18  C   LIG A   1      -8.474  -2.953 126.764  0.00  0.00    +0.015 C 
ATOM     19  C   LIG A   1      -7.822  -1.608 127.245  0.00  0.00    -0.021 C 
ATOM     20  C   LIG A   1      -7.757  -0.435 128.360  0.00  0.00    +0.021 C 
ATOM     21  C   LIG A   1      -8.115  -0.836 129.765  0.00  0.00    +0.009 C 
ATOM     22  C   LIG A   1      -7.088  -0.131 130.636  0.00  0.00    +0.008 C 
ATOM     23  C   LIG A   1      -6.848   1.400 130.309  0.00  0.00    -0.017 C 
ATOM     24  C   LIG A   1      -5.045   1.823 129.731  0.00  0.00    -0.018 C 
ATOM     25  C   LIG A   1      -4.198   0.511 129.554  0.00  0.00    +0.013 C 
ATOM     26  C   LIG A   1      -7.747   1.902 131.638  0.00  0.00    +0.013 C 
ATOM     27  C   LIG A   1      -6.483  -2.396 127.748  0.00  0.00    +0.012 C 
ATOM     28  O   LIG A   1      -5.383  -2.500 124.784  0.00  0.00    -0.297 OA
ATOM     29  C   LIG A   1      -7.385  -0.362 123.533  0.00  0.00    +0.019 C 
ATOM     30  C   LIG A   1      -9.027   3.018 129.332  0.00  0.00    +0.016 C 
ATOM     31  C   LIG A   1      -3.672   2.018 131.908  0.00  0.00    +0.012 C 
ATOM     32  C   LIG A   1      -2.289   3.926 127.743  0.00  0.00    +0.008 C 
ENDROOT
TORSDOF 0
ENDMDL
MODEL 3
REMARK VINA RESULT:      -9.1      2.433      6.091
REMARK  Name = NuBBE_1826
REMARK  9 active torsions:
REMARK  status: ('A' for Active; 'I' for Inactive)
REMARK    1  A    between atoms: C_1  and  C_2
REMARK    2  A    between atoms: C_4  and  C_36
REMARK    3  A    between atoms: C_8  and  C_35
REMARK    4  A    between atoms: C_11  and  C_34
REMARK    5  A    between atoms: C_17  and  C_18
REMARK    6  A    between atoms: C_17  and  C_33
REMARK    7  A    between atoms: C_22  and  C_31
REMARK    8  A    between atoms: C_27  and  C_30
REMARK    9  A    between atoms: C_28  and  C_29
REMARK                            x       y       z     vdW  Elec       q    Type
REMARK                         _______ _______ _______ _____ _____    ______ ____
ROOT
ATOM      1  C   LIG A   1      -8.741   0.756 127.819  0.00  0.00    +0.008 C 
ATOM      2  C   LIG A   1      -7.661   1.567 128.511  0.00  0.00    -0.004 C 
ATOM      3  C   LIG A   1      -8.506   2.650 129.335  0.00  0.00    -0.011 C 
ATOM      4  C   LIG A   1      -8.336   2.586 130.829  0.00  0.00    +0.004 C 
ATOM      5  C   LIG A   1      -6.860   2.631 131.109  0.00  0.00    +0.007 C 
ATOM      6  C   LIG A   1      -6.053   1.421 130.557  0.00  0.00    -0.026 C 
ATOM      7  C   LIG A   1      -6.650   0.293 131.362  0.00  0.00    +0.008 C 
ATOM      8  C   LIG A   1      -7.873  -0.524 130.487  0.00  0.00    +0.012 C 
ATOM      9  C   LIG A   1      -7.430  -1.675 129.277  0.00  0.00    -0.005 C 
ATOM     10  C   LIG A   1      -7.489  -2.178 127.696  0.00  0.00    -0.063 C 
ATOM     11  C   LIG A   1      -8.561  -2.739 127.107  0.00  0.00    -0.026 C 
ATOM     12  C   LIG A   1      -8.539  -3.249 125.718  0.00  0.00    +0.032 C 
ATOM     13  C   LIG A   1      -7.611  -2.509 124.743  0.00  0.00    +0.012 C 
ATOM     14  C   LIG A   1      -7.971  -1.224 124.005  0.00  0.00    +0.027 C 
ATOM     15  C   LIG A   1      -8.135  -0.107 125.009  0.00  0.00    +0.019 C 
ATOM     16  C   LIG A   1      -6.782  -1.065 123.038  0.00  0.00    +0.139 C 
ATOM     17  C   LIG A   1      -6.012  -2.414 122.673  0.00  0.00    +0.075 C 
ATOM     18  C   LIG A   1      -5.602  -3.334 124.007  0.00  0.00    +0.015 C 
ATOM     19  C   LIG A   1      -6.084  -2.451 125.212  0.00  0.00    -0.021 C 
ATOM     20  C   LIG A   1      -6.176  -2.250 126.817  0.00  0.00    +0.021 C 
ATOM     21  C   LIG A   1      -5.062  -2.856 127.626  0.00  0.00    +0.009 C 
ATOM     22  C   LIG A   1      -4.737  -1.806 128.675  0.00  0.00    +0.008 C 
ATOM     23  C   LIG A   1      -5.984  -1.182 129.427  0.00  0.00    -0.017 C 
ATOM     24  C   LIG A   1      -6.209   0.727 129.156  0.00  0.00    -0.018 C 
ATOM     25  C   LIG A   1      -5.176   1.263 128.101  0.00  0.00    +0.013 C 
ATOM     26  C   LIG A   1      -5.700  -2.092 130.811  0.00  0.00    +0.013 C 
ATOM     27  C   LIG A   1      -4.856  -1.400 124.980  0.00  0.00    +0.012 C 
ATOM     28  O   LIG A   1      -6.442  -0.008 122.622  0.00  0.00    -0.297 OA
ATOM     29  C   LIG A   1      -9.289  -1.298 123.233  0.00  0.00    +0.019 C 
ATOM     30  C   LIG A   1      -8.325  -2.795 129.910  0.00  0.00    +0.016 C 
ATOM     31  C   LIG A   1      -4.581   1.837 130.821  0.00  0.00    +0.012 C 
ATOM     32  C   LIG A   1      -8.317   4.111 128.880  0.00  0.00    +0.008 C 
ENDROOT
TORSDOF 0
ENDMDL
MODEL 4
REMARK VINA RESULT:      -9.1      2.193      6.799
REMARK  Name = NuBBE_1826
REMARK  9 active torsions:
REMARK  status: ('A' for Active; 'I' for Inactive)
REMARK    1  A    between atoms: C_1  and  C_2
REMARK    2  A    between atoms: C_4  and  C_36
REMARK    3  A    between atoms: C_8  and  C_35
REMARK    4  A    between atoms: C_11  and  C_34
REMARK    5  A    between atoms: C_17  and  C_18
REMARK    6  A    between atoms: C_17  and  C_33
REMARK    7  A    between atoms: C_22  and  C_31
REMARK    8  A    between atoms: C_27  and  C_30
REMARK    9  A    between atoms: C_28  and  C_29
REMARK                            x       y       z     vdW  Elec       q    Type
REMARK                         _______ _______ _______ _____ _____    ______ ____
ROOT
ATOM      1  C   LIG A   1      -4.966  -2.537 128.269  0.00  0.00    +0.008 C 
ATOM      2  C   LIG A   1      -5.811  -2.788 129.505  0.00  0.00    -0.004 C 
ATOM      3  C   LIG A   1      -4.822  -3.625 130.446  0.00  0.00    -0.011 C 
ATOM      4  C   LIG A   1      -4.481  -2.967 131.755  0.00  0.00    +0.004 C 
ATOM      5  C   LIG A   1      -5.780  -2.602 132.418  0.00  0.00    +0.007 C 
ATOM      6  C   LIG A   1      -6.634  -1.554 131.648  0.00  0.00    -0.026 C 
ATOM      7  C   LIG A   1      -5.724  -0.352 131.704  0.00  0.00    +0.008 C 
ATOM      8  C   LIG A   1      -4.804  -0.194 130.268  0.00  0.00    +0.012 C 
ATOM      9  C   LIG A   1      -5.539   0.476 128.856  0.00  0.00    -0.005 C 
ATOM     10  C   LIG A   1      -5.972   0.320 127.261  0.00  0.00    -0.063 C 
ATOM     11  C   LIG A   1      -5.119   0.386 126.223  0.00  0.00    -0.026 C 
ATOM     12  C   LIG A   1      -5.565   0.324 124.812  0.00  0.00    +0.032 C 
ATOM     13  C   LIG A   1      -6.814  -0.524 124.537  0.00  0.00    +0.012 C 
ATOM     14  C   LIG A   1      -6.813  -2.038 124.345  0.00  0.00    +0.027 C 
ATOM     15  C   LIG A   1      -6.407  -2.699 125.642  0.00  0.00    +0.019 C 
ATOM     16  C   LIG A   1      -8.264  -2.305 123.901  0.00  0.00    +0.139 C 
ATOM     17  C   LIG A   1      -9.012  -1.069 123.224  0.00  0.00    +0.075 C 
ATOM     18  C   LIG A   1      -8.888   0.350 124.098  0.00  0.00    +0.015 C 
ATOM     19  C   LIG A   1      -8.099  -0.089 125.382  0.00  0.00    -0.021 C 
ATOM     20  C   LIG A   1      -7.494   0.319 126.828  0.00  0.00    +0.021 C 
ATOM     21  C   LIG A   1      -8.230   1.399 127.574  0.00  0.00    +0.009 C 
ATOM     22  C   LIG A   1      -8.263   0.914 129.014  0.00  0.00    +0.008 C 
ATOM     23  C   LIG A   1      -6.886   0.382 129.588  0.00  0.00    -0.017 C 
ATOM     24  C   LIG A   1      -6.901  -1.490 130.101  0.00  0.00    -0.018 C 
ATOM     25  C   LIG A   1      -8.262  -2.163 129.698  0.00  0.00    +0.013 C 
ATOM     26  C   LIG A   1      -6.627   1.786 130.476  0.00  0.00    +0.013 C 
ATOM     27  C   LIG A   1      -9.407  -0.876 125.961  0.00  0.00    +0.012 C 
ATOM     28  O   LIG A   1      -8.799  -3.349 124.082  0.00  0.00    -0.297 OA
ATOM     29  C   LIG A   1      -5.825  -2.531 123.288  0.00  0.00    +0.019 C 
ATOM     30  C   LIG A   1      -4.407   1.546 128.684  0.00  0.00    +0.016 C 
ATOM     31  C   LIG A   1      -7.961  -1.531 132.454  0.00  0.00    +0.012 C 
ATOM     32  C   LIG A   1      -5.256  -5.078 130.723  0.00  0.00    +0.008 C 
ENDROOT
TORSDOF 0
ENDMDL
MODEL 5
REMARK VINA RESULT:      -9.0      5.529      7.770
REMARK  Name = NuBBE_1826
REMARK  9 active torsions:
REMARK  status: ('A' for Active; 'I' for Inactive)
REMARK    1  A    between atoms: C_1  and  C_2
REMARK    2  A    between atoms: C_4  and  C_36
REMARK    3  A    between atoms: C_8  and  C_35
REMARK    4  A    between atoms: C_11  and  C_34
REMARK    5  A    between atoms: C_17  and  C_18
REMARK    6  A    between atoms: C_17  and  C_33
REMARK    7  A    between atoms: C_22  and  C_31
REMARK    8  A    between atoms: C_27  and  C_30
REMARK    9  A    between atoms: C_28  and  C_29
REMARK                            x       y       z     vdW  Elec       q    Type
REMARK                         _______ _______ _______ _____ _____    ______ ____
ROOT
ATOM      1  C   LIG A   1      -7.391   6.074 130.576  0.00  0.00    +0.008 C 
ATOM      2  C   LIG A   1      -8.335   5.111 131.272  0.00  0.00    -0.004 C 
ATOM      3  C   LIG A   1      -9.778   5.674 130.867  0.00  0.00    -0.011 C 
ATOM      4  C   LIG A   1     -10.631   4.724 130.072  0.00  0.00    +0.004 C 
ATOM      5  C   LIG A   1     -10.681   3.430 130.834  0.00  0.00    +0.007 C 
ATOM      6  C   LIG A   1      -9.310   2.711 130.990  0.00  0.00    -0.026 C 
ATOM      7  C   LIG A   1      -8.991   2.396 129.550  0.00  0.00    +0.008 C 
ATOM      8  C   LIG A   1      -7.945   3.566 128.867  0.00  0.00    +0.012 C 
ATOM      9  C   LIG A   1      -6.254   3.503 129.215  0.00  0.00    -0.005 C 
ATOM     10  C   LIG A   1      -4.893   4.235 129.821  0.00  0.00    -0.063 C 
ATOM     11  C   LIG A   1      -4.207   5.215 129.205  0.00  0.00    -0.026 C 
ATOM     12  C   LIG A   1      -2.951   5.778 129.747  0.00  0.00    +0.032 C 
ATOM     13  C   LIG A   1      -2.827   5.802 131.277  0.00  0.00    +0.012 C 
ATOM     14  C   LIG A   1      -3.413   6.883 132.181  0.00  0.00    +0.027 C 
ATOM     15  C   LIG A   1      -4.921   6.826 132.104  0.00  0.00    +0.019 C 
ATOM     16  C   LIG A   1      -2.812   6.514 133.551  0.00  0.00    +0.139 C 
ATOM     17  C   LIG A   1      -1.453   5.680 133.501  0.00  0.00    +0.075 C 
ATOM     18  C   LIG A   1      -1.514   4.359 132.481  0.00  0.00    +0.015 C 
ATOM     19  C   LIG A   1      -2.997   4.371 131.968  0.00  0.00    -0.021 C 
ATOM     20  C   LIG A   1      -4.154   3.650 131.092  0.00  0.00    +0.021 C 
ATOM     21  C   LIG A   1      -4.061   2.153 130.975  0.00  0.00    +0.009 C 
ATOM     22  C   LIG A   1      -5.492   1.668 131.134  0.00  0.00    +0.008 C 
ATOM     23  C   LIG A   1      -6.576   2.442 130.277  0.00  0.00    -0.017 C 
ATOM     24  C   LIG A   1      -7.921   3.363 131.329  0.00  0.00    -0.018 C 
ATOM     25  C   LIG A   1      -7.578   3.283 132.861  0.00  0.00    +0.013 C 
ATOM     26  C   LIG A   1      -6.690   1.194 129.156  0.00  0.00    +0.013 C 
ATOM     27  C   LIG A   1      -3.542   3.861 133.420  0.00  0.00    +0.012 C 
ATOM     28  O   LIG A   1      -3.344   6.801 134.571  0.00  0.00    -0.297 OA
ATOM     29  C   LIG A   1      -3.020   8.306 131.784  0.00  0.00    +0.019 C 
ATOM     30  C   LIG A   1      -5.867   3.516 127.696  0.00  0.00    +0.016 C 
ATOM     31  C   LIG A   1      -9.640   1.544 131.960  0.00  0.00    +0.012 C 
ATOM     32  C   LIG A   1     -10.616   6.228 132.037  0.00  0.00    +0.008 C 
ENDROOT
TORSDOF 0
ENDMDL
MODEL 6
REMARK VINA RESULT:      -8.9      5.008      8.029
REMARK  Name = NuBBE_1826
REMARK  9 active torsions:
REMARK  status: ('A' for Active; 'I' for Inactive)
REMARK    1  A    between atoms: C_1  and  C_2
REMARK    2  A    between atoms: C_4  and  C_36
REMARK    3  A    between atoms: C_8  and  C_35
REMARK    4  A    between atoms: C_11  and  C_34
REMARK    5  A    between atoms: C_17  and  C_18
REMARK    6  A    between atoms: C_17  and  C_33
REMARK    7  A    between atoms: C_22  and  C_31
REMARK    8  A    between atoms: C_27  and  C_30
REMARK    9  A    between atoms: C_28  and  C_29
REMARK                            x       y       z     vdW  Elec       q    Type
REMARK                         _______ _______ _______ _____ _____    ______ ____
ROOT
ATOM      1  C   LIG A   1      -5.612   4.852 129.304  0.00  0.00    +0.008 C 
ATOM      2  C   LIG A   1      -4.277   4.948 130.020  0.00  0.00    -0.004 C 
ATOM      3  C   LIG A   1      -3.579   6.197 129.301  0.00  0.00    -0.011 C 
ATOM      4  C   LIG A   1      -3.273   7.361 130.203  0.00  0.00    +0.004 C 
ATOM      5  C   LIG A   1      -2.494   6.824 131.371  0.00  0.00    +0.007 C 
ATOM      6  C   LIG A   1      -3.268   5.811 132.263  0.00  0.00    -0.026 C 
ATOM      7  C   LIG A   1      -4.369   6.692 132.799  0.00  0.00    +0.008 C 
ATOM      8  C   LIG A   1      -5.811   6.517 131.893  0.00  0.00    +0.012 C 
ATOM      9  C   LIG A   1      -6.828   5.148 132.166  0.00  0.00    -0.005 C 
ATOM     10  C   LIG A   1      -7.588   3.795 131.578  0.00  0.00    -0.063 C 
ATOM     11  C   LIG A   1      -8.684   3.807 130.797  0.00  0.00    -0.026 C 
ATOM     12  C   LIG A   1      -9.376   2.571 130.366  0.00  0.00    +0.032 C 
ATOM     13  C   LIG A   1      -8.488   1.334 130.171  0.00  0.00    +0.012 C 
ATOM     14  C   LIG A   1      -7.684   1.030 128.910  0.00  0.00    +0.027 C 
ATOM     15  C   LIG A   1      -6.605   2.075 128.749  0.00  0.00    +0.019 C 
ATOM     16  C   LIG A   1      -7.175  -0.397 129.192  0.00  0.00    +0.139 C 
ATOM     17  C   LIG A   1      -8.051  -1.246 130.221  0.00  0.00    +0.075 C 
ATOM     18  C   LIG A   1      -8.404  -0.429 131.634  0.00  0.00    +0.015 C 
ATOM     19  C   LIG A   1      -7.638   0.931 131.463  0.00  0.00    -0.021 C 
ATOM     20  C   LIG A   1      -7.204   2.353 132.105  0.00  0.00    +0.021 C 
ATOM     21  C   LIG A   1      -7.056   2.387 133.601  0.00  0.00    +0.009 C 
ATOM     22  C   LIG A   1      -5.799   3.207 133.842  0.00  0.00    +0.008 C 
ATOM     23  C   LIG A   1      -5.699   4.561 133.026  0.00  0.00    -0.017 C 
ATOM     24  C   LIG A   1      -4.205   4.643 131.790  0.00  0.00    -0.018 C 
ATOM     25  C   LIG A   1      -3.460   3.261 131.730  0.00  0.00    +0.013 C 
ATOM     26  C   LIG A   1      -6.092   5.488 134.372  0.00  0.00    +0.013 C 
ATOM     27  C   LIG A   1      -6.201   0.192 131.701  0.00  0.00    +0.012 C 
ATOM     28  O   LIG A   1      -6.181  -0.821 128.703  0.00  0.00    -0.297 OA
ATOM     29  C   LIG A   1      -8.508   1.066 127.623  0.00  0.00    +0.019 C 
ATOM     30  C   LIG A   1      -8.094   6.042 132.400  0.00  0.00    +0.016 C 
ATOM     31  C   LIG A   1      -2.172   5.300 133.237  0.00  0.00    +0.012 C 
ATOM     32  C   LIG A   1      -2.314   5.859 128.486  0.00  0.00    +0.008 C 
ENDROOT
TORSDOF 0
ENDMDL
MODEL 7
REMARK VINA RESULT:      -8.8      3.479      7.030
REMARK  Name = NuBBE_1826
REMARK  9 active torsions:
REMARK  status: ('A' for Active; 'I' for Inactive)
REMARK    1  A    between atoms: C_1  and  C_2
REMARK    2  A    between atoms: C_4  and  C_36
REMARK    3  A    between atoms: C_8  and  C_35
REMARK    4  A    between atoms: C_11  and  C_34
REMARK    5  A    between atoms: C_17  and  C_18
REMARK    6  A    between atoms: C_17  and  C_33
REMARK    7  A    between atoms: C_22  and  C_31
REMARK    8  A    between atoms: C_27  and  C_30
REMARK    9  A    between atoms: C_28  and  C_29
REMARK                            x       y       z     vdW  Elec       q    Type
REMARK                         _______ _______ _______ _____ _____    ______ ____
ROOT
ATOM      1  C   LIG A   1      -7.932  -0.577 131.536  0.00  0.00    +0.008 C 
ATOM      2  C   LIG A   1      -6.647  -1.377 131.425  0.00  0.00    -0.004 C 
ATOM      3  C   LIG A   1      -7.159  -2.889 131.545  0.00  0.00    -0.011 C 
ATOM      4  C   LIG A   1      -6.892  -3.749 130.340  0.00  0.00    +0.004 C 
ATOM      5  C   LIG A   1      -5.426  -3.632 130.029  0.00  0.00    +0.007 C 
ATOM      6  C   LIG A   1      -4.957  -2.205 129.621  0.00  0.00    -0.026 C 
ATOM      7  C   LIG A   1      -5.727  -2.011 128.338  0.00  0.00    +0.008 C 
ATOM      8  C   LIG A   1      -7.167  -1.123 128.598  0.00  0.00    +0.012 C 
ATOM      9  C   LIG A   1      -7.090   0.595 128.767  0.00  0.00    -0.005 C 
ATOM     10  C   LIG A   1      -7.383   1.955 129.671  0.00  0.00    -0.063 C 
ATOM     11  C   LIG A   1      -8.596   2.506 129.860  0.00  0.00    -0.026 C 
ATOM     12  C   LIG A   1      -8.798   3.768 130.607  0.00  0.00    +0.032 C 
ATOM     13  C   LIG A   1      -7.806   4.042 131.747  0.00  0.00    +0.012 C 
ATOM     14  C   LIG A   1      -7.926   3.476 133.159  0.00  0.00    +0.027 C 
ATOM     15  C   LIG A   1      -7.755   1.975 133.104  0.00  0.00    +0.019 C 
ATOM     16  C   LIG A   1      -6.811   4.234 133.904  0.00  0.00    +0.139 C 
ATOM     17  C   LIG A   1      -6.394   5.637 133.267  0.00  0.00    +0.075 C 
ATOM     18  C   LIG A   1      -6.098   5.566 131.625  0.00  0.00    +0.015 C 
ATOM     19  C   LIG A   1      -6.274   4.042 131.294  0.00  0.00    -0.021 C 
ATOM     20  C   LIG A   1      -6.193   2.857 130.193  0.00  0.00    +0.021 C 
ATOM     21  C   LIG A   1      -5.183   3.042 129.093  0.00  0.00    +0.009 C 
ATOM     22  C   LIG A   1      -4.550   1.671 128.921  0.00  0.00    +0.008 C 
ATOM     23  C   LIG A   1      -5.562   0.455 128.841  0.00  0.00    -0.017 C 
ATOM     24  C   LIG A   1      -5.375  -0.839 130.275  0.00  0.00    -0.018 C 
ATOM     25  C   LIG A   1      -4.333  -0.339 131.340  0.00  0.00    +0.013 C 
ATOM     26  C   LIG A   1      -5.382   0.318 127.175  0.00  0.00    +0.013 C 
ATOM     27  C   LIG A   1      -4.864   3.682 132.035  0.00  0.00    +0.012 C 
ATOM     28  O   LIG A   1      -6.276   3.788 134.864  0.00  0.00    -0.297 OA
ATOM     29  C   LIG A   1      -9.283   3.726 133.817  0.00  0.00    +0.019 C 
ATOM     30  C   LIG A   1      -8.161   0.826 127.646  0.00  0.00    +0.016 C 
ATOM     31  C   LIG A   1      -3.413  -2.354 129.557  0.00  0.00    +0.012 C 
ATOM     32  C   LIG A   1      -6.684  -3.643 132.803  0.00  0.00    +0.008 C 
ENDROOT
TORSDOF 0
ENDMDL
MODEL 8
REMARK VINA RESULT:      -8.7      3.435      5.546
REMARK  Name = NuBBE_1826
REMARK  9 active torsions:
REMARK  status: ('A' for Active; 'I' for Inactive)
REMARK    1  A    between atoms: C_1  and  C_2
REMARK    2  A    between atoms: C_4  and  C_36
REMARK    3  A    between atoms: C_8  and  C_35
REMARK    4  A    between atoms: C_11  and  C_34
REMARK    5  A    between atoms: C_17  and  C_18
REMARK    6  A    between atoms: C_17  and  C_33
REMARK    7  A    between atoms: C_22  and  C_31
REMARK    8  A    between atoms: C_27  and  C_30
REMARK    9  A    between atoms: C_28  and  C_29
REMARK                            x       y       z     vdW  Elec       q    Type
REMARK                         _______ _______ _______ _____ _____    ______ ____
ROOT
ATOM      1  C   LIG A   1      -4.736   1.964 129.481  0.00  0.00    +0.008 C 
ATOM      2  C   LIG A   1      -4.919   3.061 130.515  0.00  0.00    -0.004 C 
ATOM      3  C   LIG A   1      -4.129   4.294 129.866  0.00  0.00    -0.011 C 
ATOM      4  C   LIG A   1      -4.973   5.502 129.564  0.00  0.00    +0.004 C 
ATOM      5  C   LIG A   1      -5.710   5.854 130.826  0.00  0.00    +0.007 C 
ATOM      6  C   LIG A   1      -6.713   4.771 131.320  0.00  0.00    -0.026 C 
ATOM      7  C   LIG A   1      -7.704   4.765 130.183  0.00  0.00    +0.008 C 
ATOM      8  C   LIG A   1      -7.377   3.505 129.071  0.00  0.00    +0.012 C 
ATOM      9  C   LIG A   1      -7.858   1.890 129.449  0.00  0.00    -0.005 C 
ATOM     10  C   LIG A   1      -7.452   0.299 129.693  0.00  0.00    -0.063 C 
ATOM     11  C   LIG A   1      -7.133  -0.571 128.717  0.00  0.00    -0.026 C 
ATOM     12  C   LIG A   1      -6.859  -2.002 128.976  0.00  0.00    +0.032 C 
ATOM     13  C   LIG A   1      -6.223  -2.332 130.335  0.00  0.00    +0.012 C 
ATOM     14  C   LIG A   1      -4.731  -2.244 130.642  0.00  0.00    +0.027 C 
ATOM     15  C   LIG A   1      -4.296  -0.799 130.565  0.00  0.00    +0.019 C 
ATOM     16  C   LIG A   1      -4.656  -2.876 132.045  0.00  0.00    +0.139 C 
ATOM     17  C   LIG A   1      -5.839  -3.884 132.407  0.00  0.00    +0.075 C 
ATOM     18  C   LIG A   1      -7.361  -3.272 132.089  0.00  0.00    +0.015 C 
ATOM     19  C   LIG A   1      -7.064  -1.814 131.591  0.00  0.00    -0.021 C 
ATOM     20  C   LIG A   1      -7.647  -0.382 131.107  0.00  0.00    +0.021 C 
ATOM     21  C   LIG A   1      -8.980   0.018 131.678  0.00  0.00    +0.009 C 
ATOM     22  C   LIG A   1      -8.827   1.494 132.006  0.00  0.00    +0.008 C 
ATOM     23  C   LIG A   1      -8.179   2.384 130.867  0.00  0.00    -0.017 C 
ATOM     24  C   LIG A   1      -6.496   3.216 131.362  0.00  0.00    -0.018 C 
ATOM     25  C   LIG A   1      -6.023   2.712 132.773  0.00  0.00    +0.013 C 
ATOM     26  C   LIG A   1      -9.664   3.035 130.425  0.00  0.00    +0.013 C 
ATOM     27  C   LIG A   1      -6.679  -1.337 133.105  0.00  0.00    +0.012 C 
ATOM     28  O   LIG A   1      -3.795  -2.604 132.815  0.00  0.00    -0.297 OA
ATOM     29  C   LIG A   1      -3.847  -3.008 129.656  0.00  0.00    +0.019 C 
ATOM     30  C   LIG A   1      -8.633   1.726 128.096  0.00  0.00    +0.016 C 
ATOM     31  C   LIG A   1      -7.158   5.319 132.704  0.00  0.00    +0.012 C 
ATOM     32  C   LIG A   1      -2.877   4.749 130.642  0.00  0.00    +0.008 C 
ENDROOT
TORSDOF 0
ENDMDL
MODEL 9
REMARK VINA RESULT:      -8.7      2.798      6.263
REMARK  Name = NuBBE_1826
REMARK  9 active torsions:
REMARK  status: ('A' for Active; 'I' for Inactive)
REMARK    1  A    between atoms: C_1  and  C_2
REMARK    2  A    between atoms: C_4  and  C_36
REMARK    3  A    between atoms: C_8  and  C_35
REMARK    4  A    between atoms: C_11  and  C_34
REMARK    5  A    between atoms: C_17  and  C_18
REMARK    6  A    between atoms: C_17  and  C_33
REMARK    7  A    between atoms: C_22  and  C_31
REMARK    8  A    between atoms: C_27  and  C_30
REMARK    9  A    between atoms: C_28  and  C_29
REMARK                            x       y       z     vdW  Elec       q    Type
REMARK                         _______ _______ _______ _____ _____    ______ ____
ROOT
ATOM      1  C   LIG A   1      -7.959  -0.343 130.091  0.00  0.00    +0.008 C 
ATOM      2  C   LIG A   1      -8.271   1.136 130.230  0.00  0.00    -0.004 C 
ATOM      3  C   LIG A   1      -8.867   1.234 131.713  0.00  0.00    -0.011 C 
ATOM      4  C   LIG A   1      -8.080   2.100 132.659  0.00  0.00    +0.004 C 
ATOM      5  C   LIG A   1      -7.899   3.434 131.991  0.00  0.00    +0.007 C 
ATOM      6  C   LIG A   1      -7.062   3.401 130.679  0.00  0.00    -0.026 C 
ATOM      7  C   LIG A   1      -5.722   2.956 131.212  0.00  0.00    +0.008 C 
ATOM      8  C   LIG A   1      -5.501   1.269 131.026  0.00  0.00    +0.012 C 
ATOM      9  C   LIG A   1      -5.056   0.633 129.482  0.00  0.00    -0.005 C 
ATOM     10  C   LIG A   1      -5.384  -0.375 128.205  0.00  0.00    -0.063 C 
ATOM     11  C   LIG A   1      -5.240  -1.713 128.225  0.00  0.00    -0.026 C 
ATOM     12  C   LIG A   1      -5.465  -2.562 127.034  0.00  0.00    +0.032 C 
ATOM     13  C   LIG A   1      -6.528  -2.067 126.044  0.00  0.00    +0.012 C 
ATOM     14  C   LIG A   1      -8.029  -2.301 126.190  0.00  0.00    +0.027 C 
ATOM     15  C   LIG A   1      -8.529  -1.556 127.406  0.00  0.00    +0.019 C 
ATOM     16  C   LIG A   1      -8.566  -1.785 124.841  0.00  0.00    +0.139 C 
ATOM     17  C   LIG A   1      -7.520  -1.799 123.636  0.00  0.00    +0.075 C 
ATOM     18  C   LIG A   1      -6.048  -1.106 124.018  0.00  0.00    +0.015 C 
ATOM     19  C   LIG A   1      -6.265  -0.593 125.486  0.00  0.00    -0.021 C 
ATOM     20  C   LIG A   1      -5.670   0.207 126.763  0.00  0.00    +0.021 C 
ATOM     21  C   LIG A   1      -4.686   1.303 126.458  0.00  0.00    +0.009 C 
ATOM     22  C   LIG A   1      -5.077   2.438 127.391  0.00  0.00    +0.008 C 
ATOM     23  C   LIG A   1      -5.331   2.027 128.899  0.00  0.00    -0.017 C 
ATOM     24  C   LIG A   1      -7.142   2.342 129.522  0.00  0.00    -0.018 C 
ATOM     25  C   LIG A   1      -8.060   2.814 128.338  0.00  0.00    +0.013 C 
ATOM     26  C   LIG A   1      -3.850   2.649 129.396  0.00  0.00    +0.013 C 
ATOM     27  C   LIG A   1      -7.224   0.619 124.959  0.00  0.00    +0.012 C 
ATOM     28  O   LIG A   1      -9.671  -1.373 124.717  0.00  0.00    -0.297 OA
ATOM     29  C   LIG A   1      -8.413  -3.766 126.400  0.00  0.00    +0.019 C 
ATOM     30  C   LIG A   1      -3.822  -0.134 130.072  0.00  0.00    +0.016 C 
ATOM     31  C   LIG A   1      -7.213   4.847 130.136  0.00  0.00    +0.012 C 
ATOM     32  C   LIG A   1     -10.353   1.639 131.795  0.00  0.00    +0.008 C 
ENDROOT
TORSDOF 0
ENDMDL
