MODEL 1
REMARK VINA RESULT:      -7.5      0.000      0.000
REMARK  Name = NuBBE_2310
REMARK  10 active torsions:
REMARK  status: ('A' for Active; 'I' for Inactive)
REMARK    1  A    between atoms: C_5  and  C_6
REMARK    2  A    between atoms: C_8  and  C_26
REMARK    3  A    between atoms: C_10  and  C_23
REMARK    4  A    between atoms: C_12  and  O_13
REMARK    5  A    between atoms: O_13  and  C_14
REMARK    6  A    between atoms: C_15  and  O_22
REMARK    7  A    between atoms: C_17  and  O_20
REMARK    8  A    between atoms: C_18  and  O_19
REMARK    9  A    between atoms: O_20  and  C_21
REMARK   10  A    between atoms: C_23  and  C_24
REMARK                            x       y       z     vdW  Elec       q    Type
REMARK                         _______ _______ _______ _____ _____    ______ ____
ROOT
ATOM      1  C   LIG A   1      -6.670  -1.477 126.960  0.00  0.00    +0.060 C 
ATOM      2  C   LIG A   1      -5.892  -1.131 125.645  0.00  0.00    +0.009 C 
ATOM      3  C   LIG A   1      -6.435  -2.117 124.561  0.00  0.00    +0.028 C 
ATOM      4  C   LIG A   1      -7.595  -1.448 123.822  0.00  0.00    +0.027 C 
ATOM      5  C   LIG A   1      -8.780  -1.275 124.409  0.00  0.00    +0.125 C 
ATOM      6  C   LIG A   1      -9.034  -1.819 125.804  0.00  0.00    +0.214 C 
ATOM      7  C   LIG A   1      -7.787  -2.501 126.498  0.00  0.00    +0.135 C 
ATOM      8  C   LIG A   1      -7.004  -3.285 125.420  0.00  0.00    +0.160 C 
ATOM      9  C   LIG A   1      -5.966   0.364 125.303  0.00  0.00    +0.009 C 
ENDROOT
BRANCH   1  14
ATOM     10  C   LIG A   1      -3.869  -3.408 128.877  0.00  0.00    +0.050 A 
ATOM     11  C   LIG A   1      -3.777  -2.619 129.993  0.00  0.00    +0.166 A 
ATOM     12  C   LIG A   1      -4.561  -1.506 130.148  0.00  0.00    +0.167 A 
ATOM     13  C   LIG A   1      -5.502  -1.138 129.204  0.00  0.00    +0.053 A 
ATOM     14  C   LIG A   1      -5.635  -1.911 128.028  0.00  0.00    -0.037 A 
ATOM     15  C   LIG A   1      -4.785  -3.035 127.887  0.00  0.00    +0.008 A 
ATOM     16  O   LIG A   1      -4.285  -0.844 131.305  0.00  0.00    -0.453 OA
ATOM     17  C   LIG A   1      -3.212  -1.654 131.833  0.00  0.00    +0.466 C 
ATOM     18  O   LIG A   1      -2.928  -2.820 131.034  0.00  0.00    -0.453 OA
ENDBRANCH   1  14
BRANCH   5  19
ATOM     19  O   LIG A   1      -9.820  -0.713 123.678  0.00  0.00    -0.497 OA
ATOM     20  C   LIG A   1      -9.610   0.614 123.218  0.00  0.00    +0.276 C 
ENDBRANCH   5  19
BRANCH   8  21
ATOM     21  O   LIG A   1      -7.806  -4.209 124.686  0.00  0.00    -0.388 OA
ATOM     22  H   LIG A   1      -7.750  -3.929 123.752  0.00  0.00    +0.210 HD
ENDBRANCH   8  21
BRANCH   7  23
ATOM     23  O   LIG A   1      -8.241  -3.392 127.536  0.00  0.00    -0.370 OA
ATOM     24  C   LIG A   1      -8.568  -2.759 128.771  0.00  0.00    +0.195 C 
ENDBRANCH   7  23
BRANCH   6  25
ATOM     25  O   LIG A   1     -10.091  -2.786 125.666  0.00  0.00    -0.381 OA
ATOM     26  H   LIG A   1     -10.916  -2.274 125.797  0.00  0.00    +0.210 HD
ENDBRANCH   6  25
BRANCH   3  27
ATOM     27  C   LIG A   1      -5.326  -2.567 123.572  0.00  0.00    +0.040 C 
BRANCH  27  28
ATOM     28  C   LIG A   1      -4.461  -3.712 124.048  0.00  0.00    -0.034 C 
ATOM     29  C   LIG A   1      -4.287  -4.866 123.386  0.00  0.00    +0.004 C 
ENDBRANCH  27  28
ENDBRANCH   3  27
TORSDOF 7
ENDMDL
MODEL 2
REMARK VINA RESULT:      -7.4      3.279      6.857
REMARK  Name = NuBBE_2310
REMARK  10 active torsions:
REMARK  status: ('A' for Active; 'I' for Inactive)
REMARK    1  A    between atoms: C_5  and  C_6
REMARK    2  A    between atoms: C_8  and  C_26
REMARK    3  A    between atoms: C_10  and  C_23
REMARK    4  A    between atoms: C_12  and  O_13
REMARK    5  A    between atoms: O_13  and  C_14
REMARK    6  A    between atoms: C_15  and  O_22
REMARK    7  A    between atoms: C_17  and  O_20
REMARK    8  A    between atoms: C_18  and  O_19
REMARK    9  A    between atoms: O_20  and  C_21
REMARK   10  A    between atoms: C_23  and  C_24
REMARK                            x       y       z     vdW  Elec       q    Type
REMARK                         _______ _______ _______ _____ _____    ______ ____
ROOT
ATOM      1  C   LIG A   1      -8.099   0.683 124.146  0.00  0.00    +0.060 C 
ATOM      2  C   LIG A   1      -7.817  -0.728 123.526  0.00  0.00    +0.009 C 
ATOM      3  C   LIG A   1      -6.641  -1.329 124.362  0.00  0.00    +0.028 C 
ATOM      4  C   LIG A   1      -7.224  -2.162 125.504  0.00  0.00    +0.027 C 
ATOM      5  C   LIG A   1      -7.812  -1.582 126.551  0.00  0.00    +0.125 C 
ATOM      6  C   LIG A   1      -7.840  -0.069 126.678  0.00  0.00    +0.214 C 
ATOM      7  C   LIG A   1      -7.213   0.720 125.458  0.00  0.00    +0.135 C 
ATOM      8  C   LIG A   1      -5.972  -0.060 124.967  0.00  0.00    +0.160 C 
ATOM      9  C   LIG A   1      -9.088  -1.584 123.425  0.00  0.00    +0.009 C 
ENDROOT
BRANCH   1  14
ATOM     10  C   LIG A   1      -8.673   3.417 121.418  0.00  0.00    +0.050 A 
ATOM     11  C   LIG A   1      -7.371   3.662 121.069  0.00  0.00    +0.166 A 
ATOM     12  C   LIG A   1      -6.333   3.000 121.672  0.00  0.00    +0.167 A 
ATOM     13  C   LIG A   1      -6.546   2.033 122.638  0.00  0.00    +0.053 A 
ATOM     14  C   LIG A   1      -7.870   1.745 123.042  0.00  0.00    -0.037 A 
ATOM     15  C   LIG A   1      -8.914   2.473 122.422  0.00  0.00    +0.008 A 
ATOM     16  O   LIG A   1      -5.123   3.418 121.210  0.00  0.00    -0.453 OA
ATOM     17  C   LIG A   1      -5.529   4.445 120.277  0.00  0.00    +0.466 C 
ATOM     18  O   LIG A   1      -6.959   4.560 120.138  0.00  0.00    -0.453 OA
ENDBRANCH   1  14
BRANCH   5  19
ATOM     19  O   LIG A   1      -8.276  -2.380 127.591  0.00  0.00    -0.497 OA
ATOM     20  C   LIG A   1      -8.835  -3.630 127.215  0.00  0.00    +0.276 C 
ENDBRANCH   5  19
BRANCH   8  21
ATOM     21  O   LIG A   1      -5.023  -0.338 125.996  0.00  0.00    -0.388 OA
ATOM     22  H   LIG A   1      -4.521  -1.118 125.693  0.00  0.00    +0.210 HD
ENDBRANCH   8  21
BRANCH   7  23
ATOM     23  O   LIG A   1      -6.838   2.044 125.884  0.00  0.00    -0.370 OA
ATOM     24  C   LIG A   1      -7.930   2.904 126.204  0.00  0.00    +0.195 C 
ENDBRANCH   7  23
BRANCH   6  25
ATOM     25  O   LIG A   1      -7.106   0.242 127.876  0.00  0.00    -0.381 OA
ATOM     26  H   LIG A   1      -6.169   0.263 127.596  0.00  0.00    +0.210 HD
ENDBRANCH   6  25
BRANCH   3  27
ATOM     27  C   LIG A   1      -5.674  -2.175 123.489  0.00  0.00    +0.040 C 
BRANCH  27  28
ATOM     28  C   LIG A   1      -5.324  -3.535 124.044  0.00  0.00    -0.034 C 
ATOM     29  C   LIG A   1      -4.265  -4.267 123.665  0.00  0.00    +0.004 C 
ENDBRANCH  27  28
ENDBRANCH   3  27
TORSDOF 7
ENDMDL
MODEL 3
REMARK VINA RESULT:      -7.2      2.721      4.238
REMARK  Name = NuBBE_2310
REMARK  10 active torsions:
REMARK  status: ('A' for Active; 'I' for Inactive)
REMARK    1  A    between atoms: C_5  and  C_6
REMARK    2  A    between atoms: C_8  and  C_26
REMARK    3  A    between atoms: C_10  and  C_23
REMARK    4  A    between atoms: C_12  and  O_13
REMARK    5  A    between atoms: O_13  and  C_14
REMARK    6  A    between atoms: C_15  and  O_22
REMARK    7  A    between atoms: C_17  and  O_20
REMARK    8  A    between atoms: C_18  and  O_19
REMARK    9  A    between atoms: O_20  and  C_21
REMARK   10  A    between atoms: C_23  and  C_24
REMARK                            x       y       z     vdW  Elec       q    Type
REMARK                         _______ _______ _______ _____ _____    ______ ____
ROOT
ATOM      1  C   LIG A   1      -7.517   0.196 125.775  0.00  0.00    +0.060 C 
ATOM      2  C   LIG A   1      -7.637  -0.505 124.379  0.00  0.00    +0.009 C 
ATOM      3  C   LIG A   1      -8.913   0.101 123.710  0.00  0.00    +0.028 C 
ATOM      4  C   LIG A   1      -8.498   1.300 122.856  0.00  0.00    +0.027 C 
ATOM      5  C   LIG A   1      -8.118   2.449 123.417  0.00  0.00    +0.125 C 
ATOM      6  C   LIG A   1      -8.169   2.624 124.924  0.00  0.00    +0.214 C 
ATOM      7  C   LIG A   1      -8.611   1.340 125.736  0.00  0.00    +0.135 C 
ATOM      8  C   LIG A   1      -9.722   0.623 124.935  0.00  0.00    +0.160 C 
ATOM      9  C   LIG A   1      -6.336  -0.415 123.569  0.00  0.00    +0.009 C 
ENDROOT
BRANCH   1  14
ATOM     10  C   LIG A   1      -8.452  -3.030 127.767  0.00  0.00    +0.050 A 
ATOM     11  C   LIG A   1      -7.678  -2.838 128.881  0.00  0.00    +0.166 A 
ATOM     12  C   LIG A   1      -6.874  -1.735 129.011  0.00  0.00    +0.167 A 
ATOM     13  C   LIG A   1      -6.826  -0.748 128.043  0.00  0.00    +0.053 A 
ATOM     14  C   LIG A   1      -7.598  -0.898 126.869  0.00  0.00    -0.037 A 
ATOM     15  C   LIG A   1      -8.390  -2.066 126.754  0.00  0.00    +0.008 A 
ATOM     16  O   LIG A   1      -6.162  -1.756 130.170  0.00  0.00    -0.453 OA
ATOM     17  C   LIG A   1      -6.586  -3.019 130.728  0.00  0.00    +0.466 C 
ATOM     18  O   LIG A   1      -7.597  -3.681 129.942  0.00  0.00    -0.453 OA
ENDBRANCH   1  14
BRANCH   5  19
ATOM     19  O   LIG A   1      -7.805   3.528 122.598  0.00  0.00    -0.497 OA
ATOM     20  C   LIG A   1      -6.483   3.554 122.081  0.00  0.00    +0.276 C 
ENDBRANCH   5  19
BRANCH   8  21
ATOM     21  O   LIG A   1     -10.819   1.467 124.589  0.00  0.00    -0.388 OA
ATOM     22  H   LIG A   1     -11.539   0.870 124.310  0.00  0.00    +0.210 HD
ENDBRANCH   8  21
BRANCH   7  23
ATOM     23  O   LIG A   1      -9.103   1.736 127.031  0.00  0.00    -0.370 OA
ATOM     24  C   LIG A   1      -8.173   2.464 127.830  0.00  0.00    +0.195 C 
ENDBRANCH   7  23
BRANCH   6  25
ATOM     25  O   LIG A   1      -9.105   3.689 125.168  0.00  0.00    -0.381 OA
ATOM     26  H   LIG A   1      -9.533   3.849 124.302  0.00  0.00    +0.210 HD
ENDBRANCH   6  25
BRANCH   3  27
ATOM     27  C   LIG A   1      -9.686  -0.948 122.866  0.00  0.00    +0.040 C 
BRANCH  27  28
ATOM     28  C   LIG A   1      -9.100  -2.341 122.873  0.00  0.00    -0.034 C 
ATOM     29  C   LIG A   1      -9.619  -3.385 123.537  0.00  0.00    +0.004 C 
ENDBRANCH  27  28
ENDBRANCH   3  27
TORSDOF 7
ENDMDL
MODEL 4
REMARK VINA RESULT:      -7.1      3.835      6.995
REMARK  Name = NuBBE_2310
REMARK  10 active torsions:
REMARK  status: ('A' for Active; 'I' for Inactive)
REMARK    1  A    between atoms: C_5  and  C_6
REMARK    2  A    between atoms: C_8  and  C_26
REMARK    3  A    between atoms: C_10  and  C_23
REMARK    4  A    between atoms: C_12  and  O_13
REMARK    5  A    between atoms: O_13  and  C_14
REMARK    6  A    between atoms: C_15  and  O_22
REMARK    7  A    between atoms: C_17  and  O_20
REMARK    8  A    between atoms: C_18  and  O_19
REMARK    9  A    between atoms: O_20  and  C_21
REMARK   10  A    between atoms: C_23  and  C_24
REMARK                            x       y       z     vdW  Elec       q    Type
REMARK                         _______ _______ _______ _____ _____    ______ ____
ROOT
ATOM      1  C   LIG A   1      -7.169   1.457 126.853  0.00  0.00    +0.060 C 
ATOM      2  C   LIG A   1      -5.626   1.610 127.076  0.00  0.00    +0.009 C 
ATOM      3  C   LIG A   1      -5.280   3.073 126.650  0.00  0.00    +0.028 C 
ATOM      4  C   LIG A   1      -5.352   3.975 127.883  0.00  0.00    +0.027 C 
ATOM      5  C   LIG A   1      -6.522   4.300 128.433  0.00  0.00    +0.125 C 
ATOM      6  C   LIG A   1      -7.825   3.849 127.796  0.00  0.00    +0.214 C 
ATOM      7  C   LIG A   1      -7.665   2.924 126.522  0.00  0.00    +0.135 C 
ATOM      8  C   LIG A   1      -6.460   3.437 125.701  0.00  0.00    +0.160 C 
ATOM      9  C   LIG A   1      -5.199   1.194 128.491  0.00  0.00    +0.009 C 
ENDROOT
BRANCH   1  14
ATOM     10  C   LIG A   1      -6.751  -0.960 123.814  0.00  0.00    +0.050 A 
ATOM     11  C   LIG A   1      -7.857  -1.747 124.000  0.00  0.00    +0.166 A 
ATOM     12  C   LIG A   1      -8.713  -1.540 125.051  0.00  0.00    +0.167 A 
ATOM     13  C   LIG A   1      -8.522  -0.512 125.957  0.00  0.00    +0.053 A 
ATOM     14  C   LIG A   1      -7.393   0.326 125.818  0.00  0.00    -0.037 A 
ATOM     15  C   LIG A   1      -6.513   0.061 124.741  0.00  0.00    +0.008 A 
ATOM     16  O   LIG A   1      -9.722  -2.452 125.075  0.00  0.00    -0.453 OA
ATOM     17  C   LIG A   1      -9.373  -3.275 123.940  0.00  0.00    +0.466 C 
ATOM     18  O   LIG A   1      -8.223  -2.793 123.216  0.00  0.00    -0.453 OA
ENDBRANCH   1  14
BRANCH   5  19
ATOM     19  O   LIG A   1      -6.539   5.169 129.519  0.00  0.00    -0.497 OA
ATOM     20  C   LIG A   1      -7.219   4.705 130.676  0.00  0.00    +0.276 C 
ENDBRANCH   5  19
BRANCH   8  21
ATOM     21  O   LIG A   1      -6.536   4.824 125.374  0.00  0.00    -0.388 OA
ATOM     22  H   LIG A   1      -6.861   5.271 126.180  0.00  0.00    +0.210 HD
ENDBRANCH   8  21
BRANCH   7  23
ATOM     23  O   LIG A   1      -8.869   2.979 125.733  0.00  0.00    -0.370 OA
ATOM     24  C   LIG A   1      -8.665   2.977 124.322  0.00  0.00    +0.195 C 
ENDBRANCH   7  23
BRANCH   6  25
ATOM     25  O   LIG A   1      -8.522   5.053 127.427  0.00  0.00    -0.381 OA
ATOM     26  H   LIG A   1      -8.930   5.370 128.258  0.00  0.00    +0.210 HD
ENDBRANCH   6  25
BRANCH   3  27
ATOM     27  C   LIG A   1      -3.890   3.170 125.965  0.00  0.00    +0.040 C 
BRANCH  27  28
ATOM     28  C   LIG A   1      -2.726   3.416 126.897  0.00  0.00    -0.034 C 
ATOM     29  C   LIG A   1      -1.485   2.941 126.711  0.00  0.00    +0.004 C 
ENDBRANCH  27  28
ENDBRANCH   3  27
TORSDOF 7
ENDMDL
MODEL 5
REMARK VINA RESULT:      -7.1      3.294      5.388
REMARK  Name = NuBBE_2310
REMARK  10 active torsions:
REMARK  status: ('A' for Active; 'I' for Inactive)
REMARK    1  A    between atoms: C_5  and  C_6
REMARK    2  A    between atoms: C_8  and  C_26
REMARK    3  A    between atoms: C_10  and  C_23
REMARK    4  A    between atoms: C_12  and  O_13
REMARK    5  A    between atoms: O_13  and  C_14
REMARK    6  A    between atoms: C_15  and  O_22
REMARK    7  A    between atoms: C_17  and  O_20
REMARK    8  A    between atoms: C_18  and  O_19
REMARK    9  A    between atoms: O_20  and  C_21
REMARK   10  A    between atoms: C_23  and  C_24
REMARK                            x       y       z     vdW  Elec       q    Type
REMARK                         _______ _______ _______ _____ _____    ______ ____
ROOT
ATOM      1  C   LIG A   1      -6.768   1.057 124.711  0.00  0.00    +0.060 C 
ATOM      2  C   LIG A   1      -6.493  -0.174 125.639  0.00  0.00    +0.009 C 
ATOM      3  C   LIG A   1      -7.899  -0.754 126.000  0.00  0.00    +0.028 C 
ATOM      4  C   LIG A   1      -8.257  -1.843 124.987  0.00  0.00    +0.027 C 
ATOM      5  C   LIG A   1      -8.589  -1.536 123.732  0.00  0.00    +0.125 C 
ATOM      6  C   LIG A   1      -8.703  -0.086 123.299  0.00  0.00    +0.214 C 
ATOM      7  C   LIG A   1      -8.320   0.979 124.405  0.00  0.00    +0.135 C 
ATOM      8  C   LIG A   1      -8.838   0.466 125.768  0.00  0.00    +0.160 C 
ATOM      9  C   LIG A   1      -5.490  -1.157 125.018  0.00  0.00    +0.009 C 
ENDROOT
BRANCH   1  14
ATOM     10  C   LIG A   1      -5.267   4.603 125.363  0.00  0.00    +0.050 A 
ATOM     11  C   LIG A   1      -5.178   4.560 126.730  0.00  0.00    +0.166 A 
ATOM     12  C   LIG A   1      -5.581   3.458 127.438  0.00  0.00    +0.167 A 
ATOM     13  C   LIG A   1      -6.070   2.326 126.812  0.00  0.00    +0.053 A 
ATOM     14  C   LIG A   1      -6.192   2.317 125.404  0.00  0.00    -0.037 A 
ATOM     15  C   LIG A   1      -5.797   3.485 124.708  0.00  0.00    +0.008 A 
ATOM     16  O   LIG A   1      -5.445   3.636 128.781  0.00  0.00    -0.453 OA
ATOM     17  C   LIG A   1      -4.946   4.991 128.826  0.00  0.00    +0.466 C 
ATOM     18  O   LIG A   1      -4.714   5.560 127.522  0.00  0.00    -0.453 OA
ENDBRANCH   1  14
BRANCH   5  19
ATOM     19  O   LIG A   1      -8.962  -2.557 122.865  0.00  0.00    -0.497 OA
ATOM     20  C   LIG A   1      -9.753  -3.593 123.427  0.00  0.00    +0.276 C 
ENDBRANCH   5  19
BRANCH   8  21
ATOM     21  O   LIG A   1     -10.227   0.138 125.768  0.00  0.00    -0.388 OA
ATOM     22  H   LIG A   1     -10.408  -0.257 126.643  0.00  0.00    +0.210 HD
ENDBRANCH   8  21
BRANCH   7  23
ATOM     23  O   LIG A   1      -8.926   2.246 124.083  0.00  0.00    -0.370 OA
ATOM     24  C   LIG A   1      -8.636   2.736 122.775  0.00  0.00    +0.195 C 
ENDBRANCH   7  23
BRANCH   6  25
ATOM     25  O   LIG A   1     -10.075   0.104 122.907  0.00  0.00    -0.381 OA
ATOM     26  H   LIG A   1     -10.549  -0.668 123.277  0.00  0.00    +0.210 HD
ENDBRANCH   6  25
BRANCH   3  27
ATOM     27  C   LIG A   1      -7.951  -1.301 127.452  0.00  0.00    +0.040 C 
BRANCH  27  28
ATOM     28  C   LIG A   1      -8.299  -2.766 127.579  0.00  0.00    -0.034 C 
ATOM     29  C   LIG A   1      -8.386  -3.433 128.740  0.00  0.00    +0.004 C 
ENDBRANCH  27  28
ENDBRANCH   3  27
TORSDOF 7
ENDMDL
MODEL 6
REMARK VINA RESULT:      -7.1      4.501      6.709
REMARK  Name = NuBBE_2310
REMARK  10 active torsions:
REMARK  status: ('A' for Active; 'I' for Inactive)
REMARK    1  A    between atoms: C_5  and  C_6
REMARK    2  A    between atoms: C_8  and  C_26
REMARK    3  A    between atoms: C_10  and  C_23
REMARK    4  A    between atoms: C_12  and  O_13
REMARK    5  A    between atoms: O_13  and  C_14
REMARK    6  A    between atoms: C_15  and  O_22
REMARK    7  A    between atoms: C_17  and  O_20
REMARK    8  A    between atoms: C_18  and  O_19
REMARK    9  A    between atoms: O_20  and  C_21
REMARK   10  A    between atoms: C_23  and  C_24
REMARK                            x       y       z     vdW  Elec       q    Type
REMARK                         _______ _______ _______ _____ _____    ______ ____
ROOT
ATOM      1  C   LIG A   1      -5.575   2.424 125.436  0.00  0.00    +0.060 C 
ATOM      2  C   LIG A   1      -6.325   1.501 126.456  0.00  0.00    +0.009 C 
ATOM      3  C   LIG A   1      -7.839   1.865 126.322  0.00  0.00    +0.028 C 
ATOM      4  C   LIG A   1      -8.481   0.927 125.298  0.00  0.00    +0.027 C 
ATOM      5  C   LIG A   1      -8.227   1.050 123.995  0.00  0.00    +0.125 C 
ATOM      6  C   LIG A   1      -7.356   2.184 123.483  0.00  0.00    +0.214 C 
ATOM      7  C   LIG A   1      -6.733   3.112 124.604  0.00  0.00    +0.135 C 
ATOM      8  C   LIG A   1      -7.790   3.299 125.716  0.00  0.00    +0.160 C 
ATOM      9  C   LIG A   1      -5.961   0.020 126.277  0.00  0.00    +0.009 C 
ENDROOT
BRANCH   1  14
ATOM     10  C   LIG A   1      -2.355   3.779 127.182  0.00  0.00    +0.050 A 
ATOM     11  C   LIG A   1      -2.843   4.967 127.660  0.00  0.00    +0.166 A 
ATOM     12  C   LIG A   1      -4.142   5.346 127.441  0.00  0.00    +0.167 A 
ATOM     13  C   LIG A   1      -5.032   4.541 126.753  0.00  0.00    +0.053 A 
ATOM     14  C   LIG A   1      -4.581   3.307 126.230  0.00  0.00    -0.037 A 
ATOM     15  C   LIG A   1      -3.225   2.965 126.448  0.00  0.00    +0.008 A 
ATOM     16  O   LIG A   1      -4.411   6.573 127.964  0.00  0.00    -0.453 OA
ATOM     17  C   LIG A   1      -3.118   6.929 128.502  0.00  0.00    +0.466 C 
ATOM     18  O   LIG A   1      -2.134   5.884 128.366  0.00  0.00    -0.453 OA
ENDBRANCH   1  14
BRANCH   5  19
ATOM     19  O   LIG A   1      -8.879   0.210 123.099  0.00  0.00    -0.497 OA
ATOM     20  C   LIG A   1      -8.877  -1.171 123.427  0.00  0.00    +0.276 C 
ENDBRANCH   5  19
BRANCH   8  21
ATOM     21  O   LIG A   1      -9.049   3.771 125.240  0.00  0.00    -0.388 OA
ATOM     22  H   LIG A   1      -8.858   4.259 124.416  0.00  0.00    +0.210 HD
ENDBRANCH   8  21
BRANCH   7  23
ATOM     23  O   LIG A   1      -6.377   4.385 124.031  0.00  0.00    -0.370 OA
ATOM     24  C   LIG A   1      -5.388   4.327 123.005  0.00  0.00    +0.195 C 
ENDBRANCH   7  23
BRANCH   6  25
ATOM     25  O   LIG A   1      -8.198   2.973 122.623  0.00  0.00    -0.381 OA
ATOM     26  H   LIG A   1      -7.715   3.817 122.507  0.00  0.00    +0.210 HD
ENDBRANCH   6  25
BRANCH   3  27
ATOM     27  C   LIG A   1      -8.580   1.799 127.684  0.00  0.00    +0.040 C 
BRANCH  27  28
ATOM     28  C   LIG A   1      -7.829   2.386 128.857  0.00  0.00    -0.034 C 
ATOM     29  C   LIG A   1      -8.102   3.571 129.425  0.00  0.00    +0.004 C 
ENDBRANCH  27  28
ENDBRANCH   3  27
TORSDOF 7
ENDMDL
MODEL 7
REMARK VINA RESULT:      -6.9      4.120      7.015
REMARK  Name = NuBBE_2310
REMARK  10 active torsions:
REMARK  status: ('A' for Active; 'I' for Inactive)
REMARK    1  A    between atoms: C_5  and  C_6
REMARK    2  A    between atoms: C_8  and  C_26
REMARK    3  A    between atoms: C_10  and  C_23
REMARK    4  A    between atoms: C_12  and  O_13
REMARK    5  A    between atoms: O_13  and  C_14
REMARK    6  A    between atoms: C_15  and  O_22
REMARK    7  A    between atoms: C_17  and  O_20
REMARK    8  A    between atoms: C_18  and  O_19
REMARK    9  A    between atoms: O_20  and  C_21
REMARK   10  A    between atoms: C_23  and  C_24
REMARK                            x       y       z     vdW  Elec       q    Type
REMARK                         _______ _______ _______ _____ _____    ______ ____
ROOT
ATOM      1  C   LIG A   1      -6.623   1.948 126.856  0.00  0.00    +0.060 C 
ATOM      2  C   LIG A   1      -5.572   2.460 125.813  0.00  0.00    +0.009 C 
ATOM      3  C   LIG A   1      -5.913   3.967 125.573  0.00  0.00    +0.028 C 
ATOM      4  C   LIG A   1      -5.084   4.818 126.537  0.00  0.00    +0.027 C 
ATOM      5  C   LIG A   1      -5.362   4.853 127.841  0.00  0.00    +0.125 C 
ATOM      6  C   LIG A   1      -6.567   4.112 128.392  0.00  0.00    +0.214 C 
ATOM      7  C   LIG A   1      -7.374   3.258 127.331  0.00  0.00    +0.135 C 
ATOM      8  C   LIG A   1      -7.408   4.048 126.003  0.00  0.00    +0.160 C 
ATOM      9  C   LIG A   1      -4.130   2.148 126.239  0.00  0.00    +0.009 C 
ENDROOT
BRANCH   1  14
ATOM     10  C   LIG A   1      -8.622  -0.215 124.292  0.00  0.00    +0.050 A 
ATOM     11  C   LIG A   1      -8.873  -1.313 125.073  0.00  0.00    +0.166 A 
ATOM     12  C   LIG A   1      -8.426  -1.387 126.367  0.00  0.00    +0.167 A 
ATOM     13  C   LIG A   1      -7.726  -0.350 126.958  0.00  0.00    +0.053 A 
ATOM     14  C   LIG A   1      -7.432   0.804 126.197  0.00  0.00    -0.037 A 
ATOM     15  C   LIG A   1      -7.881   0.830 124.854  0.00  0.00    +0.008 A 
ATOM     16  O   LIG A   1      -8.747  -2.573 126.952  0.00  0.00    -0.453 OA
ATOM     17  C   LIG A   1      -9.413  -3.243 125.859  0.00  0.00    +0.466 C 
ATOM     18  O   LIG A   1      -9.551  -2.422 124.682  0.00  0.00    -0.453 OA
ENDBRANCH   1  14
BRANCH   5  19
ATOM     19  O   LIG A   1      -4.616   5.686 128.667  0.00  0.00    -0.497 OA
ATOM     20  C   LIG A   1      -3.404   6.183 128.118  0.00  0.00    +0.276 C 
ENDBRANCH   5  19
BRANCH   8  21
ATOM     21  O   LIG A   1      -7.902   5.379 126.137  0.00  0.00    -0.388 OA
ATOM     22  H   LIG A   1      -7.537   5.878 125.381  0.00  0.00    +0.210 HD
ENDBRANCH   8  21
BRANCH   7  23
ATOM     23  O   LIG A   1      -8.713   3.032 127.815  0.00  0.00    -0.370 OA
ATOM     24  C   LIG A   1      -8.793   2.375 129.078  0.00  0.00    +0.195 C 
ENDBRANCH   7  23
BRANCH   6  25
ATOM     25  O   LIG A   1      -7.430   5.118 128.951  0.00  0.00    -0.381 OA
ATOM     26  H   LIG A   1      -6.896   5.542 129.654  0.00  0.00    +0.210 HD
ENDBRANCH   6  25
BRANCH   3  27
ATOM     27  C   LIG A   1      -5.674   4.394 124.100  0.00  0.00    +0.040 C 
BRANCH  27  28
ATOM     28  C   LIG A   1      -6.198   3.436 123.056  0.00  0.00    -0.034 C 
ATOM     29  C   LIG A   1      -6.170   3.657 121.733  0.00  0.00    +0.004 C 
ENDBRANCH  27  28
ENDBRANCH   3  27
TORSDOF 7
ENDMDL
MODEL 8
REMARK VINA RESULT:      -6.8      1.670      2.160
REMARK  Name = NuBBE_2310
REMARK  10 active torsions:
REMARK  status: ('A' for Active; 'I' for Inactive)
REMARK    1  A    between atoms: C_5  and  C_6
REMARK    2  A    between atoms: C_8  and  C_26
REMARK    3  A    between atoms: C_10  and  C_23
REMARK    4  A    between atoms: C_12  and  O_13
REMARK    5  A    between atoms: O_13  and  C_14
REMARK    6  A    between atoms: C_15  and  O_22
REMARK    7  A    between atoms: C_17  and  O_20
REMARK    8  A    between atoms: C_18  and  O_19
REMARK    9  A    between atoms: O_20  and  C_21
REMARK   10  A    between atoms: C_23  and  C_24
REMARK                            x       y       z     vdW  Elec       q    Type
REMARK                         _______ _______ _______ _____ _____    ______ ____
ROOT
ATOM      1  C   LIG A   1      -7.107  -1.015 127.072  0.00  0.00    +0.060 C 
ATOM      2  C   LIG A   1      -5.724  -0.943 126.339  0.00  0.00    +0.009 C 
ATOM      3  C   LIG A   1      -5.916  -1.719 124.996  0.00  0.00    +0.028 C 
ATOM      4  C   LIG A   1      -6.326  -0.725 123.908  0.00  0.00    +0.027 C 
ATOM      5  C   LIG A   1      -7.544  -0.183 123.891  0.00  0.00    +0.125 C 
ATOM      6  C   LIG A   1      -8.589  -0.606 124.908  0.00  0.00    +0.214 C 
ATOM      7  C   LIG A   1      -8.089  -1.640 125.997  0.00  0.00    +0.135 C 
ATOM      8  C   LIG A   1      -7.133  -2.640 125.308  0.00  0.00    +0.160 C 
ATOM      9  C   LIG A   1      -5.201   0.496 126.226  0.00  0.00    +0.009 C 
ENDROOT
BRANCH   1  14
ATOM     10  C   LIG A   1      -7.529  -2.258 130.750  0.00  0.00    +0.050 A 
ATOM     11  C   LIG A   1      -6.458  -3.108 130.823  0.00  0.00    +0.166 A 
ATOM     12  C   LIG A   1      -5.623  -3.301 129.753  0.00  0.00    +0.167 A 
ATOM     13  C   LIG A   1      -5.801  -2.627 128.557  0.00  0.00    +0.053 A 
ATOM     14  C   LIG A   1      -6.896  -1.743 128.422  0.00  0.00    -0.037 A 
ATOM     15  C   LIG A   1      -7.755  -1.596 129.538  0.00  0.00    +0.008 A 
ATOM     16  O   LIG A   1      -4.649  -4.211 130.022  0.00  0.00    -0.453 OA
ATOM     17  C   LIG A   1      -4.997  -4.591 131.372  0.00  0.00    +0.466 C 
ATOM     18  O   LIG A   1      -6.108  -3.846 131.908  0.00  0.00    -0.453 OA
ENDBRANCH   1  14
BRANCH   5  19
ATOM     19  O   LIG A   1      -7.888   0.672 122.850  0.00  0.00    -0.497 OA
ATOM     20  C   LIG A   1      -7.756   2.060 123.115  0.00  0.00    +0.276 C 
ENDBRANCH   5  19
BRANCH   8  21
ATOM     21  O   LIG A   1      -7.693  -3.271 124.157  0.00  0.00    -0.388 OA
ATOM     22  H   LIG A   1      -8.520  -3.693 124.460  0.00  0.00    +0.210 HD
ENDBRANCH   8  21
BRANCH   7  23
ATOM     23  O   LIG A   1      -9.220  -2.332 126.558  0.00  0.00    -0.370 OA
ATOM     24  C   LIG A   1      -8.982  -3.697 126.897  0.00  0.00    +0.195 C 
ENDBRANCH   7  23
BRANCH   6  25
ATOM     25  O   LIG A   1      -9.664  -1.192 124.152  0.00  0.00    -0.381 OA
ATOM     26  H   LIG A   1     -10.436  -0.615 124.327  0.00  0.00    +0.210 HD
ENDBRANCH   6  25
BRANCH   3  27
ATOM     27  C   LIG A   1      -4.641  -2.504 124.586  0.00  0.00    +0.040 C 
BRANCH  27  28
ATOM     28  C   LIG A   1      -4.831  -3.510 123.474  0.00  0.00    -0.034 C 
ATOM     29  C   LIG A   1      -4.369  -4.769 123.495  0.00  0.00    +0.004 C 
ENDBRANCH  27  28
ENDBRANCH   3  27
TORSDOF 7
ENDMDL
MODEL 9
REMARK VINA RESULT:      -6.7      3.230      5.212
REMARK  Name = NuBBE_2310
REMARK  10 active torsions:
REMARK  status: ('A' for Active; 'I' for Inactive)
REMARK    1  A    between atoms: C_5  and  C_6
REMARK    2  A    between atoms: C_8  and  C_26
REMARK    3  A    between atoms: C_10  and  C_23
REMARK    4  A    between atoms: C_12  and  O_13
REMARK    5  A    between atoms: O_13  and  C_14
REMARK    6  A    between atoms: C_15  and  O_22
REMARK    7  A    between atoms: C_17  and  O_20
REMARK    8  A    between atoms: C_18  and  O_19
REMARK    9  A    between atoms: O_20  and  C_21
REMARK   10  A    between atoms: C_23  and  C_24
REMARK                            x       y       z     vdW  Elec       q    Type
REMARK                         _______ _______ _______ _____ _____    ______ ____
ROOT
ATOM      1  C   LIG A   1      -6.911   0.183 126.557  0.00  0.00    +0.060 C 
ATOM      2  C   LIG A   1      -6.745  -1.222 127.230  0.00  0.00    +0.009 C 
ATOM      3  C   LIG A   1      -7.647  -2.195 126.403  0.00  0.00    +0.028 C 
ATOM      4  C   LIG A   1      -6.800  -2.837 125.304  0.00  0.00    +0.027 C 
ATOM      5  C   LIG A   1      -6.401  -2.136 124.241  0.00  0.00    +0.125 C 
ATOM      6  C   LIG A   1      -6.853  -0.698 124.054  0.00  0.00    +0.214 C 
ATOM      7  C   LIG A   1      -7.729  -0.109 125.233  0.00  0.00    +0.135 C 
ATOM      8  C   LIG A   1      -8.670  -1.227 125.739  0.00  0.00    +0.160 C 
ATOM      9  C   LIG A   1      -5.271  -1.623 127.382  0.00  0.00    +0.009 C 
ENDROOT
BRANCH   1  14
ATOM     10  C   LIG A   1      -8.589   1.633 129.772  0.00  0.00    +0.050 A 
ATOM     11  C   LIG A   1      -8.514   2.970 129.480  0.00  0.00    +0.166 A 
ATOM     12  C   LIG A   1      -7.948   3.416 128.314  0.00  0.00    +0.167 A 
ATOM     13  C   LIG A   1      -7.451   2.544 127.362  0.00  0.00    +0.053 A 
ATOM     14  C   LIG A   1      -7.495   1.153 127.614  0.00  0.00    -0.037 A 
ATOM     15  C   LIG A   1      -8.057   0.732 128.843  0.00  0.00    +0.008 A 
ATOM     16  O   LIG A   1      -7.938   4.775 128.238  0.00  0.00    -0.453 OA
ATOM     17  C   LIG A   1      -8.530   5.123 129.509  0.00  0.00    +0.466 C 
ATOM     18  O   LIG A   1      -8.955   3.978 130.275  0.00  0.00    -0.453 OA
ENDBRANCH   1  14
BRANCH   5  19
ATOM     19  O   LIG A   1      -5.681  -2.778 123.241  0.00  0.00    -0.497 OA
ATOM     20  C   LIG A   1      -4.724  -3.732 123.678  0.00  0.00    +0.276 C 
ENDBRANCH   5  19
BRANCH   8  21
ATOM     21  O   LIG A   1      -9.454  -1.828 124.709  0.00  0.00    -0.388 OA
ATOM     22  H   LIG A   1      -9.318  -2.791 124.797  0.00  0.00    +0.210 HD
ENDBRANCH   8  21
BRANCH   7  23
ATOM     23  O   LIG A   1      -8.496   1.011 124.749  0.00  0.00    -0.370 OA
ATOM     24  C   LIG A   1      -9.881   0.983 125.088  0.00  0.00    +0.195 C 
ENDBRANCH   7  23
BRANCH   6  25
ATOM     25  O   LIG A   1      -7.617  -0.678 122.835  0.00  0.00    -0.381 OA
ATOM     26  H   LIG A   1      -8.463  -1.115 123.063  0.00  0.00    +0.210 HD
ENDBRANCH   6  25
BRANCH   3  27
ATOM     27  C   LIG A   1      -8.316  -3.274 127.297  0.00  0.00    +0.040 C 
BRANCH  27  28
ATOM     28  C   LIG A   1      -8.306  -2.982 128.780  0.00  0.00    -0.034 C 
ATOM     29  C   LIG A   1      -7.542  -3.621 129.680  0.00  0.00    +0.004 C 
ENDBRANCH  27  28
ENDBRANCH   3  27
TORSDOF 7
ENDMDL
