MODEL 1
REMARK VINA RESULT:      -6.6      0.000      0.000
REMARK  Name = NuBBE_593
REMARK  5 active torsions:
REMARK  status: ('A' for Active; 'I' for Inactive)
REMARK    1  A    between atoms: C_1  and  C_2
REMARK    2  A    between atoms: C_5  and  O_7
REMARK    3  A    between atoms: C_9  and  C_10
REMARK    4  A    between atoms: C_10  and  O_11
REMARK    5  A    between atoms: C_13  and  O_14
REMARK                            x       y       z     vdW  Elec       q    Type
REMARK                         _______ _______ _______ _____ _____    ______ ____
ROOT
ATOM      1  C   LIG A   1     -12.295   6.908 126.721  0.00  0.00    +0.055 C 
ATOM      2  C   LIG A   1     -11.312   7.966 127.231  0.00  0.00    +0.207 C 
ATOM      3  O   LIG A   1     -12.050   9.079 127.763  0.00  0.00    -0.455 OA
ATOM      4  C   LIG A   1     -10.259   7.455 128.232  0.00  0.00    +0.186 C 
ATOM      5  C   LIG A   1     -10.862   7.274 129.604  0.00  0.00    +0.016 A 
ATOM      6  C   LIG A   1     -10.277   6.473 130.611  0.00  0.00    +0.107 A 
ATOM      7  C   LIG A   1     -10.965   6.235 131.812  0.00  0.00    +0.131 A 
ATOM      8  C   LIG A   1     -12.174   6.868 132.072  0.00  0.00    +0.047 A 
ATOM      9  C   LIG A   1     -12.702   7.754 131.136  0.00  0.00    +0.019 A 
ATOM     10  C   LIG A   1     -12.050   7.963 129.910  0.00  0.00    +0.066 A 
ATOM     11  C   LIG A   1     -12.623   8.982 128.987  0.00  0.00    +0.340 C 
ATOM     12  O   LIG A   1     -13.529   9.724 129.338  0.00  0.00    -0.245 OA
ENDROOT
BRANCH   4  13
ATOM     13  O   LIG A   1      -9.697   6.244 127.726  0.00  0.00    -0.384 OA
ATOM     14  H   LIG A   1      -9.340   6.409 126.835  0.00  0.00    +0.210 HD
ENDBRANCH   4  13
BRANCH   6  15
ATOM     15  C   LIG A   1      -8.926   5.891 130.486  0.00  0.00    +0.341 C 
ATOM     16  O   LIG A   1      -7.902   6.546 130.418  0.00  0.00    -0.245 OA
BRANCH  15  17
ATOM     17  O   LIG A   1      -8.959   4.566 130.277  0.00  0.00    -0.477 OA
ATOM     18  H   LIG A   1      -8.156   4.213 130.713  0.00  0.00    +0.295 HD
ENDBRANCH  15  17
ENDBRANCH   6  15
BRANCH   7  19
ATOM     19  O   LIG A   1     -10.505   5.396 132.792  0.00  0.00    -0.506 OA
ATOM     20  H   LIG A   1      -9.959   4.688 132.388  0.00  0.00    +0.292 HD
ENDBRANCH   7  19
TORSDOF 4
ENDMDL
MODEL 2
REMARK VINA RESULT:      -5.8      8.326     10.410
REMARK  Name = NuBBE_593
REMARK  5 active torsions:
REMARK  status: ('A' for Active; 'I' for Inactive)
REMARK    1  A    between atoms: C_1  and  C_2
REMARK    2  A    between atoms: C_5  and  O_7
REMARK    3  A    between atoms: C_9  and  C_10
REMARK    4  A    between atoms: C_10  and  O_11
REMARK    5  A    between atoms: C_13  and  O_14
REMARK                            x       y       z     vdW  Elec       q    Type
REMARK                         _______ _______ _______ _____ _____    ______ ____
ROOT
ATOM      1  C   LIG A   1      -6.606  -2.939 123.999  0.00  0.00    +0.055 C 
ATOM      2  C   LIG A   1      -8.111  -3.128 124.208  0.00  0.00    +0.207 C 
ATOM      3  O   LIG A   1      -8.362  -3.438 125.589  0.00  0.00    -0.455 OA
ATOM      4  C   LIG A   1      -8.992  -1.962 123.722  0.00  0.00    +0.186 C 
ATOM      5  C   LIG A   1      -8.945  -0.808 124.694  0.00  0.00    +0.016 A 
ATOM      6  C   LIG A   1      -9.317   0.512 124.354  0.00  0.00    +0.107 A 
ATOM      7  C   LIG A   1      -9.112   1.561 125.264  0.00  0.00    +0.131 A 
ATOM      8  C   LIG A   1      -8.645   1.303 126.548  0.00  0.00    +0.047 A 
ATOM      9  C   LIG A   1      -8.388  -0.010 126.934  0.00  0.00    +0.019 A 
ATOM     10  C   LIG A   1      -8.541  -1.063 126.018  0.00  0.00    +0.066 A 
ATOM     11  C   LIG A   1      -8.328  -2.451 126.516  0.00  0.00    +0.340 C 
ATOM     12  O   LIG A   1      -8.183  -2.686 127.707  0.00  0.00    -0.245 OA
ENDROOT
BRANCH   4  13
ATOM     13  O   LIG A   1      -8.566  -1.582 122.413  0.00  0.00    -0.384 OA
ATOM     14  H   LIG A   1      -7.754  -1.048 122.487  0.00  0.00    +0.210 HD
ENDBRANCH   4  13
BRANCH   6  15
ATOM     15  C   LIG A   1      -9.968   0.855 123.074  0.00  0.00    +0.341 C 
ATOM     16  O   LIG A   1     -10.926   0.260 122.612  0.00  0.00    -0.245 OA
BRANCH  15  17
ATOM     17  O   LIG A   1      -9.283   1.780 122.384  0.00  0.00    -0.477 OA
ATOM     18  H   LIG A   1      -9.077   2.487 123.030  0.00  0.00    +0.295 HD
ENDBRANCH  15  17
ENDBRANCH   6  15
BRANCH   7  19
ATOM     19  O   LIG A   1      -9.360   2.876 124.971  0.00  0.00    -0.506 OA
ATOM     20  H   LIG A   1      -8.987   3.091 124.090  0.00  0.00    +0.292 HD
ENDBRANCH   7  19
TORSDOF 4
ENDMDL
MODEL 3
REMARK VINA RESULT:      -5.8      8.584     10.406
REMARK  Name = NuBBE_593
REMARK  5 active torsions:
REMARK  status: ('A' for Active; 'I' for Inactive)
REMARK    1  A    between atoms: C_1  and  C_2
REMARK    2  A    between atoms: C_5  and  O_7
REMARK    3  A    between atoms: C_9  and  C_10
REMARK    4  A    between atoms: C_10  and  O_11
REMARK    5  A    between atoms: C_13  and  O_14
REMARK                            x       y       z     vdW  Elec       q    Type
REMARK                         _______ _______ _______ _____ _____    ______ ____
ROOT
ATOM      1  C   LIG A   1      -6.750  -2.787 123.850  0.00  0.00    +0.055 C 
ATOM      2  C   LIG A   1      -7.624  -2.336 125.024  0.00  0.00    +0.207 C 
ATOM      3  O   LIG A   1      -6.784  -1.813 126.067  0.00  0.00    -0.455 OA
ATOM      4  C   LIG A   1      -8.753  -1.353 124.662  0.00  0.00    +0.186 C 
ATOM      5  C   LIG A   1      -8.211   0.041 124.458  0.00  0.00    +0.016 A 
ATOM      6  C   LIG A   1      -8.906   1.051 123.757  0.00  0.00    +0.107 A 
ATOM      7  C   LIG A   1      -8.280   2.278 123.482  0.00  0.00    +0.131 A 
ATOM      8  C   LIG A   1      -7.017   2.557 123.989  0.00  0.00    +0.047 A 
ATOM      9  C   LIG A   1      -6.371   1.613 124.783  0.00  0.00    +0.019 A 
ATOM     10  C   LIG A   1      -6.963   0.363 125.023  0.00  0.00    +0.066 A 
ATOM     11  C   LIG A   1      -6.258  -0.571 125.945  0.00  0.00    +0.340 C 
ATOM     12  O   LIG A   1      -5.286  -0.214 126.595  0.00  0.00    -0.245 OA
ENDROOT
BRANCH   4  13
ATOM     13  O   LIG A   1      -9.431  -1.842 123.504  0.00  0.00    -0.384 OA
ATOM     14  H   LIG A   1     -10.381  -1.646 123.587  0.00  0.00    +0.210 HD
ENDBRANCH   4  13
BRANCH   6  15
ATOM     15  C   LIG A   1     -10.309   0.903 123.321  0.00  0.00    +0.341 C 
ATOM     16  O   LIG A   1     -10.648   0.388 122.270  0.00  0.00    -0.245 OA
BRANCH  15  17
ATOM     17  O   LIG A   1     -11.164   1.555 124.123  0.00  0.00    -0.477 OA
ATOM     18  H   LIG A   1     -10.672   1.716 124.955  0.00  0.00    +0.295 HD
ENDBRANCH  15  17
ENDBRANCH   6  15
BRANCH   7  19
ATOM     19  O   LIG A   1      -8.855   3.268 122.730  0.00  0.00    -0.506 OA
ATOM     20  H   LIG A   1      -9.721   2.957 122.388  0.00  0.00    +0.292 HD
ENDBRANCH   7  19
TORSDOF 4
ENDMDL
MODEL 4
REMARK VINA RESULT:      -5.7      8.362     10.788
REMARK  Name = NuBBE_593
REMARK  5 active torsions:
REMARK  status: ('A' for Active; 'I' for Inactive)
REMARK    1  A    between atoms: C_1  and  C_2
REMARK    2  A    between atoms: C_5  and  O_7
REMARK    3  A    between atoms: C_9  and  C_10
REMARK    4  A    between atoms: C_10  and  O_11
REMARK    5  A    between atoms: C_13  and  O_14
REMARK                            x       y       z     vdW  Elec       q    Type
REMARK                         _______ _______ _______ _____ _____    ______ ____
ROOT
ATOM      1  C   LIG A   1      -6.402  -0.834 127.170  0.00  0.00    +0.055 C 
ATOM      2  C   LIG A   1      -5.682  -0.178 125.989  0.00  0.00    +0.207 C 
ATOM      3  O   LIG A   1      -5.104  -1.200 125.160  0.00  0.00    -0.455 OA
ATOM      4  C   LIG A   1      -6.535   0.804 125.164  0.00  0.00    +0.186 C 
ATOM      5  C   LIG A   1      -7.478   0.061 124.248  0.00  0.00    +0.016 A 
ATOM      6  C   LIG A   1      -8.626   0.649 123.671  0.00  0.00    +0.107 A 
ATOM      7  C   LIG A   1      -9.535  -0.139 122.947  0.00  0.00    +0.131 A 
ATOM      8  C   LIG A   1      -9.264  -1.478 122.694  0.00  0.00    +0.047 A 
ATOM      9  C   LIG A   1      -8.076  -2.039 123.156  0.00  0.00    +0.019 A 
ATOM     10  C   LIG A   1      -7.183  -1.276 123.924  0.00  0.00    +0.066 A 
ATOM     11  C   LIG A   1      -5.894  -1.910 124.320  0.00  0.00    +0.340 C 
ATOM     12  O   LIG A   1      -5.549  -2.992 123.866  0.00  0.00    -0.245 OA
ENDROOT
BRANCH   4  13
ATOM     13  O   LIG A   1      -7.227   1.673 126.060  0.00  0.00    -0.384 OA
ATOM     14  H   LIG A   1      -7.040   1.398 126.975  0.00  0.00    +0.210 HD
ENDBRANCH   4  13
BRANCH   6  15
ATOM     15  C   LIG A   1      -8.911   2.095 123.753  0.00  0.00    +0.341 C 
ATOM     16  O   LIG A   1      -8.255   2.955 123.193  0.00  0.00    -0.245 OA
BRANCH  15  17
ATOM     17  O   LIG A   1      -9.864   2.378 124.654  0.00  0.00    -0.477 OA
ATOM     18  H   LIG A   1     -10.561   1.702 124.518  0.00  0.00    +0.295 HD
ENDBRANCH  15  17
ENDBRANCH   6  15
BRANCH   7  19
ATOM     19  O   LIG A   1     -10.713   0.340 122.440  0.00  0.00    -0.506 OA
ATOM     20  H   LIG A   1     -11.396  -0.364 122.477  0.00  0.00    +0.292 HD
ENDBRANCH   7  19
TORSDOF 4
ENDMDL
MODEL 5
REMARK VINA RESULT:      -5.6      9.484     10.696
REMARK  Name = NuBBE_593
REMARK  5 active torsions:
REMARK  status: ('A' for Active; 'I' for Inactive)
REMARK    1  A    between atoms: C_1  and  C_2
REMARK    2  A    between atoms: C_5  and  O_7
REMARK    3  A    between atoms: C_9  and  C_10
REMARK    4  A    between atoms: C_10  and  O_11
REMARK    5  A    between atoms: C_13  and  O_14
REMARK                            x       y       z     vdW  Elec       q    Type
REMARK                         _______ _______ _______ _____ _____    ______ ____
ROOT
ATOM      1  C   LIG A   1      -5.800  -2.647 123.463  0.00  0.00    +0.055 C 
ATOM      2  C   LIG A   1      -6.646  -1.422 123.820  0.00  0.00    +0.207 C 
ATOM      3  O   LIG A   1      -8.025  -1.694 123.518  0.00  0.00    -0.455 OA
ATOM      4  C   LIG A   1      -6.474  -0.904 125.261  0.00  0.00    +0.186 C 
ATOM      5  C   LIG A   1      -7.223  -1.776 126.240  0.00  0.00    +0.016 A 
ATOM      6  C   LIG A   1      -6.952  -1.797 127.627  0.00  0.00    +0.107 A 
ATOM      7  C   LIG A   1      -7.587  -2.736 128.456  0.00  0.00    +0.131 A 
ATOM      8  C   LIG A   1      -8.568  -3.579 127.948  0.00  0.00    +0.047 A 
ATOM      9  C   LIG A   1      -8.929  -3.484 126.606  0.00  0.00    +0.019 A 
ATOM     10  C   LIG A   1      -8.267  -2.585 125.755  0.00  0.00    +0.066 A 
ATOM     11  C   LIG A   1      -8.753  -2.475 124.351  0.00  0.00    +0.340 C 
ATOM     12  O   LIG A   1      -9.785  -3.021 123.989  0.00  0.00    -0.245 OA
ENDROOT
BRANCH   4  13
ATOM     13  O   LIG A   1      -5.080  -0.834 125.558  0.00  0.00    -0.384 OA
ATOM     14  H   LIG A   1      -4.846   0.089 125.763  0.00  0.00    +0.210 HD
ENDBRANCH   4  13
BRANCH   6  15
ATOM     15  C   LIG A   1      -6.044  -0.834 128.280  0.00  0.00    +0.341 C 
ATOM     16  O   LIG A   1      -6.285   0.354 128.410  0.00  0.00    -0.245 OA
BRANCH  15  17
ATOM     17  O   LIG A   1      -4.846  -1.368 128.558  0.00  0.00    -0.477 OA
ATOM     18  H   LIG A   1      -4.282  -0.616 128.834  0.00  0.00    +0.295 HD
ENDBRANCH  15  17
ENDBRANCH   6  15
BRANCH   7  19
ATOM     19  O   LIG A   1      -7.307  -2.878 129.789  0.00  0.00    -0.506 OA
ATOM     20  H   LIG A   1      -8.075  -3.287 130.243  0.00  0.00    +0.292 HD
ENDBRANCH   7  19
TORSDOF 4
ENDMDL
MODEL 6
REMARK VINA RESULT:      -5.5      9.531     11.601
REMARK  Name = NuBBE_593
REMARK  5 active torsions:
REMARK  status: ('A' for Active; 'I' for Inactive)
REMARK    1  A    between atoms: C_1  and  C_2
REMARK    2  A    between atoms: C_5  and  O_7
REMARK    3  A    between atoms: C_9  and  C_10
REMARK    4  A    between atoms: C_10  and  O_11
REMARK    5  A    between atoms: C_13  and  O_14
REMARK                            x       y       z     vdW  Elec       q    Type
REMARK                         _______ _______ _______ _____ _____    ______ ____
ROOT
ATOM      1  C   LIG A   1      -6.529   0.018 128.198  0.00  0.00    +0.055 C 
ATOM      2  C   LIG A   1      -5.805  -1.318 128.011  0.00  0.00    +0.207 C 
ATOM      3  O   LIG A   1      -6.452  -2.324 128.808  0.00  0.00    -0.455 OA
ATOM      4  C   LIG A   1      -5.639  -1.776 126.550  0.00  0.00    +0.186 C 
ATOM      5  C   LIG A   1      -6.932  -2.338 126.010  0.00  0.00    +0.016 A 
ATOM      6  C   LIG A   1      -7.206  -2.474 124.631  0.00  0.00    +0.107 A 
ATOM      7  C   LIG A   1      -8.482  -2.869 124.200  0.00  0.00    +0.131 A 
ATOM      8  C   LIG A   1      -9.457  -3.239 125.120  0.00  0.00    +0.047 A 
ATOM      9  C   LIG A   1      -9.159  -3.224 126.480  0.00  0.00    +0.019 A 
ATOM     10  C   LIG A   1      -7.903  -2.782 126.927  0.00  0.00    +0.066 A 
ATOM     11  C   LIG A   1      -7.619  -2.867 128.387  0.00  0.00    +0.340 C 
ATOM     12  O   LIG A   1      -8.379  -3.442 129.153  0.00  0.00    -0.245 OA
ENDROOT
BRANCH   4  13
ATOM     13  O   LIG A   1      -5.167  -0.672 125.776  0.00  0.00    -0.384 OA
ATOM     14  H   LIG A   1      -5.876  -0.008 125.707  0.00  0.00    +0.210 HD
ENDBRANCH   4  13
BRANCH   6  15
ATOM     15  C   LIG A   1      -6.184  -2.258 123.587  0.00  0.00    +0.341 C 
ATOM     16  O   LIG A   1      -5.177  -2.932 123.465  0.00  0.00    -0.245 OA
BRANCH  15  17
ATOM     17  O   LIG A   1      -6.393  -1.128 122.895  0.00  0.00    -0.477 OA
ATOM     18  H   LIG A   1      -7.336  -0.903 123.039  0.00  0.00    +0.295 HD
ENDBRANCH  15  17
ENDBRANCH   6  15
BRANCH   7  19
ATOM     19  O   LIG A   1      -8.849  -2.932 122.882  0.00  0.00    -0.506 OA
ATOM     20  H   LIG A   1      -8.209  -2.423 122.339  0.00  0.00    +0.292 HD
ENDBRANCH   7  19
TORSDOF 4
ENDMDL
MODEL 7
REMARK VINA RESULT:      -5.4      7.931     10.374
REMARK  Name = NuBBE_593
REMARK  5 active torsions:
REMARK  status: ('A' for Active; 'I' for Inactive)
REMARK    1  A    between atoms: C_1  and  C_2
REMARK    2  A    between atoms: C_5  and  O_7
REMARK    3  A    between atoms: C_9  and  C_10
REMARK    4  A    between atoms: C_10  and  O_11
REMARK    5  A    between atoms: C_13  and  O_14
REMARK                            x       y       z     vdW  Elec       q    Type
REMARK                         _______ _______ _______ _____ _____    ______ ____
ROOT
ATOM      1  C   LIG A   1      -8.264   0.199 130.585  0.00  0.00    +0.055 C 
ATOM      2  C   LIG A   1      -7.024  -0.010 129.711  0.00  0.00    +0.207 C 
ATOM      3  O   LIG A   1      -6.328  -1.188 130.152  0.00  0.00    -0.455 OA
ATOM      4  C   LIG A   1      -7.289  -0.044 128.194  0.00  0.00    +0.186 C 
ATOM      5  C   LIG A   1      -7.874  -1.372 127.778  0.00  0.00    +0.016 A 
ATOM      6  C   LIG A   1      -8.569  -1.570 126.564  0.00  0.00    +0.107 A 
ATOM      7  C   LIG A   1      -9.210  -2.793 126.308  0.00  0.00    +0.131 A 
ATOM      8  C   LIG A   1      -9.079  -3.858 127.190  0.00  0.00    +0.047 A 
ATOM      9  C   LIG A   1      -8.296  -3.713 128.333  0.00  0.00    +0.019 A 
ATOM     10  C   LIG A   1      -7.691  -2.480 128.626  0.00  0.00    +0.066 A 
ATOM     11  C   LIG A   1      -6.802  -2.412 129.820  0.00  0.00    +0.340 C 
ATOM     12  O   LIG A   1      -6.479  -3.419 130.433  0.00  0.00    -0.245 OA
ENDROOT
BRANCH   4  13
ATOM     13  O   LIG A   1      -8.140   1.050 127.854  0.00  0.00    -0.384 OA
ATOM     14  H   LIG A   1      -8.501   0.905 126.961  0.00  0.00    +0.210 HD
ENDBRANCH   4  13
BRANCH   6  15
ATOM     15  C   LIG A   1      -8.626  -0.549 125.499  0.00  0.00    +0.341 C 
ATOM     16  O   LIG A   1      -7.657  -0.157 124.874  0.00  0.00    -0.245 OA
BRANCH  15  17
ATOM     17  O   LIG A   1      -9.832   0.033 125.413  0.00  0.00    -0.477 OA
ATOM     18  H   LIG A   1     -10.213  -0.021 126.314  0.00  0.00    +0.295 HD
ENDBRANCH  15  17
ENDBRANCH   6  15
BRANCH   7  19
ATOM     19  O   LIG A   1      -9.979  -3.025 125.199  0.00  0.00    -0.506 OA
ATOM     20  H   LIG A   1     -10.779  -3.533 125.455  0.00  0.00    +0.292 HD
ENDBRANCH   7  19
TORSDOF 4
ENDMDL
MODEL 8
REMARK VINA RESULT:      -5.4      4.024      6.419
REMARK  Name = NuBBE_593
REMARK  5 active torsions:
REMARK  status: ('A' for Active; 'I' for Inactive)
REMARK    1  A    between atoms: C_1  and  C_2
REMARK    2  A    between atoms: C_5  and  O_7
REMARK    3  A    between atoms: C_9  and  C_10
REMARK    4  A    between atoms: C_10  and  O_11
REMARK    5  A    between atoms: C_13  and  O_14
REMARK                            x       y       z     vdW  Elec       q    Type
REMARK                         _______ _______ _______ _____ _____    ______ ____
ROOT
ATOM      1  C   LIG A   1      -4.150   4.234 131.436  0.00  0.00    +0.055 C 
ATOM      2  C   LIG A   1      -4.167   5.442 132.376  0.00  0.00    +0.207 C 
ATOM      3  O   LIG A   1      -4.115   6.649 131.597  0.00  0.00    -0.455 OA
ATOM      4  C   LIG A   1      -5.330   5.472 133.385  0.00  0.00    +0.186 C 
ATOM      5  C   LIG A   1      -6.614   5.903 132.717  0.00  0.00    +0.016 A 
ATOM      6  C   LIG A   1      -7.894   5.659 133.262  0.00  0.00    +0.107 A 
ATOM      7  C   LIG A   1      -9.047   5.959 132.518  0.00  0.00    +0.131 A 
ATOM      8  C   LIG A   1      -8.949   6.599 131.288  0.00  0.00    +0.047 A 
ATOM      9  C   LIG A   1      -7.696   6.952 130.796  0.00  0.00    +0.019 A 
ATOM     10  C   LIG A   1      -6.533   6.613 131.505  0.00  0.00    +0.066 A 
ATOM     11  C   LIG A   1      -5.229   7.090 130.965  0.00  0.00    +0.340 C 
ATOM     12  O   LIG A   1      -5.174   7.878 130.032  0.00  0.00    -0.245 OA
ENDROOT
BRANCH   4  13
ATOM     13  O   LIG A   1      -5.444   4.183 133.989  0.00  0.00    -0.384 OA
ATOM     14  H   LIG A   1      -4.844   4.139 134.755  0.00  0.00    +0.210 HD
ENDBRANCH   4  13
BRANCH   6  15
ATOM     15  C   LIG A   1      -8.097   5.130 134.625  0.00  0.00    +0.341 C 
ATOM     16  O   LIG A   1      -7.744   5.704 135.641  0.00  0.00    -0.245 OA
BRANCH  15  17
ATOM     17  O   LIG A   1      -8.550   3.868 134.622  0.00  0.00    -0.477 OA
ATOM     18  H   LIG A   1      -7.991   3.388 135.268  0.00  0.00    +0.295 HD
ENDBRANCH  15  17
ENDBRANCH   6  15
BRANCH   7  19
ATOM     19  O   LIG A   1     -10.316   5.665 132.941  0.00  0.00    -0.506 OA
ATOM     20  H   LIG A   1     -10.294   5.403 133.886  0.00  0.00    +0.292 HD
ENDBRANCH   7  19
TORSDOF 4
ENDMDL
MODEL 9
REMARK VINA RESULT:      -5.4      3.351      6.072
REMARK  Name = NuBBE_593
REMARK  5 active torsions:
REMARK  status: ('A' for Active; 'I' for Inactive)
REMARK    1  A    between atoms: C_1  and  C_2
REMARK    2  A    between atoms: C_5  and  O_7
REMARK    3  A    between atoms: C_9  and  C_10
REMARK    4  A    between atoms: C_10  and  O_11
REMARK    5  A    between atoms: C_13  and  O_14
REMARK                            x       y       z     vdW  Elec       q    Type
REMARK                         _______ _______ _______ _____ _____    ______ ____
ROOT
ATOM      1  C   LIG A   1      -6.656   2.121 129.459  0.00  0.00    +0.055 C 
ATOM      2  C   LIG A   1      -8.109   1.641 129.518  0.00  0.00    +0.207 C 
ATOM      3  O   LIG A   1      -8.242   0.666 130.566  0.00  0.00    -0.455 OA
ATOM      4  C   LIG A   1      -9.164   2.755 129.644  0.00  0.00    +0.186 C 
ATOM      5  C   LIG A   1      -9.224   3.284 131.056  0.00  0.00    +0.016 A 
ATOM      6  C   LIG A   1      -9.789   4.534 131.396  0.00  0.00    +0.107 A 
ATOM      7  C   LIG A   1      -9.681   5.025 132.707  0.00  0.00    +0.131 A 
ATOM      8  C   LIG A   1      -9.118   4.246 133.710  0.00  0.00    +0.047 A 
ATOM      9  C   LIG A   1      -8.665   2.963 133.412  0.00  0.00    +0.019 A 
ATOM     10  C   LIG A   1      -8.721   2.479 132.096  0.00  0.00    +0.066 A 
ATOM     11  C   LIG A   1      -8.295   1.071 131.857  0.00  0.00    +0.340 C 
ATOM     12  O   LIG A   1      -8.057   0.311 132.784  0.00  0.00    -0.245 OA
ENDROOT
BRANCH   4  13
ATOM     13  O   LIG A   1      -8.862   3.780 128.697  0.00  0.00    -0.384 OA
ATOM     14  H   LIG A   1      -9.253   3.541 127.837  0.00  0.00    +0.210 HD
ENDBRANCH   4  13
BRANCH   6  15
ATOM     15  C   LIG A   1     -10.546   5.357 130.433  0.00  0.00    +0.341 C 
ATOM     16  O   LIG A   1     -11.587   5.009 129.903  0.00  0.00    -0.245 OA
BRANCH  15  17
ATOM     17  O   LIG A   1      -9.876   6.460 130.066  0.00  0.00    -0.477 OA
ATOM     18  H   LIG A   1      -9.066   6.136 129.619  0.00  0.00    +0.295 HD
ENDBRANCH  15  17
ENDBRANCH   6  15
BRANCH   7  19
ATOM     19  O   LIG A   1     -10.121   6.265 133.088  0.00  0.00    -0.506 OA
ATOM     20  H   LIG A   1     -11.100   6.299 133.025  0.00  0.00    +0.292 HD
ENDBRANCH   7  19
TORSDOF 4
ENDMDL
