MODEL 1
REMARK VINA RESULT:      -7.8      0.000      0.000
REMARK  Name = NuBBE_76
REMARK  12 active torsions:
REMARK  status: ('A' for Active; 'I' for Inactive)
REMARK    1  A    between atoms: C_1  and  C_2
REMARK    2  A    between atoms: C_11  and  C_12
REMARK    3  A    between atoms: C_17  and  O_21
REMARK    4  A    between atoms: C_24  and  C_26
REMARK    5  A    between atoms: C_26  and  C_28
REMARK    6  A    between atoms: C_26  and  C_36
REMARK    7  A    between atoms: C_28  and  C_29
REMARK    8  A    between atoms: C_29  and  C_30
REMARK    9  A    between atoms: C_30  and  C_32
REMARK   10  A    between atoms: C_30  and  C_35
REMARK   11  A    between atoms: C_32  and  C_33
REMARK   12  A    between atoms: C_32  and  C_34
REMARK                            x       y       z     vdW  Elec       q    Type
REMARK                         _______ _______ _______ _____ _____    ______ ____
ROOT
ATOM      1  C   LIG A   1      -5.233   0.136 130.251  0.00  0.00    +0.012 C 
ATOM      2  C   LIG A   1      -5.894  -0.742 129.139  0.00  0.00    -0.026 C 
ATOM      3  C   LIG A   1      -7.304  -1.247 129.517  0.00  0.00    -0.001 C 
ATOM      4  C   LIG A   1      -7.406  -2.360 130.566  0.00  0.00    +0.000 C 
ATOM      5  C   LIG A   1      -6.408  -3.522 130.257  0.00  0.00    +0.003 C 
ATOM      6  C   LIG A   1      -5.555  -3.276 128.986  0.00  0.00    +0.005 C 
ATOM      7  C   LIG A   1      -4.905  -1.895 128.919  0.00  0.00    +0.007 C 
ATOM      8  C   LIG A   1      -5.630  -4.186 131.464  0.00  0.00    -0.008 C 
ATOM      9  C   LIG A   1      -5.501  -5.694 131.100  0.00  0.00    +0.016 C 
ATOM     10  C   LIG A   1      -6.360  -4.008 132.784  0.00  0.00    -0.065 C 
ATOM     11  C   LIG A   1      -7.249  -3.003 133.009  0.00  0.00    -0.027 C 
ATOM     12  C   LIG A   1      -7.539  -1.932 132.021  0.00  0.00    +0.031 C 
ATOM     13  C   LIG A   1      -5.803  -4.760 133.954  0.00  0.00    +0.062 C 
ATOM     14  C   LIG A   1      -4.374  -4.247 134.201  0.00  0.00    +0.119 C 
ATOM     15  C   LIG A   1      -3.511  -4.218 132.932  0.00  0.00    +0.032 C 
ATOM     16  C   LIG A   1      -4.220  -3.602 131.715  0.00  0.00    +0.013 C 
ATOM     17  C   LIG A   1      -8.123   0.032 129.639  0.00  0.00    +0.004 C 
ATOM     18  C   LIG A   1      -7.516   0.952 128.551  0.00  0.00    +0.004 C 
ATOM     19  C   LIG A   1      -6.296   0.186 127.917  0.00  0.00    -0.002 C 
ENDROOT
BRANCH  14  20
ATOM     20  O   LIG A   1      -3.729  -5.041 135.194  0.00  0.00    -0.392 OA
ATOM     21  H   LIG A   1      -2.770  -4.979 135.042  0.00  0.00    +0.210 HD
ENDBRANCH  14  20
BRANCH  19  22
ATOM     22  C   LIG A   1      -6.726  -0.458 126.516  0.00  0.00    -0.010 C 
ATOM     23  C   LIG A   1      -5.917   0.050 125.313  0.00  0.00    +0.008 C 
BRANCH  22  24
ATOM     24  C   LIG A   1      -8.249  -0.214 126.219  0.00  0.00    +0.004 C 
BRANCH  24  25
ATOM     25  C   LIG A   1      -9.106  -1.494 126.103  0.00  0.00    +0.004 C 
BRANCH  25  26
ATOM     26  C   LIG A   1      -8.342  -2.843 126.236  0.00  0.00    -0.011 C 
ATOM     27  C   LIG A   1      -8.919  -3.703 127.370  0.00  0.00    +0.007 C 
BRANCH  26  28
ATOM     28  C   LIG A   1      -8.215  -3.674 124.923  0.00  0.00    -0.014 C 
ATOM     29  C   LIG A   1      -9.287  -3.315 123.890  0.00  0.00    +0.007 C 
ATOM     30  C   LIG A   1      -6.822  -3.504 124.287  0.00  0.00    +0.007 C 
ENDBRANCH  26  28
ENDBRANCH  25  26
ENDBRANCH  24  25
ENDBRANCH  22  24
ENDBRANCH  19  22
TORSDOF 6
ENDMDL
MODEL 2
REMARK VINA RESULT:      -7.6      4.009      8.498
REMARK  Name = NuBBE_76
REMARK  12 active torsions:
REMARK  status: ('A' for Active; 'I' for Inactive)
REMARK    1  A    between atoms: C_1  and  C_2
REMARK    2  A    between atoms: C_11  and  C_12
REMARK    3  A    between atoms: C_17  and  O_21
REMARK    4  A    between atoms: C_24  and  C_26
REMARK    5  A    between atoms: C_26  and  C_28
REMARK    6  A    between atoms: C_26  and  C_36
REMARK    7  A    between atoms: C_28  and  C_29
REMARK    8  A    between atoms: C_29  and  C_30
REMARK    9  A    between atoms: C_30  and  C_32
REMARK   10  A    between atoms: C_30  and  C_35
REMARK   11  A    between atoms: C_32  and  C_33
REMARK   12  A    between atoms: C_32  and  C_34
REMARK                            x       y       z     vdW  Elec       q    Type
REMARK                         _______ _______ _______ _____ _____    ______ ____
ROOT
ATOM      1  C   LIG A   1      -6.492  -1.701 125.186  0.00  0.00    +0.012 C 
ATOM      2  C   LIG A   1      -7.274  -1.164 126.430  0.00  0.00    -0.026 C 
ATOM      3  C   LIG A   1      -8.791  -1.017 126.181  0.00  0.00    -0.001 C 
ATOM      4  C   LIG A   1      -9.260   0.138 125.291  0.00  0.00    +0.000 C 
ATOM      5  C   LIG A   1      -8.580   1.484 125.705  0.00  0.00    +0.003 C 
ATOM      6  C   LIG A   1      -7.598   1.333 126.895  0.00  0.00    +0.005 C 
ATOM      7  C   LIG A   1      -6.607   0.180 126.755  0.00  0.00    +0.007 C 
ATOM      8  C   LIG A   1      -8.096   2.464 124.561  0.00  0.00    -0.008 C 
ATOM      9  C   LIG A   1      -8.339   3.900 125.111  0.00  0.00    +0.016 C 
ATOM     10  C   LIG A   1      -8.852   2.248 123.262  0.00  0.00    -0.065 C 
ATOM     11  C   LIG A   1      -9.462   1.073 122.947  0.00  0.00    -0.027 C 
ATOM     12  C   LIG A   1      -9.386  -0.141 123.799  0.00  0.00    +0.031 C 
ATOM     13  C   LIG A   1      -8.601   3.249 122.176  0.00  0.00    +0.062 C 
ATOM     14  C   LIG A   1      -7.111   3.170 121.804  0.00  0.00    +0.119 C 
ATOM     15  C   LIG A   1      -6.177   3.231 123.021  0.00  0.00    +0.032 C 
ATOM     16  C   LIG A   1      -6.606   2.313 124.176  0.00  0.00    +0.013 C 
ATOM     17  C   LIG A   1      -9.254  -2.447 125.930  0.00  0.00    +0.004 C 
ATOM     18  C   LIG A   1      -8.347  -3.287 126.863  0.00  0.00    +0.004 C 
ATOM     19  C   LIG A   1      -7.326  -2.298 127.538  0.00  0.00    -0.002 C 
ENDROOT
BRANCH  14  20
ATOM     20  O   LIG A   1      -6.773   4.216 120.896  0.00  0.00    -0.392 OA
ATOM     21  H   LIG A   1      -7.405   4.179 120.157  0.00  0.00    +0.210 HD
ENDBRANCH  14  20
BRANCH  19  22
ATOM     22  C   LIG A   1      -7.801  -1.957 129.028  0.00  0.00    -0.010 C 
ATOM     23  C   LIG A   1      -6.969  -0.869 129.722  0.00  0.00    +0.008 C 
BRANCH  22  24
ATOM     24  C   LIG A   1      -7.790  -3.237 129.938  0.00  0.00    +0.004 C 
BRANCH  24  25
ATOM     25  C   LIG A   1      -6.512  -4.099 129.840  0.00  0.00    +0.004 C 
BRANCH  25  26
ATOM     26  C   LIG A   1      -5.450  -3.877 130.955  0.00  0.00    -0.011 C 
ATOM     27  C   LIG A   1      -5.345  -5.101 131.878  0.00  0.00    +0.007 C 
BRANCH  26  28
ATOM     28  C   LIG A   1      -4.039  -3.436 130.460  0.00  0.00    -0.014 C 
ATOM     29  C   LIG A   1      -3.969  -3.279 128.938  0.00  0.00    +0.007 C 
ATOM     30  C   LIG A   1      -3.602  -2.117 131.126  0.00  0.00    +0.007 C 
ENDBRANCH  26  28
ENDBRANCH  25  26
ENDBRANCH  24  25
ENDBRANCH  22  24
ENDBRANCH  19  22
TORSDOF 6
ENDMDL
MODEL 3
REMARK VINA RESULT:      -7.5      1.634      3.042
REMARK  Name = NuBBE_76
REMARK  12 active torsions:
REMARK  status: ('A' for Active; 'I' for Inactive)
REMARK    1  A    between atoms: C_1  and  C_2
REMARK    2  A    between atoms: C_11  and  C_12
REMARK    3  A    between atoms: C_17  and  O_21
REMARK    4  A    between atoms: C_24  and  C_26
REMARK    5  A    between atoms: C_26  and  C_28
REMARK    6  A    between atoms: C_26  and  C_36
REMARK    7  A    between atoms: C_28  and  C_29
REMARK    8  A    between atoms: C_29  and  C_30
REMARK    9  A    between atoms: C_30  and  C_32
REMARK   10  A    between atoms: C_30  and  C_35
REMARK   11  A    between atoms: C_32  and  C_33
REMARK   12  A    between atoms: C_32  and  C_34
REMARK                            x       y       z     vdW  Elec       q    Type
REMARK                         _______ _______ _______ _____ _____    ______ ____
ROOT
ATOM      1  C   LIG A   1      -8.017   0.879 128.830  0.00  0.00    +0.012 C 
ATOM      2  C   LIG A   1      -7.208   0.556 127.531  0.00  0.00    -0.026 C 
ATOM      3  C   LIG A   1      -7.626  -0.774 126.866  0.00  0.00    -0.001 C 
ATOM      4  C   LIG A   1      -7.201  -2.078 127.548  0.00  0.00    +0.000 C 
ATOM      5  C   LIG A   1      -5.689  -2.046 127.940  0.00  0.00    +0.003 C 
ATOM      6  C   LIG A   1      -4.986  -0.718 127.561  0.00  0.00    +0.005 C 
ATOM      7  C   LIG A   1      -5.741   0.540 127.984  0.00  0.00    +0.007 C 
ATOM      8  C   LIG A   1      -5.262  -2.651 129.339  0.00  0.00    -0.008 C 
ATOM      9  C   LIG A   1      -3.868  -3.304 129.104  0.00  0.00    +0.016 C 
ATOM     10  C   LIG A   1      -6.260  -3.674 129.850  0.00  0.00    -0.065 C 
ATOM     11  C   LIG A   1      -7.564  -3.695 129.461  0.00  0.00    -0.027 C 
ATOM     12  C   LIG A   1      -8.165  -2.676 128.564  0.00  0.00    +0.031 C 
ATOM     13  C   LIG A   1      -5.855  -4.441 131.071  0.00  0.00    +0.062 C 
ATOM     14  C   LIG A   1      -5.675  -3.432 132.218  0.00  0.00    +0.119 C 
ATOM     15  C   LIG A   1      -4.796  -2.232 131.839  0.00  0.00    +0.032 C 
ATOM     16  C   LIG A   1      -5.149  -1.612 130.478  0.00  0.00    +0.013 C 
ATOM     17  C   LIG A   1      -9.073  -0.530 126.455  0.00  0.00    +0.004 C 
ATOM     18  C   LIG A   1      -9.089   0.970 126.071  0.00  0.00    +0.004 C 
ATOM     19  C   LIG A   1      -7.658   1.548 126.379  0.00  0.00    -0.002 C 
ENDROOT
BRANCH  14  20
ATOM     20  O   LIG A   1      -5.125  -4.079 133.364  0.00  0.00    -0.392 OA
ATOM     21  H   LIG A   1      -4.711  -4.906 133.063  0.00  0.00    +0.210 HD
ENDBRANCH  14  20
BRANCH  19  22
ATOM     22  C   LIG A   1      -6.812   1.658 125.025  0.00  0.00    -0.010 C 
ATOM     23  C   LIG A   1      -6.389   3.089 124.659  0.00  0.00    +0.008 C 
BRANCH  22  24
ATOM     24  C   LIG A   1      -7.601   1.055 123.808  0.00  0.00    +0.004 C 
BRANCH  24  25
ATOM     25  C   LIG A   1      -6.972  -0.209 123.181  0.00  0.00    +0.004 C 
BRANCH  25  26
ATOM     26  C   LIG A   1      -7.659  -1.560 123.534  0.00  0.00    -0.011 C 
ATOM     27  C   LIG A   1      -8.813  -1.869 122.569  0.00  0.00    +0.007 C 
BRANCH  26  28
ATOM     28  C   LIG A   1      -6.703  -2.785 123.661  0.00  0.00    -0.014 C 
ATOM     29  C   LIG A   1      -5.352  -2.419 124.284  0.00  0.00    +0.007 C 
ATOM     30  C   LIG A   1      -7.350  -3.916 124.483  0.00  0.00    +0.007 C 
ENDBRANCH  26  28
ENDBRANCH  25  26
ENDBRANCH  24  25
ENDBRANCH  22  24
ENDBRANCH  19  22
TORSDOF 6
ENDMDL
MODEL 4
REMARK VINA RESULT:      -7.4      1.628      3.039
REMARK  Name = NuBBE_76
REMARK  12 active torsions:
REMARK  status: ('A' for Active; 'I' for Inactive)
REMARK    1  A    between atoms: C_1  and  C_2
REMARK    2  A    between atoms: C_11  and  C_12
REMARK    3  A    between atoms: C_17  and  O_21
REMARK    4  A    between atoms: C_24  and  C_26
REMARK    5  A    between atoms: C_26  and  C_28
REMARK    6  A    between atoms: C_26  and  C_36
REMARK    7  A    between atoms: C_28  and  C_29
REMARK    8  A    between atoms: C_29  and  C_30
REMARK    9  A    between atoms: C_30  and  C_32
REMARK   10  A    between atoms: C_30  and  C_35
REMARK   11  A    between atoms: C_32  and  C_33
REMARK   12  A    between atoms: C_32  and  C_34
REMARK                            x       y       z     vdW  Elec       q    Type
REMARK                         _______ _______ _______ _____ _____    ______ ____
ROOT
ATOM      1  C   LIG A   1      -3.971  -3.397 128.928  0.00  0.00    +0.012 C 
ATOM      2  C   LIG A   1      -5.428  -2.992 129.325  0.00  0.00    -0.026 C 
ATOM      3  C   LIG A   1      -5.513  -1.613 130.015  0.00  0.00    -0.001 C 
ATOM      4  C   LIG A   1      -5.008  -1.503 131.457  0.00  0.00    +0.000 C 
ATOM      5  C   LIG A   1      -5.571  -2.661 132.344  0.00  0.00    +0.003 C 
ATOM      6  C   LIG A   1      -6.487  -3.639 131.566  0.00  0.00    +0.005 C 
ATOM      7  C   LIG A   1      -5.908  -4.128 130.240  0.00  0.00    +0.007 C 
ATOM      8  C   LIG A   1      -4.601  -3.346 133.391  0.00  0.00    -0.008 C 
ATOM      9  C   LIG A   1      -5.492  -3.695 134.619  0.00  0.00    +0.016 C 
ATOM     10  C   LIG A   1      -3.455  -2.434 133.794  0.00  0.00    -0.065 C 
ATOM     11  C   LIG A   1      -3.012  -1.413 133.012  0.00  0.00    -0.027 C 
ATOM     12  C   LIG A   1      -3.544  -1.133 131.654  0.00  0.00    +0.031 C 
ATOM     13  C   LIG A   1      -2.591  -2.916 134.918  0.00  0.00    +0.062 C 
ATOM     14  C   LIG A   1      -1.932  -4.232 134.469  0.00  0.00    +0.119 C 
ATOM     15  C   LIG A   1      -2.930  -5.244 133.890  0.00  0.00    +0.032 C 
ATOM     16  C   LIG A   1      -3.914  -4.634 132.880  0.00  0.00    +0.013 C 
ATOM     17  C   LIG A   1      -5.046  -0.643 128.937  0.00  0.00    +0.004 C 
ATOM     18  C   LIG A   1      -5.578  -1.276 127.629  0.00  0.00    +0.004 C 
ATOM     19  C   LIG A   1      -6.247  -2.649 128.011  0.00  0.00    -0.002 C 
ENDROOT
BRANCH  14  20
ATOM     20  O   LIG A   1      -1.230  -4.829 135.557  0.00  0.00    -0.392 OA
ATOM     21  H   LIG A   1      -0.930  -4.111 136.141  0.00  0.00    +0.210 HD
ENDBRANCH  14  20
BRANCH  19  22
ATOM     22  C   LIG A   1      -7.838  -2.484 128.065  0.00  0.00    -0.010 C 
ATOM     23  C   LIG A   1      -8.600  -3.792 128.325  0.00  0.00    +0.008 C 
BRANCH  22  24
ATOM     24  C   LIG A   1      -8.392  -1.850 126.738  0.00  0.00    +0.004 C 
BRANCH  24  25
ATOM     25  C   LIG A   1      -9.169  -2.823 125.823  0.00  0.00    +0.004 C 
BRANCH  25  26
ATOM     26  C   LIG A   1      -8.454  -3.240 124.506  0.00  0.00    -0.011 C 
ATOM     27  C   LIG A   1      -9.412  -3.178 123.307  0.00  0.00    +0.007 C 
BRANCH  26  28
ATOM     28  C   LIG A   1      -7.128  -2.483 124.193  0.00  0.00    -0.014 C 
ATOM     29  C   LIG A   1      -5.893  -3.380 124.310  0.00  0.00    +0.007 C 
ATOM     30  C   LIG A   1      -7.164  -1.851 122.788  0.00  0.00    +0.007 C 
ENDBRANCH  26  28
ENDBRANCH  25  26
ENDBRANCH  24  25
ENDBRANCH  22  24
ENDBRANCH  19  22
TORSDOF 6
ENDMDL
MODEL 5
REMARK VINA RESULT:      -7.4      3.680      6.355
REMARK  Name = NuBBE_76
REMARK  12 active torsions:
REMARK  status: ('A' for Active; 'I' for Inactive)
REMARK    1  A    between atoms: C_1  and  C_2
REMARK    2  A    between atoms: C_11  and  C_12
REMARK    3  A    between atoms: C_17  and  O_21
REMARK    4  A    between atoms: C_24  and  C_26
REMARK    5  A    between atoms: C_26  and  C_28
REMARK    6  A    between atoms: C_26  and  C_36
REMARK    7  A    between atoms: C_28  and  C_29
REMARK    8  A    between atoms: C_29  and  C_30
REMARK    9  A    between atoms: C_30  and  C_32
REMARK   10  A    between atoms: C_30  and  C_35
REMARK   11  A    between atoms: C_32  and  C_33
REMARK   12  A    between atoms: C_32  and  C_34
REMARK                            x       y       z     vdW  Elec       q    Type
REMARK                         _______ _______ _______ _____ _____    ______ ____
ROOT
ATOM      1  C   LIG A   1      -5.187   0.392 132.734  0.00  0.00    +0.012 C 
ATOM      2  C   LIG A   1      -5.955  -0.263 131.540  0.00  0.00    -0.026 C 
ATOM      3  C   LIG A   1      -5.790   0.506 130.210  0.00  0.00    -0.001 C 
ATOM      4  C   LIG A   1      -6.531   1.838 130.059  0.00  0.00    +0.000 C 
ATOM      5  C   LIG A   1      -8.025   1.708 130.502  0.00  0.00    +0.003 C 
ATOM      6  C   LIG A   1      -8.397   0.286 130.993  0.00  0.00    +0.005 C 
ATOM      7  C   LIG A   1      -7.419  -0.311 132.003  0.00  0.00    +0.007 C 
ATOM      8  C   LIG A   1      -8.667   2.890 131.335  0.00  0.00    -0.008 C 
ATOM      9  C   LIG A   1     -10.150   2.974 130.866  0.00  0.00    +0.016 C 
ATOM     10  C   LIG A   1      -7.951   4.209 131.106  0.00  0.00    -0.065 C 
ATOM     11  C   LIG A   1      -6.659   4.287 130.686  0.00  0.00    -0.027 C 
ATOM     12  C   LIG A   1      -5.792   3.098 130.488  0.00  0.00    +0.031 C 
ATOM     13  C   LIG A   1      -8.596   5.424 131.700  0.00  0.00    +0.062 C 
ATOM     14  C   LIG A   1      -8.631   5.234 133.226  0.00  0.00    +0.119 C 
ATOM     15  C   LIG A   1      -9.202   3.876 133.656  0.00  0.00    +0.032 C 
ATOM     16  C   LIG A   1      -8.631   2.687 132.867  0.00  0.00    +0.013 C 
ATOM     17  C   LIG A   1      -4.299   0.392 129.914  0.00  0.00    +0.004 C 
ATOM     18  C   LIG A   1      -3.933  -1.014 130.449  0.00  0.00    +0.004 C 
ATOM     19  C   LIG A   1      -5.223  -1.608 131.127  0.00  0.00    -0.002 C 
ENDROOT
BRANCH  14  20
ATOM     20  O   LIG A   1      -9.385   6.279 133.836  0.00  0.00    -0.392 OA
ATOM     21  H   LIG A   1      -8.778   7.021 134.000  0.00  0.00    +0.210 HD
ENDBRANCH  14  20
BRANCH  19  22
ATOM     22  C   LIG A   1      -5.931  -2.647 130.136  0.00  0.00    -0.010 C 
ATOM     23  C   LIG A   1      -6.106  -4.057 130.720  0.00  0.00    +0.008 C 
BRANCH  22  24
ATOM     24  C   LIG A   1      -5.143  -2.772 128.783  0.00  0.00    +0.004 C 
BRANCH  24  25
ATOM     25  C   LIG A   1      -5.869  -2.196 127.547  0.00  0.00    +0.004 C 
BRANCH  25  26
ATOM     26  C   LIG A   1      -7.408  -2.012 127.682  0.00  0.00    -0.011 C 
ATOM     27  C   LIG A   1      -7.842  -0.602 127.258  0.00  0.00    +0.007 C 
BRANCH  26  28
ATOM     28  C   LIG A   1      -8.278  -3.095 126.973  0.00  0.00    -0.014 C 
ATOM     29  C   LIG A   1      -9.040  -3.981 127.962  0.00  0.00    +0.007 C 
ATOM     30  C   LIG A   1      -9.278  -2.453 125.993  0.00  0.00    +0.007 C 
ENDBRANCH  26  28
ENDBRANCH  25  26
ENDBRANCH  24  25
ENDBRANCH  22  24
ENDBRANCH  19  22
TORSDOF 6
ENDMDL
MODEL 6
REMARK VINA RESULT:      -7.4      3.120      7.072
REMARK  Name = NuBBE_76
REMARK  12 active torsions:
REMARK  status: ('A' for Active; 'I' for Inactive)
REMARK    1  A    between atoms: C_1  and  C_2
REMARK    2  A    between atoms: C_11  and  C_12
REMARK    3  A    between atoms: C_17  and  O_21
REMARK    4  A    between atoms: C_24  and  C_26
REMARK    5  A    between atoms: C_26  and  C_28
REMARK    6  A    between atoms: C_26  and  C_36
REMARK    7  A    between atoms: C_28  and  C_29
REMARK    8  A    between atoms: C_29  and  C_30
REMARK    9  A    between atoms: C_30  and  C_32
REMARK   10  A    between atoms: C_30  and  C_35
REMARK   11  A    between atoms: C_32  and  C_33
REMARK   12  A    between atoms: C_32  and  C_34
REMARK                            x       y       z     vdW  Elec       q    Type
REMARK                         _______ _______ _______ _____ _____    ______ ____
ROOT
ATOM      1  C   LIG A   1      -4.629  -3.183 128.920  0.00  0.00    +0.012 C 
ATOM      2  C   LIG A   1      -5.307  -2.011 129.702  0.00  0.00    -0.026 C 
ATOM      3  C   LIG A   1      -6.730  -2.348 130.197  0.00  0.00    -0.001 C 
ATOM      4  C   LIG A   1      -7.853  -2.405 129.156  0.00  0.00    +0.000 C 
ATOM      5  C   LIG A   1      -7.818  -1.157 128.216  0.00  0.00    +0.003 C 
ATOM      6  C   LIG A   1      -6.666  -0.174 128.546  0.00  0.00    +0.005 C 
ATOM      7  C   LIG A   1      -5.300  -0.834 128.716  0.00  0.00    +0.007 C 
ATOM      8  C   LIG A   1      -8.089  -1.371 126.671  0.00  0.00    -0.008 C 
ATOM      9  C   LIG A   1      -8.863  -0.104 126.203  0.00  0.00    +0.016 C 
ATOM     10  C   LIG A   1      -8.895  -2.629 126.399  0.00  0.00    -0.065 C 
ATOM     11  C   LIG A   1      -8.931  -3.685 127.257  0.00  0.00    -0.027 C 
ATOM     12  C   LIG A   1      -8.126  -3.754 128.503  0.00  0.00    +0.031 C 
ATOM     13  C   LIG A   1      -9.365  -2.821 124.990  0.00  0.00    +0.062 C 
ATOM     14  C   LIG A   1      -8.121  -2.928 124.093  0.00  0.00    +0.119 C 
ATOM     15  C   LIG A   1      -7.104  -1.802 124.329  0.00  0.00    +0.032 C 
ATOM     16  C   LIG A   1      -6.813  -1.532 125.813  0.00  0.00    +0.013 C 
ATOM     17  C   LIG A   1      -6.506  -3.488 131.183  0.00  0.00    +0.004 C 
ATOM     18  C   LIG A   1      -5.147  -3.137 131.835  0.00  0.00    +0.004 C 
ATOM     19  C   LIG A   1      -4.598  -1.851 131.112  0.00  0.00    -0.002 C 
ENDROOT
BRANCH  14  20
ATOM     20  O   LIG A   1      -8.502  -2.943 122.720  0.00  0.00    -0.392 OA
ATOM     21  H   LIG A   1      -7.745  -3.277 122.209  0.00  0.00    +0.210 HD
ENDBRANCH  14  20
BRANCH  19  22
ATOM     22  C   LIG A   1      -4.872  -0.559 132.017  0.00  0.00    -0.010 C 
ATOM     23  C   LIG A   1      -3.603   0.195 132.440  0.00  0.00    +0.008 C 
BRANCH  22  24
ATOM     24  C   LIG A   1      -5.676  -0.931 133.314  0.00  0.00    +0.004 C 
BRANCH  24  25
ATOM     25  C   LIG A   1      -7.085  -0.305 133.413  0.00  0.00    +0.004 C 
BRANCH  25  26
ATOM     26  C   LIG A   1      -7.562   0.505 132.173  0.00  0.00    -0.011 C 
ATOM     27  C   LIG A   1      -8.962   0.064 131.723  0.00  0.00    +0.007 C 
BRANCH  26  28
ATOM     28  C   LIG A   1      -7.490   2.056 132.316  0.00  0.00    -0.014 C 
ATOM     29  C   LIG A   1      -7.150   2.503 133.741  0.00  0.00    +0.007 C 
ATOM     30  C   LIG A   1      -6.465   2.660 131.337  0.00  0.00    +0.007 C 
ENDBRANCH  26  28
ENDBRANCH  25  26
ENDBRANCH  24  25
ENDBRANCH  22  24
ENDBRANCH  19  22
TORSDOF 6
ENDMDL
MODEL 7
REMARK VINA RESULT:      -7.2      4.618      8.607
REMARK  Name = NuBBE_76
REMARK  12 active torsions:
REMARK  status: ('A' for Active; 'I' for Inactive)
REMARK    1  A    between atoms: C_1  and  C_2
REMARK    2  A    between atoms: C_11  and  C_12
REMARK    3  A    between atoms: C_17  and  O_21
REMARK    4  A    between atoms: C_24  and  C_26
REMARK    5  A    between atoms: C_26  and  C_28
REMARK    6  A    between atoms: C_26  and  C_36
REMARK    7  A    between atoms: C_28  and  C_29
REMARK    8  A    between atoms: C_29  and  C_30
REMARK    9  A    between atoms: C_30  and  C_32
REMARK   10  A    between atoms: C_30  and  C_35
REMARK   11  A    between atoms: C_32  and  C_33
REMARK   12  A    between atoms: C_32  and  C_34
REMARK                            x       y       z     vdW  Elec       q    Type
REMARK                         _______ _______ _______ _____ _____    ______ ____
ROOT
ATOM      1  C   LIG A   1      -7.983   2.047 127.571  0.00  0.00    +0.012 C 
ATOM      2  C   LIG A   1      -6.463   1.710 127.718  0.00  0.00    -0.026 C 
ATOM      3  C   LIG A   1      -5.654   1.955 126.426  0.00  0.00    -0.001 C 
ATOM      4  C   LIG A   1      -5.840   0.967 125.269  0.00  0.00    +0.000 C 
ATOM      5  C   LIG A   1      -5.753  -0.512 125.768  0.00  0.00    +0.003 C 
ATOM      6  C   LIG A   1      -5.512  -0.630 127.295  0.00  0.00    +0.005 C 
ATOM      7  C   LIG A   1      -6.434   0.237 128.149  0.00  0.00    +0.007 C 
ATOM      8  C   LIG A   1      -6.768  -1.568 125.169  0.00  0.00    -0.008 C 
ATOM      9  C   LIG A   1      -5.972  -2.903 125.072  0.00  0.00    +0.016 C 
ATOM     10  C   LIG A   1      -7.294  -1.150 123.807  0.00  0.00    -0.065 C 
ATOM     11  C   LIG A   1      -7.323   0.145 123.390  0.00  0.00    -0.027 C 
ATOM     12  C   LIG A   1      -6.924   1.289 124.249  0.00  0.00    +0.031 C 
ATOM     13  C   LIG A   1      -8.112  -2.168 123.074  0.00  0.00    +0.062 C 
ATOM     14  C   LIG A   1      -9.359  -2.465 123.923  0.00  0.00    +0.119 C 
ATOM     15  C   LIG A   1      -9.034  -2.776 125.391  0.00  0.00    +0.032 C 
ATOM     16  C   LIG A   1      -8.036  -1.794 126.025  0.00  0.00    +0.013 C 
ATOM     17  C   LIG A   1      -5.772   3.459 126.209  0.00  0.00    +0.004 C 
ATOM     18  C   LIG A   1      -5.784   4.029 127.648  0.00  0.00    +0.004 C 
ATOM     19  C   LIG A   1      -5.776   2.805 128.638  0.00  0.00    -0.002 C 
ENDROOT
BRANCH  14  20
ATOM     20  O   LIG A   1     -10.093  -3.550 123.361  0.00  0.00    -0.392 OA
ATOM     21  H   LIG A   1      -9.553  -4.352 123.461  0.00  0.00    +0.210 HD
ENDBRANCH  14  20
BRANCH  19  22
ATOM     22  C   LIG A   1      -4.299   2.576 129.208  0.00  0.00    -0.010 C 
ATOM     23  C   LIG A   1      -4.250   2.167 130.688  0.00  0.00    +0.008 C 
BRANCH  22  24
ATOM     24  C   LIG A   1      -3.411   3.859 129.026  0.00  0.00    +0.004 C 
BRANCH  24  25
ATOM     25  C   LIG A   1      -3.214   4.706 130.303  0.00  0.00    +0.004 C 
BRANCH  25  26
ATOM     26  C   LIG A   1      -2.645   6.139 130.092  0.00  0.00    -0.011 C 
ATOM     27  C   LIG A   1      -2.216   6.360 128.634  0.00  0.00    +0.007 C 
BRANCH  26  28
ATOM     28  C   LIG A   1      -3.558   7.303 130.583  0.00  0.00    -0.014 C 
ATOM     29  C   LIG A   1      -5.018   6.873 130.762  0.00  0.00    +0.007 C 
ATOM     30  C   LIG A   1      -3.040   7.900 131.904  0.00  0.00    +0.007 C 
ENDBRANCH  26  28
ENDBRANCH  25  26
ENDBRANCH  24  25
ENDBRANCH  22  24
ENDBRANCH  19  22
TORSDOF 6
ENDMDL
MODEL 8
REMARK VINA RESULT:      -7.0      3.714      5.890
REMARK  Name = NuBBE_76
REMARK  12 active torsions:
REMARK  status: ('A' for Active; 'I' for Inactive)
REMARK    1  A    between atoms: C_1  and  C_2
REMARK    2  A    between atoms: C_11  and  C_12
REMARK    3  A    between atoms: C_17  and  O_21
REMARK    4  A    between atoms: C_24  and  C_26
REMARK    5  A    between atoms: C_26  and  C_28
REMARK    6  A    between atoms: C_26  and  C_36
REMARK    7  A    between atoms: C_28  and  C_29
REMARK    8  A    between atoms: C_29  and  C_30
REMARK    9  A    between atoms: C_30  and  C_32
REMARK   10  A    between atoms: C_30  and  C_35
REMARK   11  A    between atoms: C_32  and  C_33
REMARK   12  A    between atoms: C_32  and  C_34
REMARK                            x       y       z     vdW  Elec       q    Type
REMARK                         _______ _______ _______ _____ _____    ______ ____
ROOT
ATOM      1  C   LIG A   1      -4.843   2.181 129.196  0.00  0.00    +0.012 C 
ATOM      2  C   LIG A   1      -5.820   1.030 128.788  0.00  0.00    -0.026 C 
ATOM      3  C   LIG A   1      -7.011   1.514 127.932  0.00  0.00    -0.001 C 
ATOM      4  C   LIG A   1      -8.117   2.309 128.634  0.00  0.00    +0.000 C 
ATOM      5  C   LIG A   1      -8.566   1.608 129.957  0.00  0.00    +0.003 C 
ATOM      6  C   LIG A   1      -7.790   0.298 130.250  0.00  0.00    +0.005 C 
ATOM      7  C   LIG A   1      -6.274   0.418 130.120  0.00  0.00    +0.007 C 
ATOM      8  C   LIG A   1      -8.853   2.509 131.225  0.00  0.00    -0.008 C 
ATOM      9  C   LIG A   1     -10.036   1.822 131.968  0.00  0.00    +0.016 C 
ATOM     10  C   LIG A   1      -9.208   3.936 130.846  0.00  0.00    -0.065 C 
ATOM     11  C   LIG A   1      -8.830   4.505 129.670  0.00  0.00    -0.027 C 
ATOM     12  C   LIG A   1      -7.967   3.824 128.672  0.00  0.00    +0.031 C 
ATOM     13  C   LIG A   1      -9.680   4.818 131.961  0.00  0.00    +0.062 C 
ATOM     14  C   LIG A   1      -8.535   4.936 132.981  0.00  0.00    +0.119 C 
ATOM     15  C   LIG A   1      -7.941   3.580 133.386  0.00  0.00    +0.032 C 
ATOM     16  C   LIG A   1      -7.658   2.649 132.196  0.00  0.00    +0.013 C 
ATOM     17  C   LIG A   1      -6.352   2.030 126.659  0.00  0.00    +0.004 C 
ATOM     18  C   LIG A   1      -5.149   1.076 126.466  0.00  0.00    +0.004 C 
ATOM     19  C   LIG A   1      -5.112   0.109 127.707  0.00  0.00    -0.002 C 
ENDROOT
BRANCH  14  20
ATOM     20  O   LIG A   1      -8.981   5.625 134.147  0.00  0.00    -0.392 OA
ATOM     21  H   LIG A   1      -8.728   5.089 134.918  0.00  0.00    +0.210 HD
ENDBRANCH  14  20
BRANCH  19  22
ATOM     22  C   LIG A   1      -5.741  -1.309 127.311  0.00  0.00    -0.010 C 
ATOM     23  C   LIG A   1      -5.083  -2.508 128.009  0.00  0.00    +0.008 C 
BRANCH  22  24
ATOM     24  C   LIG A   1      -5.676  -1.549 125.760  0.00  0.00    +0.004 C 
BRANCH  24  25
ATOM     25  C   LIG A   1      -7.025  -1.415 125.020  0.00  0.00    +0.004 C 
BRANCH  25  26
ATOM     26  C   LIG A   1      -8.302  -1.486 125.906  0.00  0.00    -0.011 C 
ATOM     27  C   LIG A   1      -9.259  -0.324 125.603  0.00  0.00    +0.007 C 
BRANCH  26  28
ATOM     28  C   LIG A   1      -9.061  -2.848 125.881  0.00  0.00    -0.014 C 
ATOM     29  C   LIG A   1      -8.623  -3.747 124.722  0.00  0.00    +0.007 C 
ATOM     30  C   LIG A   1      -8.885  -3.610 127.208  0.00  0.00    +0.007 C 
ENDBRANCH  26  28
ENDBRANCH  25  26
ENDBRANCH  24  25
ENDBRANCH  22  24
ENDBRANCH  19  22
TORSDOF 6
ENDMDL
MODEL 9
REMARK VINA RESULT:      -6.9      3.622      6.943
REMARK  Name = NuBBE_76
REMARK  12 active torsions:
REMARK  status: ('A' for Active; 'I' for Inactive)
REMARK    1  A    between atoms: C_1  and  C_2
REMARK    2  A    between atoms: C_11  and  C_12
REMARK    3  A    between atoms: C_17  and  O_21
REMARK    4  A    between atoms: C_24  and  C_26
REMARK    5  A    between atoms: C_26  and  C_28
REMARK    6  A    between atoms: C_26  and  C_36
REMARK    7  A    between atoms: C_28  and  C_29
REMARK    8  A    between atoms: C_29  and  C_30
REMARK    9  A    between atoms: C_30  and  C_32
REMARK   10  A    between atoms: C_30  and  C_35
REMARK   11  A    between atoms: C_32  and  C_33
REMARK   12  A    between atoms: C_32  and  C_34
REMARK                            x       y       z     vdW  Elec       q    Type
REMARK                         _______ _______ _______ _____ _____    ______ ____
ROOT
ATOM      1  C   LIG A   1      -6.894   0.445 128.904  0.00  0.00    +0.012 C 
ATOM      2  C   LIG A   1      -6.225  -0.430 130.014  0.00  0.00    -0.026 C 
ATOM      3  C   LIG A   1      -7.242  -1.057 130.993  0.00  0.00    -0.001 C 
ATOM      4  C   LIG A   1      -7.911  -0.133 132.016  0.00  0.00    +0.000 C 
ATOM      5  C   LIG A   1      -6.860   0.775 132.733  0.00  0.00    +0.003 C 
ATOM      6  C   LIG A   1      -5.409   0.537 132.240  0.00  0.00    +0.005 C 
ATOM      7  C   LIG A   1      -5.251   0.522 130.722  0.00  0.00    +0.007 C 
ATOM      8  C   LIG A   1      -7.232   2.289 133.002  0.00  0.00    -0.008 C 
ATOM      9  C   LIG A   1      -6.573   2.645 134.367  0.00  0.00    +0.016 C 
ATOM     10  C   LIG A   1      -8.734   2.510 133.053  0.00  0.00    -0.065 C 
ATOM     11  C   LIG A   1      -9.625   1.679 132.446  0.00  0.00    -0.027 C 
ATOM     12  C   LIG A   1      -9.223   0.523 131.606  0.00  0.00    +0.031 C 
ATOM     13  C   LIG A   1      -9.188   3.868 133.489  0.00  0.00    +0.062 C 
ATOM     14  C   LIG A   1      -8.656   4.888 132.468  0.00  0.00    +0.119 C 
ATOM     15  C   LIG A   1      -7.158   4.728 132.174  0.00  0.00    +0.032 C 
ATOM     16  C   LIG A   1      -6.729   3.275 131.923  0.00  0.00    +0.013 C 
ATOM     17  C   LIG A   1      -8.065  -1.987 130.110  0.00  0.00    +0.004 C 
ATOM     18  C   LIG A   1      -7.034  -2.507 129.079  0.00  0.00    +0.004 C 
ATOM     19  C   LIG A   1      -5.674  -1.766 129.359  0.00  0.00    -0.002 C 
ENDROOT
BRANCH  14  20
ATOM     20  O   LIG A   1      -8.911   6.217 132.918  0.00  0.00    -0.392 OA
ATOM     21  H   LIG A   1      -9.395   6.154 133.760  0.00  0.00    +0.210 HD
ENDBRANCH  14  20
BRANCH  19  22
ATOM     22  C   LIG A   1      -4.689  -2.725 130.178  0.00  0.00    -0.010 C 
ATOM     23  C   LIG A   1      -3.257  -2.779 129.626  0.00  0.00    +0.008 C 
BRANCH  22  24
ATOM     24  C   LIG A   1      -5.244  -4.193 130.242  0.00  0.00    +0.004 C 
BRANCH  24  25
ATOM     25  C   LIG A   1      -5.563  -4.711 131.662  0.00  0.00    +0.004 C 
BRANCH  25  26
ATOM     26  C   LIG A   1      -5.603  -3.638 132.788  0.00  0.00    -0.011 C 
ATOM     27  C   LIG A   1      -6.916  -3.709 133.582  0.00  0.00    +0.007 C 
BRANCH  26  28
ATOM     28  C   LIG A   1      -4.376  -3.629 133.750  0.00  0.00    -0.014 C 
ATOM     29  C   LIG A   1      -3.544  -2.348 133.636  0.00  0.00    +0.007 C 
ATOM     30  C   LIG A   1      -4.813  -3.820 135.215  0.00  0.00    +0.007 C 
ENDBRANCH  26  28
ENDBRANCH  25  26
ENDBRANCH  24  25
ENDBRANCH  22  24
ENDBRANCH  19  22
TORSDOF 6
ENDMDL
