MODEL 1
REMARK VINA RESULT:      -7.6      0.000      0.000
REMARK  Name = NuBBE_285
REMARK  11 active torsions:
REMARK  status: ('A' for Active; 'I' for Inactive)
REMARK    1  A    between atoms: O_1  and  C_2
REMARK    2  A    between atoms: C_5  and  O_6
REMARK    3  A    between atoms: O_6  and  C_7
REMARK    4  A    between atoms: C_10  and  C_18
REMARK    5  A    between atoms: C_12  and  O_17
REMARK    6  A    between atoms: C_14  and  O_16
REMARK    7  A    between atoms: C_18  and  O_19
REMARK    8  A    between atoms: C_20  and  O_22
REMARK    9  A    between atoms: C_23  and  C_30
REMARK   10  A    between atoms: C_27  and  O_28
REMARK   11  A    between atoms: C_33  and  O_36
REMARK                            x       y       z     vdW  Elec       q    Type
REMARK                         _______ _______ _______ _____ _____    ______ ____
ROOT
ATOM      1  C   LIG A   1      -9.174   6.067 129.914  0.00  0.00    +0.135 A 
ATOM      2  C   LIG A   1      -8.643   4.777 129.779  0.00  0.00    +0.109 A 
ATOM      3  C   LIG A   1      -8.334   4.212 128.463  0.00  0.00    +0.238 A 
ATOM      4  C   LIG A   1      -7.765   2.831 128.411  0.00  0.00    +0.214 A 
ATOM      5  C   LIG A   1      -7.565   2.214 129.594  0.00  0.00    +0.181 A 
ATOM      6  O   LIG A   1      -7.854   2.747 130.839  0.00  0.00    -0.451 OA
ATOM      7  C   LIG A   1      -8.397   4.004 130.907  0.00  0.00    +0.146 A 
ATOM      8  C   LIG A   1      -8.704   4.502 132.176  0.00  0.00    +0.092 A 
ATOM      9  C   LIG A   1      -9.252   5.778 132.295  0.00  0.00    +0.124 A 
ATOM     10  C   LIG A   1      -9.477   6.569 131.174  0.00  0.00    +0.091 A 
ATOM     11  O   LIG A   1      -8.516   4.911 127.469  0.00  0.00    -0.283 OA
ENDROOT
BRANCH   5  12
ATOM     12  C   LIG A   1      -6.987   0.859 129.674  0.00  0.00    +0.021 A 
ATOM     13  C   LIG A   1      -5.596   0.675 129.662  0.00  0.00    +0.015 A 
ATOM     14  C   LIG A   1      -5.047  -0.610 129.743  0.00  0.00    +0.046 A 
ATOM     15  C   LIG A   1      -5.891  -1.711 129.835  0.00  0.00    +0.117 A 
ATOM     16  C   LIG A   1      -7.271  -1.548 129.845  0.00  0.00    +0.046 A 
ATOM     17  C   LIG A   1      -7.821  -0.265 129.763  0.00  0.00    +0.015 A 
BRANCH  15  18
ATOM     18  O   LIG A   1      -5.402  -2.981 129.916  0.00  0.00    -0.507 OA
ATOM     19  H   LIG A   1      -4.501  -2.994 129.555  0.00  0.00    +0.292 HD
ENDBRANCH  15  18
ENDBRANCH   5  12
BRANCH   1  20
ATOM     20  O   LIG A   1      -9.426   6.893 128.851  0.00  0.00    -0.506 OA
ATOM     21  H   LIG A   1      -8.735   7.589 128.833  0.00  0.00    +0.292 HD
ENDBRANCH   1  20
BRANCH   9  22
ATOM     22  O   LIG A   1      -9.592   6.298 133.508  0.00  0.00    -0.506 OA
ATOM     23  H   LIG A   1      -8.909   6.926 133.792  0.00  0.00    +0.292 HD
ENDBRANCH   9  22
BRANCH   4  24
ATOM     24  O   LIG A   1      -7.452   2.192 127.221  0.00  0.00    -0.453 OA
BRANCH  24  25
ATOM     25  C   LIG A   1      -8.484   1.620 126.404  0.00  0.00    +0.340 C 
ATOM     26  O   LIG A   1      -8.178   0.218 126.261  0.00  0.00    -0.331 OA
ATOM     27  C   LIG A   1      -9.145  -0.486 125.472  0.00  0.00    +0.179 C 
ATOM     28  C   LIG A   1      -9.114   0.050 124.035  0.00  0.00    +0.177 C 
ATOM     29  C   LIG A   1      -9.458   1.534 124.066  0.00  0.00    +0.180 C 
ATOM     30  C   LIG A   1      -8.529   2.299 125.006  0.00  0.00    +0.214 C 
BRANCH  29  31
ATOM     31  O   LIG A   1      -9.366   2.067 122.735  0.00  0.00    -0.386 OA
ATOM     32  H   LIG A   1      -8.415   2.028 122.503  0.00  0.00    +0.210 HD
ENDBRANCH  29  31
BRANCH  28  33
ATOM     33  O   LIG A   1     -10.046  -0.630 123.189  0.00  0.00    -0.387 OA
ATOM     34  H   LIG A   1     -10.760  -0.930 123.792  0.00  0.00    +0.210 HD
ENDBRANCH  28  33
BRANCH  30  35
ATOM     35  O   LIG A   1      -8.986   3.663 125.009  0.00  0.00    -0.383 OA
ATOM     36  H   LIG A   1      -9.178   3.907 124.079  0.00  0.00    +0.210 HD
ENDBRANCH  30  35
BRANCH  27  37
ATOM     37  C   LIG A   1      -8.843  -1.989 125.530  0.00  0.00    +0.190 C 
BRANCH  37  38
ATOM     38  O   LIG A   1      -9.969  -2.791 125.192  0.00  0.00    -0.392 OA
ATOM     39  H   LIG A   1      -9.631  -3.580 124.715  0.00  0.00    +0.209 HD
ENDBRANCH  37  38
ENDBRANCH  27  37
ENDBRANCH  24  25
ENDBRANCH   4  24
TORSDOF 11
ENDMDL
MODEL 2
REMARK VINA RESULT:      -7.3      3.579      6.730
REMARK  Name = NuBBE_285
REMARK  11 active torsions:
REMARK  status: ('A' for Active; 'I' for Inactive)
REMARK    1  A    between atoms: O_1  and  C_2
REMARK    2  A    between atoms: C_5  and  O_6
REMARK    3  A    between atoms: O_6  and  C_7
REMARK    4  A    between atoms: C_10  and  C_18
REMARK    5  A    between atoms: C_12  and  O_17
REMARK    6  A    between atoms: C_14  and  O_16
REMARK    7  A    between atoms: C_18  and  O_19
REMARK    8  A    between atoms: C_20  and  O_22
REMARK    9  A    between atoms: C_23  and  C_30
REMARK   10  A    between atoms: C_27  and  O_28
REMARK   11  A    between atoms: C_33  and  O_36
REMARK                            x       y       z     vdW  Elec       q    Type
REMARK                         _______ _______ _______ _____ _____    ______ ____
ROOT
ATOM      1  C   LIG A   1      -8.727  -1.502 126.231  0.00  0.00    +0.135 A 
ATOM      2  C   LIG A   1      -7.874  -0.394 126.322  0.00  0.00    +0.109 A 
ATOM      3  C   LIG A   1      -8.029   0.764 125.438  0.00  0.00    +0.238 A 
ATOM      4  C   LIG A   1      -7.078   1.905 125.607  0.00  0.00    +0.214 A 
ATOM      5  C   LIG A   1      -6.153   1.783 126.581  0.00  0.00    +0.181 A 
ATOM      6  O   LIG A   1      -6.006   0.689 127.419  0.00  0.00    -0.451 OA
ATOM      7  C   LIG A   1      -6.855  -0.376 127.266  0.00  0.00    +0.146 A 
ATOM      8  C   LIG A   1      -6.662  -1.475 128.107  0.00  0.00    +0.092 A 
ATOM      9  C   LIG A   1      -7.505  -2.580 127.991  0.00  0.00    +0.124 A 
ATOM     10  C   LIG A   1      -8.545  -2.595 127.068  0.00  0.00    +0.091 A 
ATOM     11  O   LIG A   1      -8.954   0.764 124.631  0.00  0.00    -0.283 OA
ENDROOT
BRANCH   5  12
ATOM     12  C   LIG A   1      -5.175   2.851 126.861  0.00  0.00    +0.021 A 
ATOM     13  C   LIG A   1      -5.511   3.925 127.698  0.00  0.00    +0.015 A 
ATOM     14  C   LIG A   1      -4.581   4.936 127.968  0.00  0.00    +0.046 A 
ATOM     15  C   LIG A   1      -3.315   4.872 127.398  0.00  0.00    +0.117 A 
ATOM     16  C   LIG A   1      -2.965   3.817 126.564  0.00  0.00    +0.046 A 
ATOM     17  C   LIG A   1      -3.893   2.807 126.293  0.00  0.00    +0.015 A 
BRANCH  15  18
ATOM     18  O   LIG A   1      -2.377   5.834 127.633  0.00  0.00    -0.507 OA
ATOM     19  H   LIG A   1      -1.501   5.477 127.419  0.00  0.00    +0.292 HD
ENDBRANCH  15  18
ENDBRANCH   5  12
BRANCH   1  20
ATOM     20  O   LIG A   1      -9.764  -1.582 125.340  0.00  0.00    -0.506 OA
ATOM     21  H   LIG A   1      -9.389  -1.631 124.434  0.00  0.00    +0.292 HD
ENDBRANCH   1  20
BRANCH   9  22
ATOM     22  O   LIG A   1      -7.341  -3.686 128.772  0.00  0.00    -0.506 OA
ATOM     23  H   LIG A   1      -7.518  -4.481 128.244  0.00  0.00    +0.292 HD
ENDBRANCH   9  22
BRANCH   4  24
ATOM     24  O   LIG A   1      -7.121   3.043 124.816  0.00  0.00    -0.453 OA
BRANCH  24  25
ATOM     25  C   LIG A   1      -6.731   2.989 123.437  0.00  0.00    +0.340 C 
ATOM     26  O   LIG A   1      -5.694   3.974 123.254  0.00  0.00    -0.331 OA
ATOM     27  C   LIG A   1      -5.197   4.019 121.910  0.00  0.00    +0.179 C 
ATOM     28  C   LIG A   1      -6.318   4.481 120.970  0.00  0.00    +0.177 C 
ATOM     29  C   LIG A   1      -7.466   3.483 121.062  0.00  0.00    +0.180 C 
ATOM     30  C   LIG A   1      -7.934   3.307 122.504  0.00  0.00    +0.214 C 
BRANCH  29  31
ATOM     31  O   LIG A   1      -8.552   3.938 120.238  0.00  0.00    -0.386 OA
ATOM     32  H   LIG A   1      -8.190   4.685 119.718  0.00  0.00    +0.210 HD
ENDBRANCH  29  31
BRANCH  28  33
ATOM     33  O   LIG A   1      -5.878   4.567 119.612  0.00  0.00    -0.387 OA
ATOM     34  H   LIG A   1      -5.213   5.289 119.609  0.00  0.00    +0.210 HD
ENDBRANCH  28  33
BRANCH  30  35
ATOM     35  O   LIG A   1      -8.963   2.300 122.478  0.00  0.00    -0.383 OA
ATOM     36  H   LIG A   1      -9.421   2.331 123.346  0.00  0.00    +0.210 HD
ENDBRANCH  30  35
BRANCH  27  37
ATOM     37  C   LIG A   1      -3.981   4.953 121.855  0.00  0.00    +0.190 C 
BRANCH  37  38
ATOM     38  O   LIG A   1      -4.231   6.137 121.106  0.00  0.00    -0.392 OA
ATOM     39  H   LIG A   1      -3.459   6.731 121.236  0.00  0.00    +0.209 HD
ENDBRANCH  37  38
ENDBRANCH  27  37
ENDBRANCH  24  25
ENDBRANCH   4  24
TORSDOF 11
ENDMDL
MODEL 3
REMARK VINA RESULT:      -7.2      4.278      6.688
REMARK  Name = NuBBE_285
REMARK  11 active torsions:
REMARK  status: ('A' for Active; 'I' for Inactive)
REMARK    1  A    between atoms: O_1  and  C_2
REMARK    2  A    between atoms: C_5  and  O_6
REMARK    3  A    between atoms: O_6  and  C_7
REMARK    4  A    between atoms: C_10  and  C_18
REMARK    5  A    between atoms: C_12  and  O_17
REMARK    6  A    between atoms: C_14  and  O_16
REMARK    7  A    between atoms: C_18  and  O_19
REMARK    8  A    between atoms: C_20  and  O_22
REMARK    9  A    between atoms: C_23  and  C_30
REMARK   10  A    between atoms: C_27  and  O_28
REMARK   11  A    between atoms: C_33  and  O_36
REMARK                            x       y       z     vdW  Elec       q    Type
REMARK                         _______ _______ _______ _____ _____    ______ ____
ROOT
ATOM      1  C   LIG A   1     -10.547   7.002 127.349  0.00  0.00    +0.135 A 
ATOM      2  C   LIG A   1      -9.946   6.552 128.532  0.00  0.00    +0.109 A 
ATOM      3  C   LIG A   1      -8.947   5.481 128.522  0.00  0.00    +0.238 A 
ATOM      4  C   LIG A   1      -8.353   5.066 129.830  0.00  0.00    +0.214 A 
ATOM      5  C   LIG A   1      -8.778   5.729 130.925  0.00  0.00    +0.181 A 
ATOM      6  O   LIG A   1      -9.721   6.744 130.936  0.00  0.00    -0.451 OA
ATOM      7  C   LIG A   1     -10.293   7.125 129.750  0.00  0.00    +0.146 A 
ATOM      8  C   LIG A   1     -11.262   8.130 129.799  0.00  0.00    +0.092 A 
ATOM      9  C   LIG A   1     -11.867   8.553 128.616  0.00  0.00    +0.124 A 
ATOM     10  C   LIG A   1     -11.506   8.006 127.390  0.00  0.00    +0.091 A 
ATOM     11  O   LIG A   1      -8.612   5.003 127.441  0.00  0.00    -0.283 OA
ENDROOT
BRANCH   5  12
ATOM     12  C   LIG A   1      -8.249   5.428 132.269  0.00  0.00    +0.021 A 
ATOM     13  C   LIG A   1      -8.910   4.518 133.107  0.00  0.00    +0.015 A 
ATOM     14  C   LIG A   1      -8.405   4.228 134.381  0.00  0.00    +0.046 A 
ATOM     15  C   LIG A   1      -7.240   4.851 134.814  0.00  0.00    +0.117 A 
ATOM     16  C   LIG A   1      -6.574   5.757 133.998  0.00  0.00    +0.046 A 
ATOM     17  C   LIG A   1      -7.077   6.048 132.726  0.00  0.00    +0.015 A 
BRANCH  15  18
ATOM     18  O   LIG A   1      -6.712   4.599 136.046  0.00  0.00    -0.507 OA
ATOM     19  H   LIG A   1      -6.248   3.747 136.021  0.00  0.00    +0.292 HD
ENDBRANCH  15  18
ENDBRANCH   5  12
BRANCH   1  20
ATOM     20  O   LIG A   1     -10.242   6.500 126.111  0.00  0.00    -0.506 OA
ATOM     21  H   LIG A   1      -9.304   6.210 126.120  0.00  0.00    +0.292 HD
ENDBRANCH   1  20
BRANCH   9  22
ATOM     22  O   LIG A   1     -12.835   9.514 128.615  0.00  0.00    -0.506 OA
ATOM     23  H   LIG A   1     -12.929   9.874 127.719  0.00  0.00    +0.292 HD
ENDBRANCH   9  22
BRANCH   4  24
ATOM     24  O   LIG A   1      -7.413   4.053 129.941  0.00  0.00    -0.453 OA
BRANCH  24  25
ATOM     25  C   LIG A   1      -6.023   4.317 129.704  0.00  0.00    +0.340 C 
ATOM     26  O   LIG A   1      -5.830   5.737 129.867  0.00  0.00    -0.331 OA
ATOM     27  C   LIG A   1      -4.470   6.142 129.670  0.00  0.00    +0.179 C 
ATOM     28  C   LIG A   1      -4.067   5.877 128.213  0.00  0.00    +0.177 C 
ATOM     29  C   LIG A   1      -4.205   4.384 127.939  0.00  0.00    +0.180 C 
ATOM     30  C   LIG A   1      -5.610   3.887 128.268  0.00  0.00    +0.214 C 
BRANCH  29  31
ATOM     31  O   LIG A   1      -3.896   4.129 126.560  0.00  0.00    -0.386 OA
ATOM     32  H   LIG A   1      -3.263   3.381 126.567  0.00  0.00    +0.210 HD
ENDBRANCH  29  31
BRANCH  28  33
ATOM     33  O   LIG A   1      -2.721   6.282 127.947  0.00  0.00    -0.387 OA
ATOM     34  H   LIG A   1      -2.533   5.948 127.044  0.00  0.00    +0.210 HD
ENDBRANCH  28  33
BRANCH  30  35
ATOM     35  O   LIG A   1      -5.603   2.466 128.039  0.00  0.00    -0.383 OA
ATOM     36  H   LIG A   1      -6.383   2.094 128.503  0.00  0.00    +0.210 HD
ENDBRANCH  30  35
BRANCH  27  37
ATOM     37  C   LIG A   1      -4.328   7.624 130.044  0.00  0.00    +0.190 C 
BRANCH  37  38
ATOM     38  O   LIG A   1      -4.116   8.459 128.911  0.00  0.00    -0.392 OA
ATOM     39  H   LIG A   1      -4.324   9.379 129.186  0.00  0.00    +0.209 HD
ENDBRANCH  37  38
ENDBRANCH  27  37
ENDBRANCH  24  25
ENDBRANCH   4  24
TORSDOF 11
ENDMDL
MODEL 4
REMARK VINA RESULT:      -7.1      3.420      6.438
REMARK  Name = NuBBE_285
REMARK  11 active torsions:
REMARK  status: ('A' for Active; 'I' for Inactive)
REMARK    1  A    between atoms: O_1  and  C_2
REMARK    2  A    between atoms: C_5  and  O_6
REMARK    3  A    between atoms: O_6  and  C_7
REMARK    4  A    between atoms: C_10  and  C_18
REMARK    5  A    between atoms: C_12  and  O_17
REMARK    6  A    between atoms: C_14  and  O_16
REMARK    7  A    between atoms: C_18  and  O_19
REMARK    8  A    between atoms: C_20  and  O_22
REMARK    9  A    between atoms: C_23  and  C_30
REMARK   10  A    between atoms: C_27  and  O_28
REMARK   11  A    between atoms: C_33  and  O_36
REMARK                            x       y       z     vdW  Elec       q    Type
REMARK                         _______ _______ _______ _____ _____    ______ ____
ROOT
ATOM      1  C   LIG A   1      -6.156  -2.320 130.192  0.00  0.00    +0.135 A 
ATOM      2  C   LIG A   1      -5.668  -1.060 129.818  0.00  0.00    +0.109 A 
ATOM      3  C   LIG A   1      -6.520  -0.080 129.142  0.00  0.00    +0.238 A 
ATOM      4  C   LIG A   1      -5.919   1.241 128.784  0.00  0.00    +0.214 A 
ATOM      5  C   LIG A   1      -4.630   1.433 129.131  0.00  0.00    +0.181 A 
ATOM      6  O   LIG A   1      -3.822   0.508 129.772  0.00  0.00    -0.451 OA
ATOM      7  C   LIG A   1      -4.349  -0.718 130.090  0.00  0.00    +0.146 A 
ATOM      8  C   LIG A   1      -3.501  -1.638 130.711  0.00  0.00    +0.092 A 
ATOM      9  C   LIG A   1      -3.994  -2.895 131.057  0.00  0.00    +0.124 A 
ATOM     10  C   LIG A   1      -5.320  -3.238 130.814  0.00  0.00    +0.091 A 
ATOM     11  O   LIG A   1      -7.696  -0.369 128.938  0.00  0.00    -0.283 OA
ENDROOT
BRANCH   5  12
ATOM     12  C   LIG A   1      -3.932   2.703 128.854  0.00  0.00    +0.021 A 
ATOM     13  C   LIG A   1      -3.212   2.876 127.662  0.00  0.00    +0.015 A 
ATOM     14  C   LIG A   1      -2.555   4.083 127.397  0.00  0.00    +0.046 A 
ATOM     15  C   LIG A   1      -2.617   5.115 128.326  0.00  0.00    +0.117 A 
ATOM     16  C   LIG A   1      -3.323   4.961 129.513  0.00  0.00    +0.046 A 
ATOM     17  C   LIG A   1      -3.979   3.756 129.780  0.00  0.00    +0.015 A 
BRANCH  15  18
ATOM     18  O   LIG A   1      -1.992   6.309 128.110  0.00  0.00    -0.507 OA
ATOM     19  H   LIG A   1      -2.652   7.019 128.145  0.00  0.00    +0.292 HD
ENDBRANCH  15  18
ENDBRANCH   5  12
BRANCH   1  20
ATOM     20  O   LIG A   1      -7.448  -2.721 129.975  0.00  0.00    -0.506 OA
ATOM     21  H   LIG A   1      -7.984  -1.928 129.756  0.00  0.00    +0.292 HD
ENDBRANCH   1  20
BRANCH   9  22
ATOM     22  O   LIG A   1      -3.200  -3.837 131.641  0.00  0.00    -0.506 OA
ATOM     23  H   LIG A   1      -2.963  -4.511 130.984  0.00  0.00    +0.292 HD
ENDBRANCH   9  22
BRANCH   4  24
ATOM     24  O   LIG A   1      -6.627   2.236 128.128  0.00  0.00    -0.453 OA
BRANCH  24  25
ATOM     25  C   LIG A   1      -6.838   2.170 126.710  0.00  0.00    +0.340 C 
ATOM     26  O   LIG A   1      -6.302   3.385 126.148  0.00  0.00    -0.331 OA
ATOM     27  C   LIG A   1      -6.433   3.446 124.722  0.00  0.00    +0.179 C 
ATOM     28  C   LIG A   1      -7.922   3.490 124.352  0.00  0.00    +0.177 C 
ATOM     29  C   LIG A   1      -8.587   2.223 124.877  0.00  0.00    +0.180 C 
ATOM     30  C   LIG A   1      -8.352   2.053 126.376  0.00  0.00    +0.214 C 
BRANCH  29  31
ATOM     31  O   LIG A   1      -9.995   2.281 124.598  0.00  0.00    -0.386 OA
ATOM     32  H   LIG A   1     -10.125   1.737 123.794  0.00  0.00    +0.210 HD
ENDBRANCH  29  31
BRANCH  28  33
ATOM     33  O   LIG A   1      -8.121   3.574 122.938  0.00  0.00    -0.387 OA
ATOM     34  H   LIG A   1      -8.414   4.497 122.780  0.00  0.00    +0.210 HD
ENDBRANCH  28  33
BRANCH  30  35
ATOM     35  O   LIG A   1      -8.959   0.802 126.744  0.00  0.00    -0.383 OA
ATOM     36  H   LIG A   1      -8.375   0.087 126.413  0.00  0.00    +0.210 HD
ENDBRANCH  30  35
BRANCH  27  37
ATOM     37  C   LIG A   1      -5.677   4.674 124.200  0.00  0.00    +0.190 C 
BRANCH  37  38
ATOM     38  O   LIG A   1      -5.488   4.645 122.790  0.00  0.00    -0.392 OA
ATOM     39  H   LIG A   1      -5.286   3.715 122.543  0.00  0.00    +0.209 HD
ENDBRANCH  37  38
ENDBRANCH  27  37
ENDBRANCH  24  25
ENDBRANCH   4  24
TORSDOF 11
ENDMDL
MODEL 5
REMARK VINA RESULT:      -7.1      3.957      7.077
REMARK  Name = NuBBE_285
REMARK  11 active torsions:
REMARK  status: ('A' for Active; 'I' for Inactive)
REMARK    1  A    between atoms: O_1  and  C_2
REMARK    2  A    between atoms: C_5  and  O_6
REMARK    3  A    between atoms: O_6  and  C_7
REMARK    4  A    between atoms: C_10  and  C_18
REMARK    5  A    between atoms: C_12  and  O_17
REMARK    6  A    between atoms: C_14  and  O_16
REMARK    7  A    between atoms: C_18  and  O_19
REMARK    8  A    between atoms: C_20  and  O_22
REMARK    9  A    between atoms: C_23  and  C_30
REMARK   10  A    between atoms: C_27  and  O_28
REMARK   11  A    between atoms: C_33  and  O_36
REMARK                            x       y       z     vdW  Elec       q    Type
REMARK                         _______ _______ _______ _____ _____    ______ ____
ROOT
ATOM      1  C   LIG A   1      -5.200   3.851 126.038  0.00  0.00    +0.135 A 
ATOM      2  C   LIG A   1      -5.810   4.008 127.290  0.00  0.00    +0.109 A 
ATOM      3  C   LIG A   1      -7.258   4.189 127.416  0.00  0.00    +0.238 A 
ATOM      4  C   LIG A   1      -7.827   4.343 128.790  0.00  0.00    +0.214 A 
ATOM      5  C   LIG A   1      -6.953   4.289 129.816  0.00  0.00    +0.181 A 
ATOM      6  O   LIG A   1      -5.584   4.116 129.699  0.00  0.00    -0.451 OA
ATOM      7  C   LIG A   1      -5.040   3.993 128.446  0.00  0.00    +0.146 A 
ATOM      8  C   LIG A   1      -3.653   3.849 128.361  0.00  0.00    +0.092 A 
ATOM      9  C   LIG A   1      -3.057   3.716 127.108  0.00  0.00    +0.124 A 
ATOM     10  C   LIG A   1      -3.821   3.702 125.947  0.00  0.00    +0.091 A 
ATOM     11  O   LIG A   1      -7.942   4.162 126.396  0.00  0.00    -0.283 OA
ENDROOT
BRANCH   5  12
ATOM     12  C   LIG A   1      -7.395   4.404 131.219  0.00  0.00    +0.021 A 
ATOM     13  C   LIG A   1      -7.864   3.280 131.914  0.00  0.00    +0.015 A 
ATOM     14  C   LIG A   1      -8.279   3.388 133.246  0.00  0.00    +0.046 A 
ATOM     15  C   LIG A   1      -8.226   4.624 133.882  0.00  0.00    +0.117 A 
ATOM     16  C   LIG A   1      -7.768   5.749 133.208  0.00  0.00    +0.046 A 
ATOM     17  C   LIG A   1      -7.354   5.643 131.877  0.00  0.00    +0.015 A 
BRANCH  15  18
ATOM     18  O   LIG A   1      -8.619   4.777 135.179  0.00  0.00    -0.507 OA
ATOM     19  H   LIG A   1      -7.879   4.545 135.761  0.00  0.00    +0.292 HD
ENDBRANCH  15  18
ENDBRANCH   5  12
BRANCH   1  20
ATOM     20  O   LIG A   1      -5.895   3.836 124.858  0.00  0.00    -0.506 OA
ATOM     21  H   LIG A   1      -5.726   4.683 124.391  0.00  0.00    +0.292 HD
ENDBRANCH   1  20
BRANCH   9  22
ATOM     22  O   LIG A   1      -1.705   3.598 126.971  0.00  0.00    -0.506 OA
ATOM     23  H   LIG A   1      -1.271   4.346 127.410  0.00  0.00    +0.292 HD
ENDBRANCH   9  22
BRANCH   4  24
ATOM     24  O   LIG A   1      -9.180   4.537 129.026  0.00  0.00    -0.453 OA
BRANCH  24  25
ATOM     25  C   LIG A   1      -9.713   5.860 129.183  0.00  0.00    +0.340 C 
ATOM     26  O   LIG A   1     -10.616   5.819 130.306  0.00  0.00    -0.331 OA
ATOM     27  C   LIG A   1     -11.215   7.090 130.587  0.00  0.00    +0.179 C 
ATOM     28  C   LIG A   1     -12.106   7.502 129.407  0.00  0.00    +0.177 C 
ATOM     29  C   LIG A   1     -11.237   7.607 128.160  0.00  0.00    +0.180 C 
ATOM     30  C   LIG A   1     -10.475   6.309 127.904  0.00  0.00    +0.214 C 
BRANCH  29  31
ATOM     31  O   LIG A   1     -12.068   7.926 127.033  0.00  0.00    -0.386 OA
ATOM     32  H   LIG A   1     -12.151   8.902 127.036  0.00  0.00    +0.210 HD
ENDBRANCH  29  31
BRANCH  28  33
ATOM     33  O   LIG A   1     -12.752   8.758 129.637  0.00  0.00    -0.387 OA
ATOM     34  H   LIG A   1     -13.585   8.530 130.103  0.00  0.00    +0.210 HD
ENDBRANCH  28  33
BRANCH  30  35
ATOM     35  O   LIG A   1      -9.643   6.545 126.754  0.00  0.00    -0.383 OA
ATOM     36  H   LIG A   1      -8.917   5.886 126.781  0.00  0.00    +0.210 HD
ENDBRANCH  30  35
BRANCH  27  37
ATOM     37  C   LIG A   1     -12.007   6.994 131.897  0.00  0.00    +0.190 C 
BRANCH  37  38
ATOM     38  O   LIG A   1     -13.409   7.152 131.706  0.00  0.00    -0.392 OA
ATOM     39  H   LIG A   1     -13.851   6.419 132.187  0.00  0.00    +0.209 HD
ENDBRANCH  37  38
ENDBRANCH  27  37
ENDBRANCH  24  25
ENDBRANCH   4  24
TORSDOF 11
ENDMDL
MODEL 6
REMARK VINA RESULT:      -7.1      2.233      6.979
REMARK  Name = NuBBE_285
REMARK  11 active torsions:
REMARK  status: ('A' for Active; 'I' for Inactive)
REMARK    1  A    between atoms: O_1  and  C_2
REMARK    2  A    between atoms: C_5  and  O_6
REMARK    3  A    between atoms: O_6  and  C_7
REMARK    4  A    between atoms: C_10  and  C_18
REMARK    5  A    between atoms: C_12  and  O_17
REMARK    6  A    between atoms: C_14  and  O_16
REMARK    7  A    between atoms: C_18  and  O_19
REMARK    8  A    between atoms: C_20  and  O_22
REMARK    9  A    between atoms: C_23  and  C_30
REMARK   10  A    between atoms: C_27  and  O_28
REMARK   11  A    between atoms: C_33  and  O_36
REMARK                            x       y       z     vdW  Elec       q    Type
REMARK                         _______ _______ _______ _____ _____    ______ ____
ROOT
ATOM      1  C   LIG A   1      -7.877   2.995 124.603  0.00  0.00    +0.135 A 
ATOM      2  C   LIG A   1      -7.741   2.828 125.988  0.00  0.00    +0.109 A 
ATOM      3  C   LIG A   1      -7.967   3.937 126.917  0.00  0.00    +0.238 A 
ATOM      4  C   LIG A   1      -7.806   3.669 128.379  0.00  0.00    +0.214 A 
ATOM      5  C   LIG A   1      -7.476   2.409 128.730  0.00  0.00    +0.181 A 
ATOM      6  O   LIG A   1      -7.264   1.358 127.853  0.00  0.00    -0.451 OA
ATOM      7  C   LIG A   1      -7.386   1.589 126.507  0.00  0.00    +0.146 A 
ATOM      8  C   LIG A   1      -7.138   0.516 125.648  0.00  0.00    +0.092 A 
ATOM      9  C   LIG A   1      -7.255   0.702 124.271  0.00  0.00    +0.124 A 
ATOM     10  C   LIG A   1      -7.636   1.931 123.743  0.00  0.00    +0.091 A 
ATOM     11  O   LIG A   1      -8.319   5.021 126.460  0.00  0.00    -0.283 OA
ENDROOT
BRANCH   5  12
ATOM     12  C   LIG A   1      -7.312   2.015 130.142  0.00  0.00    +0.021 A 
ATOM     13  C   LIG A   1      -8.356   1.381 130.832  0.00  0.00    +0.015 A 
ATOM     14  C   LIG A   1      -8.198   1.002 132.170  0.00  0.00    +0.046 A 
ATOM     15  C   LIG A   1      -6.996   1.260 132.818  0.00  0.00    +0.117 A 
ATOM     16  C   LIG A   1      -5.952   1.889 132.152  0.00  0.00    +0.046 A 
ATOM     17  C   LIG A   1      -6.107   2.269 130.815  0.00  0.00    +0.015 A 
BRANCH  15  18
ATOM     18  O   LIG A   1      -6.797   0.909 134.121  0.00  0.00    -0.507 OA
ATOM     19  H   LIG A   1      -7.517   0.321 134.401  0.00  0.00    +0.292 HD
ENDBRANCH  15  18
ENDBRANCH   5  12
BRANCH   1  20
ATOM     20  O   LIG A   1      -8.242   4.180 124.020  0.00  0.00    -0.506 OA
ATOM     21  H   LIG A   1      -9.106   4.454 124.395  0.00  0.00    +0.292 HD
ENDBRANCH   1  20
BRANCH   9  22
ATOM     22  O   LIG A   1      -6.999  -0.307 123.391  0.00  0.00    -0.506 OA
ATOM     23  H   LIG A   1      -7.311  -0.051 122.508  0.00  0.00    +0.292 HD
ENDBRANCH   9  22
BRANCH   4  24
ATOM     24  O   LIG A   1      -7.978   4.647 129.347  0.00  0.00    -0.453 OA
BRANCH  24  25
ATOM     25  C   LIG A   1      -9.217   4.757 130.062  0.00  0.00    +0.340 C 
ATOM     26  O   LIG A   1     -10.092   5.579 129.264  0.00  0.00    -0.331 OA
ATOM     27  C   LIG A   1     -11.383   5.762 129.859  0.00  0.00    +0.179 C 
ATOM     28  C   LIG A   1     -11.230   6.545 131.170  0.00  0.00    +0.177 C 
ATOM     29  C   LIG A   1     -10.338   5.742 132.110  0.00  0.00    +0.180 C 
ATOM     30  C   LIG A   1      -9.000   5.411 131.456  0.00  0.00    +0.214 C 
BRANCH  29  31
ATOM     31  O   LIG A   1     -10.130   6.494 133.317  0.00  0.00    -0.386 OA
ATOM     32  H   LIG A   1      -9.268   6.944 133.199  0.00  0.00    +0.210 HD
ENDBRANCH  29  31
BRANCH  28  33
ATOM     33  O   LIG A   1     -12.491   6.779 131.804  0.00  0.00    -0.387 OA
ATOM     34  H   LIG A   1     -12.933   5.903 131.816  0.00  0.00    +0.210 HD
ENDBRANCH  28  33
BRANCH  30  35
ATOM     35  O   LIG A   1      -8.275   4.601 132.400  0.00  0.00    -0.383 OA
ATOM     36  H   LIG A   1      -8.914   4.316 133.087  0.00  0.00    +0.210 HD
ENDBRANCH  30  35
BRANCH  27  37
ATOM     37  C   LIG A   1     -12.299   6.485 128.863  0.00  0.00    +0.190 C 
BRANCH  37  38
ATOM     38  O   LIG A   1     -12.429   7.874 129.144  0.00  0.00    -0.392 OA
ATOM     39  H   LIG A   1     -13.247   8.185 128.696  0.00  0.00    +0.209 HD
ENDBRANCH  37  38
ENDBRANCH  27  37
ENDBRANCH  24  25
ENDBRANCH   4  24
TORSDOF 11
ENDMDL
MODEL 7
REMARK VINA RESULT:      -7.1      3.161      6.460
REMARK  Name = NuBBE_285
REMARK  11 active torsions:
REMARK  status: ('A' for Active; 'I' for Inactive)
REMARK    1  A    between atoms: O_1  and  C_2
REMARK    2  A    between atoms: C_5  and  O_6
REMARK    3  A    between atoms: O_6  and  C_7
REMARK    4  A    between atoms: C_10  and  C_18
REMARK    5  A    between atoms: C_12  and  O_17
REMARK    6  A    between atoms: C_14  and  O_16
REMARK    7  A    between atoms: C_18  and  O_19
REMARK    8  A    between atoms: C_20  and  O_22
REMARK    9  A    between atoms: C_23  and  C_30
REMARK   10  A    between atoms: C_27  and  O_28
REMARK   11  A    between atoms: C_33  and  O_36
REMARK                            x       y       z     vdW  Elec       q    Type
REMARK                         _______ _______ _______ _____ _____    ______ ____
ROOT
ATOM      1  C   LIG A   1      -4.509  -1.900 131.318  0.00  0.00    +0.135 A 
ATOM      2  C   LIG A   1      -5.258  -2.002 130.137  0.00  0.00    +0.109 A 
ATOM      3  C   LIG A   1      -5.210  -0.960 129.110  0.00  0.00    +0.238 A 
ATOM      4  C   LIG A   1      -6.036  -1.152 127.878  0.00  0.00    +0.214 A 
ATOM      5  C   LIG A   1      -6.756  -2.290 127.805  0.00  0.00    +0.181 A 
ATOM      6  O   LIG A   1      -6.802  -3.278 128.775  0.00  0.00    -0.451 OA
ATOM      7  C   LIG A   1      -6.067  -3.111 129.921  0.00  0.00    +0.146 A 
ATOM      8  C   LIG A   1      -6.158  -4.111 130.891  0.00  0.00    +0.092 A 
ATOM      9  C   LIG A   1      -5.424  -3.986 132.071  0.00  0.00    +0.124 A 
ATOM     10  C   LIG A   1      -4.590  -2.894 132.285  0.00  0.00    +0.091 A 
ATOM     11  O   LIG A   1      -4.464   0.000 129.284  0.00  0.00    -0.283 OA
ENDROOT
BRANCH   5  12
ATOM     12  C   LIG A   1      -7.592  -2.605 126.631  0.00  0.00    +0.021 A 
ATOM     13  C   LIG A   1      -7.001  -2.912 125.397  0.00  0.00    +0.015 A 
ATOM     14  C   LIG A   1      -7.794  -3.215 124.284  0.00  0.00    +0.046 A 
ATOM     15  C   LIG A   1      -9.179  -3.211 124.407  0.00  0.00    +0.117 A 
ATOM     16  C   LIG A   1      -9.782  -2.906 125.621  0.00  0.00    +0.046 A 
ATOM     17  C   LIG A   1      -8.991  -2.602 126.734  0.00  0.00    +0.015 A 
BRANCH  15  18
ATOM     18  O   LIG A   1      -9.991  -3.500 123.350  0.00  0.00    -0.507 OA
ATOM     19  H   LIG A   1      -9.463  -3.488 122.536  0.00  0.00    +0.292 HD
ENDBRANCH  15  18
ENDBRANCH   5  12
BRANCH   1  20
ATOM     20  O   LIG A   1      -3.676  -0.848 131.592  0.00  0.00    -0.506 OA
ATOM     21  H   LIG A   1      -3.739  -0.648 132.551  0.00  0.00    +0.292 HD
ENDBRANCH   1  20
BRANCH   9  22
ATOM     22  O   LIG A   1      -5.498  -4.923 133.058  0.00  0.00    -0.506 OA
ATOM     23  H   LIG A   1      -4.898  -4.677 133.781  0.00  0.00    +0.292 HD
ENDBRANCH   9  22
BRANCH   4  24
ATOM     24  O   LIG A   1      -6.080  -0.223 126.850  0.00  0.00    -0.453 OA
BRANCH  24  25
ATOM     25  C   LIG A   1      -7.055   0.829 126.857  0.00  0.00    +0.340 C 
ATOM     26  O   LIG A   1      -7.753   0.764 125.597  0.00  0.00    -0.331 OA
ATOM     27  C   LIG A   1      -8.776   1.760 125.472  0.00  0.00    +0.179 C 
ATOM     28  C   LIG A   1      -8.130   3.152 125.469  0.00  0.00    +0.177 C 
ATOM     29  C   LIG A   1      -7.384   3.341 126.784  0.00  0.00    +0.180 C 
ATOM     30  C   LIG A   1      -6.376   2.218 127.016  0.00  0.00    +0.214 C 
BRANCH  29  31
ATOM     31  O   LIG A   1      -6.717   4.613 126.768  0.00  0.00    -0.386 OA
ATOM     32  H   LIG A   1      -5.763   4.410 126.861  0.00  0.00    +0.210 HD
ENDBRANCH  29  31
BRANCH  28  33
ATOM     33  O   LIG A   1      -9.101   4.193 125.325  0.00  0.00    -0.387 OA
ATOM     34  H   LIG A   1      -9.253   4.522 126.237  0.00  0.00    +0.210 HD
ENDBRANCH  28  33
BRANCH  30  35
ATOM     35  O   LIG A   1      -5.787   2.461 128.306  0.00  0.00    -0.383 OA
ATOM     36  H   LIG A   1      -4.836   2.653 128.159  0.00  0.00    +0.210 HD
ENDBRANCH  30  35
BRANCH  27  37
ATOM     37  C   LIG A   1      -9.580   1.498 124.192  0.00  0.00    +0.190 C 
BRANCH  37  38
ATOM     38  O   LIG A   1     -10.983   1.640 124.385  0.00  0.00    -0.392 OA
ATOM     39  H   LIG A   1     -11.404   1.584 123.499  0.00  0.00    +0.209 HD
ENDBRANCH  37  38
ENDBRANCH  27  37
ENDBRANCH  24  25
ENDBRANCH   4  24
TORSDOF 11
ENDMDL
MODEL 8
REMARK VINA RESULT:      -7.1      3.714      6.461
REMARK  Name = NuBBE_285
REMARK  11 active torsions:
REMARK  status: ('A' for Active; 'I' for Inactive)
REMARK    1  A    between atoms: O_1  and  C_2
REMARK    2  A    between atoms: C_5  and  O_6
REMARK    3  A    between atoms: O_6  and  C_7
REMARK    4  A    between atoms: C_10  and  C_18
REMARK    5  A    between atoms: C_12  and  O_17
REMARK    6  A    between atoms: C_14  and  O_16
REMARK    7  A    between atoms: C_18  and  O_19
REMARK    8  A    between atoms: C_20  and  O_22
REMARK    9  A    between atoms: C_23  and  C_30
REMARK   10  A    between atoms: C_27  and  O_28
REMARK   11  A    between atoms: C_33  and  O_36
REMARK                            x       y       z     vdW  Elec       q    Type
REMARK                         _______ _______ _______ _____ _____    ______ ____
ROOT
ATOM      1  C   LIG A   1      -4.202  -0.653 130.584  0.00  0.00    +0.135 A 
ATOM      2  C   LIG A   1      -5.073  -0.933 129.523  0.00  0.00    +0.109 A 
ATOM      3  C   LIG A   1      -5.805   0.132 128.833  0.00  0.00    +0.238 A 
ATOM      4  C   LIG A   1      -6.709  -0.257 127.708  0.00  0.00    +0.214 A 
ATOM      5  C   LIG A   1      -6.768  -1.570 127.404  0.00  0.00    +0.181 A 
ATOM      6  O   LIG A   1      -6.075  -2.578 128.054  0.00  0.00    -0.451 OA
ATOM      7  C   LIG A   1      -5.256  -2.245 129.102  0.00  0.00    +0.146 A 
ATOM      8  C   LIG A   1      -4.594  -3.288 129.755  0.00  0.00    +0.092 A 
ATOM      9  C   LIG A   1      -3.748  -2.996 130.823  0.00  0.00    +0.124 A 
ATOM     10  C   LIG A   1      -3.536  -1.685 131.234  0.00  0.00    +0.091 A 
ATOM     11  O   LIG A   1      -5.611   1.294 129.180  0.00  0.00    -0.283 OA
ENDROOT
BRANCH   5  12
ATOM     12  C   LIG A   1      -7.605  -2.074 126.299  0.00  0.00    +0.021 A 
ATOM     13  C   LIG A   1      -7.066  -2.243 125.016  0.00  0.00    +0.015 A 
ATOM     14  C   LIG A   1      -7.859  -2.726 123.968  0.00  0.00    +0.046 A 
ATOM     15  C   LIG A   1      -9.192  -3.038 124.207  0.00  0.00    +0.117 A 
ATOM     16  C   LIG A   1      -9.745  -2.874 125.471  0.00  0.00    +0.046 A 
ATOM     17  C   LIG A   1      -8.954  -2.391 126.518  0.00  0.00    +0.015 A 
BRANCH  15  18
ATOM     18  O   LIG A   1     -10.003  -3.512 123.217  0.00  0.00    -0.507 OA
ATOM     19  H   LIG A   1     -10.675  -2.841 123.014  0.00  0.00    +0.292 HD
ENDBRANCH  15  18
ENDBRANCH   5  12
BRANCH   1  20
ATOM     20  O   LIG A   1      -3.956   0.615 131.041  0.00  0.00    -0.506 OA
ATOM     21  H   LIG A   1      -3.451   1.098 130.352  0.00  0.00    +0.292 HD
ENDBRANCH   1  20
BRANCH   9  22
ATOM     22  O   LIG A   1      -3.099  -3.981 131.508  0.00  0.00    -0.506 OA
ATOM     23  H   LIG A   1      -2.195  -3.690 131.710  0.00  0.00    +0.292 HD
ENDBRANCH   9  22
BRANCH   4  24
ATOM     24  O   LIG A   1      -7.462   0.665 126.997  0.00  0.00    -0.453 OA
BRANCH  24  25
ATOM     25  C   LIG A   1      -6.897   1.364 125.878  0.00  0.00    +0.340 C 
ATOM     26  O   LIG A   1      -6.141   2.470 126.411  0.00  0.00    -0.331 OA
ATOM     27  C   LIG A   1      -5.504   3.253 125.394  0.00  0.00    +0.179 C 
ATOM     28  C   LIG A   1      -6.577   3.920 124.522  0.00  0.00    +0.177 C 
ATOM     29  C   LIG A   1      -7.422   2.828 123.878  0.00  0.00    +0.180 C 
ATOM     30  C   LIG A   1      -8.010   1.890 124.929  0.00  0.00    +0.214 C 
BRANCH  29  31
ATOM     31  O   LIG A   1      -8.474   3.438 123.112  0.00  0.00    -0.386 OA
ATOM     32  H   LIG A   1      -9.301   3.238 123.597  0.00  0.00    +0.210 HD
ENDBRANCH  29  31
BRANCH  28  33
ATOM     33  O   LIG A   1      -6.002   4.736 123.497  0.00  0.00    -0.387 OA
ATOM     34  H   LIG A   1      -6.614   4.649 122.735  0.00  0.00    +0.210 HD
ENDBRANCH  28  33
BRANCH  30  35
ATOM     35  O   LIG A   1      -8.725   0.869 124.208  0.00  0.00    -0.383 OA
ATOM     36  H   LIG A   1      -8.878   1.208 123.301  0.00  0.00    +0.210 HD
ENDBRANCH  30  35
BRANCH  27  37
ATOM     37  C   LIG A   1      -4.582   4.284 126.057  0.00  0.00    +0.190 C 
BRANCH  37  38
ATOM     38  O   LIG A   1      -5.279   5.443 126.498  0.00  0.00    -0.392 OA
ATOM     39  H   LIG A   1      -6.010   5.602 125.862  0.00  0.00    +0.209 HD
ENDBRANCH  37  38
ENDBRANCH  27  37
ENDBRANCH  24  25
ENDBRANCH   4  24
TORSDOF 11
ENDMDL
MODEL 9
REMARK VINA RESULT:      -6.7      2.751      5.737
REMARK  Name = NuBBE_285
REMARK  11 active torsions:
REMARK  status: ('A' for Active; 'I' for Inactive)
REMARK    1  A    between atoms: O_1  and  C_2
REMARK    2  A    between atoms: C_5  and  O_6
REMARK    3  A    between atoms: O_6  and  C_7
REMARK    4  A    between atoms: C_10  and  C_18
REMARK    5  A    between atoms: C_12  and  O_17
REMARK    6  A    between atoms: C_14  and  O_16
REMARK    7  A    between atoms: C_18  and  O_19
REMARK    8  A    between atoms: C_20  and  O_22
REMARK    9  A    between atoms: C_23  and  C_30
REMARK   10  A    between atoms: C_27  and  O_28
REMARK   11  A    between atoms: C_33  and  O_36
REMARK                            x       y       z     vdW  Elec       q    Type
REMARK                         _______ _______ _______ _____ _____    ______ ____
ROOT
ATOM      1  C   LIG A   1     -11.017   7.162 127.457  0.00  0.00    +0.135 A 
ATOM      2  C   LIG A   1     -10.339   6.702 128.594  0.00  0.00    +0.109 A 
ATOM      3  C   LIG A   1      -9.291   5.684 128.499  0.00  0.00    +0.238 A 
ATOM      4  C   LIG A   1      -8.615   5.255 129.761  0.00  0.00    +0.214 A 
ATOM      5  C   LIG A   1      -9.018   5.859 130.898  0.00  0.00    +0.181 A 
ATOM      6  O   LIG A   1     -10.007   6.824 130.991  0.00  0.00    -0.451 OA
ATOM      7  C   LIG A   1     -10.654   7.215 129.847  0.00  0.00    +0.146 A 
ATOM      8  C   LIG A   1     -11.666   8.169 129.978  0.00  0.00    +0.092 A 
ATOM      9  C   LIG A   1     -12.348   8.601 128.841  0.00  0.00    +0.124 A 
ATOM     10  C   LIG A   1     -12.021   8.115 127.580  0.00  0.00    +0.091 A 
ATOM     11  O   LIG A   1      -8.987   5.260 127.387  0.00  0.00    -0.283 OA
ENDROOT
BRANCH   5  12
ATOM     12  C   LIG A   1      -8.410   5.539 132.204  0.00  0.00    +0.021 A 
ATOM     13  C   LIG A   1      -7.153   6.056 132.552  0.00  0.00    +0.015 A 
ATOM     14  C   LIG A   1      -6.579   5.756 133.793  0.00  0.00    +0.046 A 
ATOM     15  C   LIG A   1      -7.263   4.938 134.684  0.00  0.00    +0.117 A 
ATOM     16  C   LIG A   1      -8.507   4.413 134.355  0.00  0.00    +0.046 A 
ATOM     17  C   LIG A   1      -9.082   4.711 133.116  0.00  0.00    +0.015 A 
BRANCH  15  18
ATOM     18  O   LIG A   1      -6.742   4.619 135.904  0.00  0.00    -0.507 OA
ATOM     19  H   LIG A   1      -6.183   5.352 136.208  0.00  0.00    +0.292 HD
ENDBRANCH  15  18
ENDBRANCH   5  12
BRANCH   1  20
ATOM     20  O   LIG A   1     -10.749   6.718 126.190  0.00  0.00    -0.506 OA
ATOM     21  H   LIG A   1      -9.878   6.267 126.200  0.00  0.00    +0.292 HD
ENDBRANCH   1  20
BRANCH   9  22
ATOM     22  O   LIG A   1     -13.360   9.512 128.920  0.00  0.00    -0.506 OA
ATOM     23  H   LIG A   1     -13.653   9.746 128.025  0.00  0.00    +0.292 HD
ENDBRANCH   9  22
BRANCH   4  24
ATOM     24  O   LIG A   1      -7.622   4.287 129.791  0.00  0.00    -0.453 OA
BRANCH  24  25
ATOM     25  C   LIG A   1      -7.952   2.909 130.017  0.00  0.00    +0.340 C 
ATOM     26  O   LIG A   1      -7.095   2.440 131.077  0.00  0.00    -0.331 OA
ATOM     27  C   LIG A   1      -7.329   1.068 131.418  0.00  0.00    +0.179 C 
ATOM     28  C   LIG A   1      -6.963   0.178 130.222  0.00  0.00    +0.177 C 
ATOM     29  C   LIG A   1      -7.841   0.573 129.041  0.00  0.00    +0.180 C 
ATOM     30  C   LIG A   1      -7.720   2.063 128.733  0.00  0.00    +0.214 C 
BRANCH  29  31
ATOM     31  O   LIG A   1      -7.463  -0.205 127.894  0.00  0.00    -0.386 OA
ATOM     32  H   LIG A   1      -8.264  -0.246 127.330  0.00  0.00    +0.210 HD
ENDBRANCH  29  31
BRANCH  28  33
ATOM     33  O   LIG A   1      -7.155  -1.210 130.508  0.00  0.00    -0.387 OA
ATOM     34  H   LIG A   1      -6.895  -1.311 131.449  0.00  0.00    +0.210 HD
ENDBRANCH  28  33
BRANCH  30  35
ATOM     35  O   LIG A   1      -8.636   2.331 127.656  0.00  0.00    -0.383 OA
ATOM     36  H   LIG A   1      -9.508   1.966 127.919  0.00  0.00    +0.210 HD
ENDBRANCH  30  35
BRANCH  27  37
ATOM     37  C   LIG A   1      -6.512   0.714 132.667  0.00  0.00    +0.190 C 
BRANCH  37  38
ATOM     38  O   LIG A   1      -5.157   1.140 132.578  0.00  0.00    -0.392 OA
ATOM     39  H   LIG A   1      -5.020   1.818 133.275  0.00  0.00    +0.209 HD
ENDBRANCH  37  38
ENDBRANCH  27  37
ENDBRANCH  24  25
ENDBRANCH   4  24
TORSDOF 11
ENDMDL
