MODEL 1
REMARK VINA RESULT:      -5.1      0.000      0.000
REMARK  Name = NuBBE_44
REMARK  4 active torsions:
REMARK  status: ('A' for Active; 'I' for Inactive)
REMARK    1  A    between atoms: N_4  and  C_5
REMARK    2  A    between atoms: C_5  and  C_6
REMARK    3  A    between atoms: C_7  and  C_8
REMARK    4  A    between atoms: C_7  and  C_9
REMARK                            x       y       z     vdW  Elec       q    Type
REMARK                         _______ _______ _______ _____ _____    ______ ____
ROOT
ATOM      1  N   LIG A   1     -13.884  12.121 128.608  0.00  0.00    -0.130 NA
ATOM      2  C   LIG A   1     -13.685  11.700 129.803  0.00  0.00    +0.377 C 
ATOM      3  N   LIG A   1     -13.775  12.491 130.890  0.00  0.00    -0.289 N 
ATOM      4  N   LIG A   1     -13.312  10.448 130.145  0.00  0.00    -0.273 N 
ATOM      5  H   LIG A   1     -14.162  13.102 128.635  0.00  0.00    +0.306 HD
ATOM      6  H   LIG A   1     -13.704  13.480 130.690  0.00  0.00    +0.255 HD
ATOM      7  H   LIG A   1     -13.111  12.225 131.608  0.00  0.00    +0.255 HD
ATOM      8  H   LIG A   1     -13.761  10.109 130.987  0.00  0.00    +0.258 HD
ENDROOT
BRANCH   4   9
ATOM      9  C   LIG A   1     -13.137   9.405 129.157  0.00  0.00    +0.223 C 
BRANCH   9  10
ATOM     10  C   LIG A   1     -12.063   8.501 129.693  0.00  0.00    +0.008 C 
ATOM     11  C   LIG A   1     -10.988   7.982 129.063  0.00  0.00    -0.077 C 
ATOM     12  C   LIG A   1     -10.628   8.215 127.624  0.00  0.00    +0.038 C 
ATOM     13  C   LIG A   1     -10.016   7.104 129.810  0.00  0.00    +0.038 C 
ENDBRANCH   9  10
ENDBRANCH   4   9
TORSDOF 2
ENDMDL
MODEL 2
REMARK VINA RESULT:      -4.8      4.009      5.104
REMARK  Name = NuBBE_44
REMARK  4 active torsions:
REMARK  status: ('A' for Active; 'I' for Inactive)
REMARK    1  A    between atoms: N_4  and  C_5
REMARK    2  A    between atoms: C_5  and  C_6
REMARK    3  A    between atoms: C_7  and  C_8
REMARK    4  A    between atoms: C_7  and  C_9
REMARK                            x       y       z     vdW  Elec       q    Type
REMARK                         _______ _______ _______ _____ _____    ______ ____
ROOT
ATOM      1  N   LIG A   1      -9.406   6.713 131.347  0.00  0.00    -0.130 NA
ATOM      2  C   LIG A   1     -10.311   6.085 132.003  0.00  0.00    +0.377 C 
ATOM      3  N   LIG A   1     -10.123   5.607 133.249  0.00  0.00    -0.289 N 
ATOM      4  N   LIG A   1     -11.539   5.765 131.543  0.00  0.00    -0.273 N 
ATOM      5  H   LIG A   1      -8.579   6.826 131.932  0.00  0.00    +0.306 HD
ATOM      6  H   LIG A   1      -9.151   5.501 133.511  0.00  0.00    +0.255 HD
ATOM      7  H   LIG A   1     -10.629   4.742 133.403  0.00  0.00    +0.255 HD
ATOM      8  H   LIG A   1     -12.268   5.857 132.240  0.00  0.00    +0.258 HD
ENDROOT
BRANCH   4   9
ATOM      9  C   LIG A   1     -11.988   6.157 130.223  0.00  0.00    +0.223 C 
BRANCH   9  10
ATOM     10  C   LIG A   1     -12.575   7.532 130.375  0.00  0.00    +0.008 C 
ATOM     11  C   LIG A   1     -12.415   8.621 129.596  0.00  0.00    -0.077 C 
ATOM     12  C   LIG A   1     -11.574   8.686 128.354  0.00  0.00    +0.038 C 
ATOM     13  C   LIG A   1     -13.125   9.909 129.930  0.00  0.00    +0.038 C 
ENDBRANCH   9  10
ENDBRANCH   4   9
TORSDOF 2
ENDMDL
MODEL 3
REMARK VINA RESULT:      -4.8      4.161      5.405
REMARK  Name = NuBBE_44
REMARK  4 active torsions:
REMARK  status: ('A' for Active; 'I' for Inactive)
REMARK    1  A    between atoms: N_4  and  C_5
REMARK    2  A    between atoms: C_5  and  C_6
REMARK    3  A    between atoms: C_7  and  C_8
REMARK    4  A    between atoms: C_7  and  C_9
REMARK                            x       y       z     vdW  Elec       q    Type
REMARK                         _______ _______ _______ _____ _____    ______ ____
ROOT
ATOM      1  N   LIG A   1     -10.030   6.440 132.997  0.00  0.00    -0.130 NA
ATOM      2  C   LIG A   1     -10.549   5.605 132.174  0.00  0.00    +0.377 C 
ATOM      3  N   LIG A   1     -10.041   4.378 131.949  0.00  0.00    -0.289 N 
ATOM      4  N   LIG A   1     -11.623   5.835 131.389  0.00  0.00    -0.273 N 
ATOM      5  H   LIG A   1      -9.234   6.008 133.465  0.00  0.00    +0.306 HD
ATOM      6  H   LIG A   1      -9.073   4.272 132.225  0.00  0.00    +0.255 HD
ATOM      7  H   LIG A   1     -10.169   4.086 130.986  0.00  0.00    +0.255 HD
ATOM      8  H   LIG A   1     -12.238   5.036 131.302  0.00  0.00    +0.258 HD
ENDROOT
BRANCH   4   9
ATOM      9  C   LIG A   1     -12.349   7.086 131.434  0.00  0.00    +0.223 C 
BRANCH   9  10
ATOM     10  C   LIG A   1     -13.115   7.169 130.144  0.00  0.00    +0.008 C 
ATOM     11  C   LIG A   1     -12.761   7.741 128.975  0.00  0.00    -0.077 C 
ATOM     12  C   LIG A   1     -11.463   8.448 128.711  0.00  0.00    +0.038 C 
ATOM     13  C   LIG A   1     -13.689   7.688 127.787  0.00  0.00    +0.038 C 
ENDBRANCH   9  10
ENDBRANCH   4   9
TORSDOF 2
ENDMDL
MODEL 4
REMARK VINA RESULT:      -4.6      2.167      3.134
REMARK  Name = NuBBE_44
REMARK  4 active torsions:
REMARK  status: ('A' for Active; 'I' for Inactive)
REMARK    1  A    between atoms: N_4  and  C_5
REMARK    2  A    between atoms: C_5  and  C_6
REMARK    3  A    between atoms: C_7  and  C_8
REMARK    4  A    between atoms: C_7  and  C_9
REMARK                            x       y       z     vdW  Elec       q    Type
REMARK                         _______ _______ _______ _____ _____    ______ ____
ROOT
ATOM      1  N   LIG A   1     -11.356   8.793 127.937  0.00  0.00    -0.130 NA
ATOM      2  C   LIG A   1     -12.373   8.855 128.714  0.00  0.00    +0.377 C 
ATOM      3  N   LIG A   1     -13.040   9.997 128.968  0.00  0.00    -0.289 N 
ATOM      4  N   LIG A   1     -12.889   7.826 129.420  0.00  0.00    -0.273 N 
ATOM      5  H   LIG A   1     -11.185   9.710 127.525  0.00  0.00    +0.306 HD
ATOM      6  H   LIG A   1     -12.516  10.839 128.762  0.00  0.00    +0.255 HD
ATOM      7  H   LIG A   1     -13.397  10.024 129.917  0.00  0.00    +0.255 HD
ATOM      8  H   LIG A   1     -13.901   7.829 129.458  0.00  0.00    +0.258 HD
ENDROOT
BRANCH   4   9
ATOM      9  C   LIG A   1     -12.346   6.487 129.330  0.00  0.00    +0.223 C 
BRANCH   9  10
ATOM     10  C   LIG A   1     -11.754   6.187 130.678  0.00  0.00    +0.008 C 
ATOM     11  C   LIG A   1     -10.507   6.422 131.136  0.00  0.00    -0.077 C 
ATOM     12  C   LIG A   1      -9.400   7.065 130.352  0.00  0.00    +0.038 C 
ATOM     13  C   LIG A   1     -10.130   6.052 132.549  0.00  0.00    +0.038 C 
ENDBRANCH   9  10
ENDBRANCH   4   9
TORSDOF 2
ENDMDL
MODEL 5
REMARK VINA RESULT:      -4.5      1.785      2.899
REMARK  Name = NuBBE_44
REMARK  4 active torsions:
REMARK  status: ('A' for Active; 'I' for Inactive)
REMARK    1  A    between atoms: N_4  and  C_5
REMARK    2  A    between atoms: C_5  and  C_6
REMARK    3  A    between atoms: C_7  and  C_8
REMARK    4  A    between atoms: C_7  and  C_9
REMARK                            x       y       z     vdW  Elec       q    Type
REMARK                         _______ _______ _______ _____ _____    ______ ____
ROOT
ATOM      1  N   LIG A   1     -13.763   8.120 128.092  0.00  0.00    -0.130 NA
ATOM      2  C   LIG A   1     -13.017   9.097 128.454  0.00  0.00    +0.377 C 
ATOM      3  N   LIG A   1     -13.503  10.290 128.849  0.00  0.00    -0.289 N 
ATOM      4  N   LIG A   1     -11.667   9.104 128.446  0.00  0.00    -0.273 N 
ATOM      5  H   LIG A   1     -14.743   8.379 128.204  0.00  0.00    +0.306 HD
ATOM      6  H   LIG A   1     -14.454  10.470 128.553  0.00  0.00    +0.255 HD
ATOM      7  H   LIG A   1     -12.896  11.056 128.576  0.00  0.00    +0.255 HD
ATOM      8  H   LIG A   1     -11.260   9.583 129.240  0.00  0.00    +0.258 HD
ENDROOT
BRANCH   4   9
ATOM      9  C   LIG A   1     -10.898   7.942 128.053  0.00  0.00    +0.223 C 
BRANCH   9  10
ATOM     10  C   LIG A   1     -10.076   7.562 129.252  0.00  0.00    +0.008 C 
ATOM     11  C   LIG A   1     -10.424   6.830 130.330  0.00  0.00    -0.077 C 
ATOM     12  C   LIG A   1     -11.772   6.213 130.564  0.00  0.00    +0.038 C 
ATOM     13  C   LIG A   1      -9.419   6.553 131.420  0.00  0.00    +0.038 C 
ENDBRANCH   9  10
ENDBRANCH   4   9
TORSDOF 2
ENDMDL
MODEL 6
REMARK VINA RESULT:      -4.4     14.038     14.957
REMARK  Name = NuBBE_44
REMARK  4 active torsions:
REMARK  status: ('A' for Active; 'I' for Inactive)
REMARK    1  A    between atoms: N_4  and  C_5
REMARK    2  A    between atoms: C_5  and  C_6
REMARK    3  A    between atoms: C_7  and  C_8
REMARK    4  A    between atoms: C_7  and  C_9
REMARK                            x       y       z     vdW  Elec       q    Type
REMARK                         _______ _______ _______ _____ _____    ______ ____
ROOT
ATOM      1  N   LIG A   1      -8.890  -2.424 124.977  0.00  0.00    -0.130 NA
ATOM      2  C   LIG A   1      -9.091  -2.722 123.746  0.00  0.00    +0.377 C 
ATOM      3  N   LIG A   1     -10.106  -3.505 123.332  0.00  0.00    -0.289 N 
ATOM      4  N   LIG A   1      -8.310  -2.353 122.708  0.00  0.00    -0.273 N 
ATOM      5  H   LIG A   1      -9.632  -2.824 125.550  0.00  0.00    +0.306 HD
ATOM      6  H   LIG A   1     -10.506  -4.085 124.059  0.00  0.00    +0.255 HD
ATOM      7  H   LIG A   1      -9.847  -4.070 122.531  0.00  0.00    +0.255 HD
ATOM      8  H   LIG A   1      -8.834  -2.113 121.875  0.00  0.00    +0.258 HD
ENDROOT
BRANCH   4   9
ATOM      9  C   LIG A   1      -7.146  -1.513 122.887  0.00  0.00    +0.223 C 
BRANCH   9  10
ATOM     10  C   LIG A   1      -5.957  -2.429 122.813  0.00  0.00    +0.008 C 
ATOM     11  C   LIG A   1      -5.228  -2.966 123.812  0.00  0.00    -0.077 C 
ATOM     12  C   LIG A   1      -5.468  -2.749 125.278  0.00  0.00    +0.038 C 
ATOM     13  C   LIG A   1      -4.073  -3.887 123.505  0.00  0.00    +0.038 C 
ENDBRANCH   9  10
ENDBRANCH   4   9
TORSDOF 2
ENDMDL
MODEL 7
REMARK VINA RESULT:      -4.3     10.064     11.763
REMARK  Name = NuBBE_44
REMARK  4 active torsions:
REMARK  status: ('A' for Active; 'I' for Inactive)
REMARK    1  A    between atoms: N_4  and  C_5
REMARK    2  A    between atoms: C_5  and  C_6
REMARK    3  A    between atoms: C_7  and  C_8
REMARK    4  A    between atoms: C_7  and  C_9
REMARK                            x       y       z     vdW  Elec       q    Type
REMARK                         _______ _______ _______ _____ _____    ______ ____
ROOT
ATOM      1  N   LIG A   1      -8.527   2.191 122.927  0.00  0.00    -0.130 NA
ATOM      2  C   LIG A   1      -7.825   3.185 123.329  0.00  0.00    +0.377 C 
ATOM      3  N   LIG A   1      -8.164   3.949 124.385  0.00  0.00    -0.289 N 
ATOM      4  N   LIG A   1      -6.699   3.643 122.742  0.00  0.00    -0.273 N 
ATOM      5  H   LIG A   1      -9.319   2.057 123.554  0.00  0.00    +0.306 HD
ATOM      6  H   LIG A   1      -9.140   3.888 124.646  0.00  0.00    +0.255 HD
ATOM      7  H   LIG A   1      -7.892   4.917 124.256  0.00  0.00    +0.255 HD
ATOM      8  H   LIG A   1      -5.992   3.943 123.403  0.00  0.00    +0.258 HD
ENDROOT
BRANCH   4   9
ATOM      9  C   LIG A   1      -6.125   3.000 121.579  0.00  0.00    +0.223 C 
BRANCH   9  10
ATOM     10  C   LIG A   1      -5.688   4.109 120.664  0.00  0.00    +0.008 C 
ATOM     11  C   LIG A   1      -6.350   4.681 119.638  0.00  0.00    -0.077 C 
ATOM     12  C   LIG A   1      -7.730   4.309 119.176  0.00  0.00    +0.038 C 
ATOM     13  C   LIG A   1      -5.720   5.808 118.857  0.00  0.00    +0.038 C 
ENDBRANCH   9  10
ENDBRANCH   4   9
TORSDOF 2
ENDMDL
MODEL 8
REMARK VINA RESULT:      -4.3      3.373      4.535
REMARK  Name = NuBBE_44
REMARK  4 active torsions:
REMARK  status: ('A' for Active; 'I' for Inactive)
REMARK    1  A    between atoms: N_4  and  C_5
REMARK    2  A    between atoms: C_5  and  C_6
REMARK    3  A    between atoms: C_7  and  C_8
REMARK    4  A    between atoms: C_7  and  C_9
REMARK                            x       y       z     vdW  Elec       q    Type
REMARK                         _______ _______ _______ _____ _____    ______ ____
ROOT
ATOM      1  N   LIG A   1     -10.494   6.626 126.261  0.00  0.00    -0.130 NA
ATOM      2  C   LIG A   1     -11.644   7.105 126.560  0.00  0.00    +0.377 C 
ATOM      3  N   LIG A   1     -12.762   6.838 125.857  0.00  0.00    -0.289 N 
ATOM      4  N   LIG A   1     -11.900   7.969 127.565  0.00  0.00    -0.273 N 
ATOM      5  H   LIG A   1     -10.584   5.994 125.465  0.00  0.00    +0.306 HD
ATOM      6  H   LIG A   1     -12.591   6.497 124.919  0.00  0.00    +0.255 HD
ATOM      7  H   LIG A   1     -13.395   7.629 125.837  0.00  0.00    +0.255 HD
ATOM      8  H   LIG A   1     -12.773   7.784 128.045  0.00  0.00    +0.258 HD
ENDROOT
BRANCH   4   9
ATOM      9  C   LIG A   1     -10.863   8.423 128.468  0.00  0.00    +0.223 C 
BRANCH   9  10
ATOM     10  C   LIG A   1     -11.238   7.902 129.826  0.00  0.00    +0.008 C 
ATOM     11  C   LIG A   1     -10.824   6.784 130.457  0.00  0.00    -0.077 C 
ATOM     12  C   LIG A   1      -9.855   5.780 129.902  0.00  0.00    +0.038 C 
ATOM     13  C   LIG A   1     -11.320   6.462 131.845  0.00  0.00    +0.038 C 
ENDBRANCH   9  10
ENDBRANCH   4   9
TORSDOF 2
ENDMDL
MODEL 9
REMARK VINA RESULT:      -4.2      4.720      6.400
REMARK  Name = NuBBE_44
REMARK  4 active torsions:
REMARK  status: ('A' for Active; 'I' for Inactive)
REMARK    1  A    between atoms: N_4  and  C_5
REMARK    2  A    between atoms: C_5  and  C_6
REMARK    3  A    between atoms: C_7  and  C_8
REMARK    4  A    between atoms: C_7  and  C_9
REMARK                            x       y       z     vdW  Elec       q    Type
REMARK                         _______ _______ _______ _____ _____    ______ ____
ROOT
ATOM      1  N   LIG A   1      -9.468   3.651 129.706  0.00  0.00    -0.130 NA
ATOM      2  C   LIG A   1     -10.257   3.707 130.715  0.00  0.00    +0.377 C 
ATOM      3  N   LIG A   1     -10.555   2.640 131.481  0.00  0.00    -0.289 N 
ATOM      4  N   LIG A   1     -10.936   4.800 131.123  0.00  0.00    -0.273 N 
ATOM      5  H   LIG A   1      -9.083   2.710 129.627  0.00  0.00    +0.306 HD
ATOM      6  H   LIG A   1     -10.371   1.747 131.039  0.00  0.00    +0.255 HD
ATOM      7  H   LIG A   1     -11.508   2.675 131.825  0.00  0.00    +0.255 HD
ATOM      8  H   LIG A   1     -10.985   4.892 132.131  0.00  0.00    +0.258 HD
ENDROOT
BRANCH   4   9
ATOM      9  C   LIG A   1     -10.798   6.079 130.461  0.00  0.00    +0.223 C 
BRANCH   9  10
ATOM     10  C   LIG A   1     -11.924   6.158 129.469  0.00  0.00    +0.008 C 
ATOM     11  C   LIG A   1     -12.725   7.199 129.165  0.00  0.00    -0.077 C 
ATOM     12  C   LIG A   1     -12.651   8.564 129.787  0.00  0.00    +0.038 C 
ATOM     13  C   LIG A   1     -13.792   7.059 128.108  0.00  0.00    +0.038 C 
ENDBRANCH   9  10
ENDBRANCH   4   9
TORSDOF 2
ENDMDL
