MODEL 1
REMARK VINA RESULT:      -6.2      0.000      0.000
REMARK  Name = NuBBE_2445
REMARK  6 active torsions:
REMARK  status: ('A' for Active; 'I' for Inactive)
REMARK    1  A    between atoms: O_1  and  C_2
REMARK    2  A    between atoms: O_1  and  C_3
REMARK    3  A    between atoms: C_6  and  O_7
REMARK    4  A    between atoms: O_7  and  C_8
REMARK    5  A    between atoms: C_13  and  C_17
REMARK    6  A    between atoms: C_15  and  O_16
REMARK                            x       y       z     vdW  Elec       q    Type
REMARK                         _______ _______ _______ _____ _____    ______ ____
ROOT
ATOM      1  C   LIG A   1      -9.746   5.362 130.388  0.00  0.00    +0.205 A 
ATOM      2  C   LIG A   1     -10.396   6.163 129.427  0.00  0.00    +0.188 A 
ATOM      3  C   LIG A   1     -11.506   6.979 129.711  0.00  0.00    +0.066 A 
ATOM      4  C   LIG A   1     -12.154   7.662 128.569  0.00  0.00    +0.138 A 
ATOM      5  C   LIG A   1     -11.576   7.629 127.361  0.00  0.00    +0.138 A 
ATOM      6  C   LIG A   1     -10.333   6.906 127.091  0.00  0.00    +0.341 A 
ATOM      7  O   LIG A   1      -9.805   6.963 125.990  0.00  0.00    -0.245 OA
ATOM      8  O   LIG A   1      -9.843   6.129 128.119  0.00  0.00    -0.418 OA
ATOM      9  C   LIG A   1     -11.931   7.049 131.056  0.00  0.00    -0.033 A 
ATOM     10  C   LIG A   1     -11.291   6.249 132.025  0.00  0.00    +0.053 A 
ATOM     11  C   LIG A   1     -10.224   5.407 131.696  0.00  0.00    +0.163 A 
ATOM     12  C   LIG A   1     -13.050   7.940 131.531  0.00  0.00    +0.045 C 
ENDROOT
BRANCH   1  13
ATOM     13  O   LIG A   1      -8.707   4.617 129.898  0.00  0.00    -0.488 OA
ATOM     14  C   LIG A   1      -8.898   3.228 129.684  0.00  0.00    +0.277 C 
ENDBRANCH   1  13
BRANCH   4  15
ATOM     15  O   LIG A   1     -13.367   8.255 128.838  0.00  0.00    -0.494 OA
ATOM     16  C   LIG A   1     -13.507   9.638 128.529  0.00  0.00    +0.277 C 
ENDBRANCH   4  15
BRANCH  11  17
ATOM     17  O   LIG A   1      -9.669   4.652 132.692  0.00  0.00    -0.503 OA
ATOM     18  H   LIG A   1      -9.124   3.950 132.301  0.00  0.00    +0.292 HD
ENDBRANCH  11  17
TORSDOF 3
ENDMDL
MODEL 2
REMARK VINA RESULT:      -6.1      5.697      7.712
REMARK  Name = NuBBE_2445
REMARK  6 active torsions:
REMARK  status: ('A' for Active; 'I' for Inactive)
REMARK    1  A    between atoms: O_1  and  C_2
REMARK    2  A    between atoms: O_1  and  C_3
REMARK    3  A    between atoms: C_6  and  O_7
REMARK    4  A    between atoms: O_7  and  C_8
REMARK    5  A    between atoms: C_13  and  C_17
REMARK    6  A    between atoms: C_15  and  O_16
REMARK                            x       y       z     vdW  Elec       q    Type
REMARK                         _______ _______ _______ _____ _____    ______ ____
ROOT
ATOM      1  C   LIG A   1      -7.561   3.647 126.298  0.00  0.00    +0.205 A 
ATOM      2  C   LIG A   1      -8.077   3.157 125.081  0.00  0.00    +0.188 A 
ATOM      3  C   LIG A   1      -7.470   3.374 123.831  0.00  0.00    +0.066 A 
ATOM      4  C   LIG A   1      -8.201   2.904 122.633  0.00  0.00    +0.138 A 
ATOM      5  C   LIG A   1      -9.299   2.150 122.779  0.00  0.00    +0.138 A 
ATOM      6  C   LIG A   1      -9.852   1.790 124.085  0.00  0.00    +0.341 A 
ATOM      7  O   LIG A   1     -10.813   1.040 124.169  0.00  0.00    -0.245 OA
ATOM      8  O   LIG A   1      -9.265   2.385 125.181  0.00  0.00    -0.418 OA
ATOM      9  C   LIG A   1      -6.233   4.055 123.822  0.00  0.00    -0.033 A 
ATOM     10  C   LIG A   1      -5.708   4.553 125.032  0.00  0.00    +0.053 A 
ATOM     11  C   LIG A   1      -6.368   4.365 126.251  0.00  0.00    +0.163 A 
ATOM     12  C   LIG A   1      -5.421   4.290 122.574  0.00  0.00    +0.045 C 
ENDROOT
BRANCH   1  13
ATOM     13  O   LIG A   1      -8.322   3.354 127.398  0.00  0.00    -0.488 OA
ATOM     14  C   LIG A   1      -7.888   2.333 128.282  0.00  0.00    +0.277 C 
ENDBRANCH   1  13
BRANCH   4  15
ATOM     15  O   LIG A   1      -7.705   3.336 121.423  0.00  0.00    -0.494 OA
ATOM     16  C   LIG A   1      -8.632   3.875 120.486  0.00  0.00    +0.277 C 
ENDBRANCH   4  15
BRANCH  11  17
ATOM     17  O   LIG A   1      -5.801   4.894 127.377  0.00  0.00    -0.503 OA
ATOM     18  H   LIG A   1      -4.855   4.675 127.398  0.00  0.00    +0.292 HD
ENDBRANCH  11  17
TORSDOF 3
ENDMDL
MODEL 3
REMARK VINA RESULT:      -5.7      3.558      5.880
REMARK  Name = NuBBE_2445
REMARK  6 active torsions:
REMARK  status: ('A' for Active; 'I' for Inactive)
REMARK    1  A    between atoms: O_1  and  C_2
REMARK    2  A    between atoms: O_1  and  C_3
REMARK    3  A    between atoms: C_6  and  O_7
REMARK    4  A    between atoms: O_7  and  C_8
REMARK    5  A    between atoms: C_13  and  C_17
REMARK    6  A    between atoms: C_15  and  O_16
REMARK                            x       y       z     vdW  Elec       q    Type
REMARK                         _______ _______ _______ _____ _____    ______ ____
ROOT
ATOM      1  C   LIG A   1      -9.313   6.595 131.271  0.00  0.00    +0.205 A 
ATOM      2  C   LIG A   1      -7.931   6.528 131.540  0.00  0.00    +0.188 A 
ATOM      3  C   LIG A   1      -7.377   5.810 132.616  0.00  0.00    +0.066 A 
ATOM      4  C   LIG A   1      -5.920   5.942 132.839  0.00  0.00    +0.138 A 
ATOM      5  C   LIG A   1      -5.164   6.576 131.932  0.00  0.00    +0.138 A 
ATOM      6  C   LIG A   1      -5.716   7.195 130.726  0.00  0.00    +0.341 A 
ATOM      7  O   LIG A   1      -4.980   7.700 129.892  0.00  0.00    -0.245 OA
ATOM      8  O   LIG A   1      -7.091   7.220 130.628  0.00  0.00    -0.418 OA
ATOM      9  C   LIG A   1      -8.264   5.055 133.415  0.00  0.00    -0.033 A 
ATOM     10  C   LIG A   1      -9.649   5.117 133.159  0.00  0.00    +0.053 A 
ATOM     11  C   LIG A   1     -10.169   5.885 132.112  0.00  0.00    +0.163 A 
ATOM     12  C   LIG A   1      -7.815   4.171 134.550  0.00  0.00    +0.045 C 
ENDROOT
BRANCH   1  13
ATOM     13  O   LIG A   1      -9.647   7.374 130.197  0.00  0.00    -0.488 OA
ATOM     14  C   LIG A   1     -10.171   6.753 129.034  0.00  0.00    +0.277 C 
ENDBRANCH   1  13
BRANCH   4  15
ATOM     15  O   LIG A   1      -5.448   5.427 134.026  0.00  0.00    -0.494 OA
ATOM     16  C   LIG A   1      -4.597   6.255 134.811  0.00  0.00    +0.277 C 
ENDBRANCH   4  15
BRANCH  11  17
ATOM     17  O   LIG A   1     -11.525   5.904 131.941  0.00  0.00    -0.503 OA
ATOM     18  H   LIG A   1     -11.961   5.675 132.777  0.00  0.00    +0.292 HD
ENDBRANCH  11  17
TORSDOF 3
ENDMDL
MODEL 4
REMARK VINA RESULT:      -5.6      1.372      4.314
REMARK  Name = NuBBE_2445
REMARK  6 active torsions:
REMARK  status: ('A' for Active; 'I' for Inactive)
REMARK    1  A    between atoms: O_1  and  C_2
REMARK    2  A    between atoms: O_1  and  C_3
REMARK    3  A    between atoms: C_6  and  O_7
REMARK    4  A    between atoms: O_7  and  C_8
REMARK    5  A    between atoms: C_13  and  C_17
REMARK    6  A    between atoms: C_15  and  O_16
REMARK                            x       y       z     vdW  Elec       q    Type
REMARK                         _______ _______ _______ _____ _____    ______ ____
ROOT
ATOM      1  C   LIG A   1     -11.212   8.033 128.127  0.00  0.00    +0.205 A 
ATOM      2  C   LIG A   1     -10.502   6.974 128.729  0.00  0.00    +0.188 A 
ATOM      3  C   LIG A   1     -10.707   6.550 130.054  0.00  0.00    +0.066 A 
ATOM      4  C   LIG A   1      -9.796   5.510 130.581  0.00  0.00    +0.138 A 
ATOM      5  C   LIG A   1      -8.944   4.892 129.752  0.00  0.00    +0.138 A 
ATOM      6  C   LIG A   1      -8.833   5.222 128.331  0.00  0.00    +0.341 A 
ATOM      7  O   LIG A   1      -8.094   4.583 127.597  0.00  0.00    -0.245 OA
ATOM      8  O   LIG A   1      -9.557   6.314 127.900  0.00  0.00    -0.418 OA
ATOM      9  C   LIG A   1     -11.741   7.179 130.783  0.00  0.00    -0.033 A 
ATOM     10  C   LIG A   1     -12.454   8.242 130.193  0.00  0.00    +0.053 A 
ATOM     11  C   LIG A   1     -12.187   8.673 128.889  0.00  0.00    +0.163 A 
ATOM     12  C   LIG A   1     -12.136   6.781 132.182  0.00  0.00    +0.045 C 
ENDROOT
BRANCH   1  13
ATOM     13  O   LIG A   1     -10.838   8.308 126.839  0.00  0.00    -0.488 OA
ATOM     14  C   LIG A   1     -11.576   7.737 125.771  0.00  0.00    +0.277 C 
ENDBRANCH   1  13
BRANCH   4  15
ATOM     15  O   LIG A   1      -9.863   5.287 131.938  0.00  0.00    -0.494 OA
ATOM     16  C   LIG A   1      -8.675   5.480 132.698  0.00  0.00    +0.277 C 
ENDBRANCH   4  15
BRANCH  11  17
ATOM     17  O   LIG A   1     -12.913   9.721 128.397  0.00  0.00    -0.503 OA
ATOM     18  H   LIG A   1     -13.259  10.250 129.133  0.00  0.00    +0.292 HD
ENDBRANCH  11  17
TORSDOF 3
ENDMDL
MODEL 5
REMARK VINA RESULT:      -5.6      7.889      9.775
REMARK  Name = NuBBE_2445
REMARK  6 active torsions:
REMARK  status: ('A' for Active; 'I' for Inactive)
REMARK    1  A    between atoms: O_1  and  C_2
REMARK    2  A    between atoms: O_1  and  C_3
REMARK    3  A    between atoms: C_6  and  O_7
REMARK    4  A    between atoms: O_7  and  C_8
REMARK    5  A    between atoms: C_13  and  C_17
REMARK    6  A    between atoms: C_15  and  O_16
REMARK                            x       y       z     vdW  Elec       q    Type
REMARK                         _______ _______ _______ _____ _____    ______ ____
ROOT
ATOM      1  C   LIG A   1      -7.736   2.828 123.479  0.00  0.00    +0.205 A 
ATOM      2  C   LIG A   1      -7.853   1.440 123.695  0.00  0.00    +0.188 A 
ATOM      3  C   LIG A   1      -7.008   0.708 124.549  0.00  0.00    +0.066 A 
ATOM      4  C   LIG A   1      -7.178  -0.762 124.572  0.00  0.00    +0.138 A 
ATOM      5  C   LIG A   1      -8.217  -1.320 123.937  0.00  0.00    +0.138 A 
ATOM      6  C   LIG A   1      -9.193  -0.545 123.170  0.00  0.00    +0.341 A 
ATOM      7  O   LIG A   1     -10.165  -1.089 122.667  0.00  0.00    -0.245 OA
ATOM      8  O   LIG A   1      -8.916   0.796 123.009  0.00  0.00    -0.418 OA
ATOM      9  C   LIG A   1      -6.044   1.434 125.283  0.00  0.00    -0.033 A 
ATOM     10  C   LIG A   1      -5.914   2.822 125.072  0.00  0.00    +0.053 A 
ATOM     11  C   LIG A   1      -6.738   3.508 124.174  0.00  0.00    +0.163 A 
ATOM     12  C   LIG A   1      -5.123   0.805 126.298  0.00  0.00    +0.045 C 
ENDROOT
BRANCH   1  13
ATOM     13  O   LIG A   1      -8.635   3.342 122.584  0.00  0.00    -0.488 OA
ATOM     14  C   LIG A   1      -8.222   3.565 121.246  0.00  0.00    +0.277 C 
ENDBRANCH   1  13
BRANCH   4  15
ATOM     15  O   LIG A   1      -6.192  -1.467 125.227  0.00  0.00    -0.494 OA
ATOM     16  C   LIG A   1      -5.506  -2.476 124.493  0.00  0.00    +0.277 C 
ENDBRANCH   4  15
BRANCH  11  17
ATOM     17  O   LIG A   1      -6.537   4.851 124.015  0.00  0.00    -0.503 OA
ATOM     18  H   LIG A   1      -6.901   5.135 123.162  0.00  0.00    +0.292 HD
ENDBRANCH  11  17
TORSDOF 3
ENDMDL
MODEL 6
REMARK VINA RESULT:      -5.6      7.354     10.437
REMARK  Name = NuBBE_2445
REMARK  6 active torsions:
REMARK  status: ('A' for Active; 'I' for Inactive)
REMARK    1  A    between atoms: O_1  and  C_2
REMARK    2  A    between atoms: O_1  and  C_3
REMARK    3  A    between atoms: C_6  and  O_7
REMARK    4  A    between atoms: O_7  and  C_8
REMARK    5  A    between atoms: C_13  and  C_17
REMARK    6  A    between atoms: C_15  and  O_16
REMARK                            x       y       z     vdW  Elec       q    Type
REMARK                         _______ _______ _______ _____ _____    ______ ____
ROOT
ATOM      1  C   LIG A   1      -9.149   0.658 124.733  0.00  0.00    +0.205 A 
ATOM      2  C   LIG A   1      -8.673  -0.658 124.567  0.00  0.00    +0.188 A 
ATOM      3  C   LIG A   1      -7.408  -1.092 125.002  0.00  0.00    +0.066 A 
ATOM      4  C   LIG A   1      -7.004  -2.470 124.642  0.00  0.00    +0.138 A 
ATOM      5  C   LIG A   1      -7.897  -3.300 124.086  0.00  0.00    +0.138 A 
ATOM      6  C   LIG A   1      -9.269  -2.899 123.771  0.00  0.00    +0.341 A 
ATOM      7  O   LIG A   1     -10.070  -3.711 123.330  0.00  0.00    -0.245 OA
ATOM      8  O   LIG A   1      -9.571  -1.565 123.944  0.00  0.00    -0.418 OA
ATOM      9  C   LIG A   1      -6.614  -0.165 125.712  0.00  0.00    -0.033 A 
ATOM     10  C   LIG A   1      -7.077   1.156 125.880  0.00  0.00    +0.053 A 
ATOM     11  C   LIG A   1      -8.320   1.567 125.387  0.00  0.00    +0.163 A 
ATOM     12  C   LIG A   1      -5.273  -0.503 126.312  0.00  0.00    +0.045 C 
ENDROOT
BRANCH   1  13
ATOM     13  O   LIG A   1     -10.394   0.883 124.209  0.00  0.00    -0.488 OA
ATOM     14  C   LIG A   1     -10.509   1.247 122.843  0.00  0.00    +0.277 C 
ENDBRANCH   1  13
BRANCH   4  15
ATOM     15  O   LIG A   1      -5.682  -2.784 124.869  0.00  0.00    -0.494 OA
ATOM     16  C   LIG A   1      -4.942  -3.341 123.788  0.00  0.00    +0.277 C 
ENDBRANCH   4  15
BRANCH  11  17
ATOM     17  O   LIG A   1      -8.688   2.870 125.578  0.00  0.00    -0.503 OA
ATOM     18  H   LIG A   1      -7.976   3.345 126.035  0.00  0.00    +0.292 HD
ENDBRANCH  11  17
TORSDOF 3
ENDMDL
MODEL 7
REMARK VINA RESULT:      -5.5      2.113      4.693
REMARK  Name = NuBBE_2445
REMARK  6 active torsions:
REMARK  status: ('A' for Active; 'I' for Inactive)
REMARK    1  A    between atoms: O_1  and  C_2
REMARK    2  A    between atoms: O_1  and  C_3
REMARK    3  A    between atoms: C_6  and  O_7
REMARK    4  A    between atoms: O_7  and  C_8
REMARK    5  A    between atoms: C_13  and  C_17
REMARK    6  A    between atoms: C_15  and  O_16
REMARK                            x       y       z     vdW  Elec       q    Type
REMARK                         _______ _______ _______ _____ _____    ______ ____
ROOT
ATOM      1  C   LIG A   1     -11.144   5.908 130.136  0.00  0.00    +0.205 A 
ATOM      2  C   LIG A   1      -9.819   5.444 130.001  0.00  0.00    +0.188 A 
ATOM      3  C   LIG A   1      -8.885   5.429 131.052  0.00  0.00    +0.066 A 
ATOM      4  C   LIG A   1      -7.499   5.031 130.721  0.00  0.00    +0.138 A 
ATOM      5  C   LIG A   1      -7.222   4.538 129.507  0.00  0.00    +0.138 A 
ATOM      6  C   LIG A   1      -8.227   4.406 128.452  0.00  0.00    +0.341 A 
ATOM      7  O   LIG A   1      -7.945   3.884 127.383  0.00  0.00    -0.245 OA
ATOM      8  O   LIG A   1      -9.466   4.949 128.718  0.00  0.00    -0.418 OA
ATOM      9  C   LIG A   1      -9.340   5.833 132.328  0.00  0.00    -0.033 A 
ATOM     10  C   LIG A   1     -10.661   6.303 132.474  0.00  0.00    +0.053 A 
ATOM     11  C   LIG A   1     -11.547   6.353 131.393  0.00  0.00    +0.163 A 
ATOM     12  C   LIG A   1      -8.484   5.794 133.568  0.00  0.00    +0.045 C 
ENDROOT
BRANCH   1  13
ATOM     13  O   LIG A   1     -11.880   5.868 128.983  0.00  0.00    -0.488 OA
ATOM     14  C   LIG A   1     -12.115   7.075 128.275  0.00  0.00    +0.277 C 
ENDBRANCH   1  13
BRANCH   4  15
ATOM     15  O   LIG A   1      -6.562   5.253 131.706  0.00  0.00    -0.494 OA
ATOM     16  C   LIG A   1      -5.344   4.519 131.634  0.00  0.00    +0.277 C 
ENDBRANCH   4  15
BRANCH  11  17
ATOM     17  O   LIG A   1     -12.806   6.838 131.616  0.00  0.00    -0.503 OA
ATOM     18  H   LIG A   1     -13.372   6.126 131.955  0.00  0.00    +0.292 HD
ENDBRANCH  11  17
TORSDOF 3
ENDMDL
MODEL 8
REMARK VINA RESULT:      -5.5      7.218      9.760
REMARK  Name = NuBBE_2445
REMARK  6 active torsions:
REMARK  status: ('A' for Active; 'I' for Inactive)
REMARK    1  A    between atoms: O_1  and  C_2
REMARK    2  A    between atoms: O_1  and  C_3
REMARK    3  A    between atoms: C_6  and  O_7
REMARK    4  A    between atoms: O_7  and  C_8
REMARK    5  A    between atoms: C_13  and  C_17
REMARK    6  A    between atoms: C_15  and  O_16
REMARK                            x       y       z     vdW  Elec       q    Type
REMARK                         _______ _______ _______ _____ _____    ______ ____
ROOT
ATOM      1  C   LIG A   1      -6.983   2.019 124.640  0.00  0.00    +0.205 A 
ATOM      2  C   LIG A   1      -7.156   0.629 124.485  0.00  0.00    +0.188 A 
ATOM      3  C   LIG A   1      -8.260   0.045 123.838  0.00  0.00    +0.066 A 
ATOM      4  C   LIG A   1      -8.360  -1.432 123.869  0.00  0.00    +0.138 A 
ATOM      5  C   LIG A   1      -7.336  -2.156 124.341  0.00  0.00    +0.138 A 
ATOM      6  C   LIG A   1      -6.114  -1.556 124.877  0.00  0.00    +0.341 A 
ATOM      7  O   LIG A   1      -5.178  -2.258 125.229  0.00  0.00    -0.245 OA
ATOM      8  O   LIG A   1      -6.115  -0.184 125.007  0.00  0.00    -0.418 OA
ATOM      9  C   LIG A   1      -9.199   0.918 123.246  0.00  0.00    -0.033 A 
ATOM     10  C   LIG A   1      -9.040   2.311 123.397  0.00  0.00    +0.053 A 
ATOM     11  C   LIG A   1      -7.956   2.855 124.095  0.00  0.00    +0.163 A 
ATOM     12  C   LIG A   1     -10.388   0.445 122.449  0.00  0.00    +0.045 C 
ENDROOT
BRANCH   1  13
ATOM     13  O   LIG A   1      -5.858   2.380 125.330  0.00  0.00    -0.488 OA
ATOM     14  C   LIG A   1      -5.983   2.799 126.679  0.00  0.00    +0.277 C 
ENDBRANCH   1  13
BRANCH   4  15
ATOM     15  O   LIG A   1      -9.558  -1.958 123.441  0.00  0.00    -0.494 OA
ATOM     16  C   LIG A   1      -9.667  -3.377 123.373  0.00  0.00    +0.277 C 
ENDBRANCH   4  15
BRANCH  11  17
ATOM     17  O   LIG A   1      -7.884   4.215 124.210  0.00  0.00    -0.503 OA
ATOM     18  H   LIG A   1      -8.730   4.609 123.942  0.00  0.00    +0.292 HD
ENDBRANCH  11  17
TORSDOF 3
ENDMDL
MODEL 9
REMARK VINA RESULT:      -5.5      8.186     10.241
REMARK  Name = NuBBE_2445
REMARK  6 active torsions:
REMARK  status: ('A' for Active; 'I' for Inactive)
REMARK    1  A    between atoms: O_1  and  C_2
REMARK    2  A    between atoms: O_1  and  C_3
REMARK    3  A    between atoms: C_6  and  O_7
REMARK    4  A    between atoms: O_7  and  C_8
REMARK    5  A    between atoms: C_13  and  C_17
REMARK    6  A    between atoms: C_15  and  O_16
REMARK                            x       y       z     vdW  Elec       q    Type
REMARK                         _______ _______ _______ _____ _____    ______ ____
ROOT
ATOM      1  C   LIG A   1      -8.701   0.955 123.610  0.00  0.00    +0.205 A 
ATOM      2  C   LIG A   1      -7.564   0.672 124.395  0.00  0.00    +0.188 A 
ATOM      3  C   LIG A   1      -7.110  -0.629 124.673  0.00  0.00    +0.066 A 
ATOM      4  C   LIG A   1      -5.977  -0.764 125.615  0.00  0.00    +0.138 A 
ATOM      5  C   LIG A   1      -5.320   0.330 126.024  0.00  0.00    +0.138 A 
ATOM      6  C   LIG A   1      -5.693   1.684 125.614  0.00  0.00    +0.341 A 
ATOM      7  O   LIG A   1      -5.021   2.646 125.955  0.00  0.00    -0.245 OA
ATOM      8  O   LIG A   1      -6.857   1.802 124.885  0.00  0.00    -0.418 OA
ATOM      9  C   LIG A   1      -7.798  -1.700 124.059  0.00  0.00    -0.033 A 
ATOM     10  C   LIG A   1      -8.939  -1.430 123.276  0.00  0.00    +0.053 A 
ATOM     11  C   LIG A   1      -9.394  -0.124 123.065  0.00  0.00    +0.163 A 
ATOM     12  C   LIG A   1      -7.382  -3.142 124.193  0.00  0.00    +0.045 C 
ENDROOT
BRANCH   1  13
ATOM     13  O   LIG A   1      -8.992   2.287 123.489  0.00  0.00    -0.488 OA
ATOM     14  C   LIG A   1      -8.655   2.957 122.285  0.00  0.00    +0.277 C 
ENDBRANCH   1  13
BRANCH   4  15
ATOM     15  O   LIG A   1      -5.711  -2.043 126.050  0.00  0.00    -0.494 OA
ATOM     16  C   LIG A   1      -5.524  -2.238 127.449  0.00  0.00    +0.277 C 
ENDBRANCH   4  15
BRANCH  11  17
ATOM     17  O   LIG A   1     -10.518   0.050 122.306  0.00  0.00    -0.503 OA
ATOM     18  H   LIG A   1     -10.548  -0.627 121.611  0.00  0.00    +0.292 HD
ENDBRANCH  11  17
TORSDOF 3
ENDMDL
