MODEL 1
REMARK VINA RESULT:      -6.9      0.000      0.000
REMARK  Name = NuBBE_2096
REMARK  6 active torsions:
REMARK  status: ('A' for Active; 'I' for Inactive)
REMARK    1  A    between atoms: C_1  and  O_3
REMARK    2  A    between atoms: C_1  and  C_11
REMARK    3  A    between atoms: O_3  and  C_4
REMARK    4  A    between atoms: C_4  and  C_5
REMARK    5  A    between atoms: C_12  and  O_13
REMARK    6  A    between atoms: O_13  and  C_14
REMARK                            x       y       z     vdW  Elec       q    Type
REMARK                         _______ _______ _______ _____ _____    ______ ____
ROOT
ATOM      1  C   LIG A   1      -8.558   2.690 123.121  0.00  0.00    +0.343 C 
ATOM      2  O   LIG A   1      -8.830   3.368 124.101  0.00  0.00    -0.245 OA
ENDROOT
BRANCH   1   3
ATOM      3  C   LIG A   1      -8.022   3.276 121.861  0.00  0.00    +0.101 A 
ATOM      4  C   LIG A   1      -6.662   3.557 121.632  0.00  0.00    +0.134 A 
ATOM      5  C   LIG A   1      -6.283   4.082 120.388  0.00  0.00    +0.046 A 
ATOM      6  C   LIG A   1      -7.236   4.346 119.399  0.00  0.00    +0.004 A 
ATOM      7  C   LIG A   1      -8.582   4.092 119.638  0.00  0.00    +0.001 A 
ATOM      8  C   LIG A   1      -8.975   3.559 120.864  0.00  0.00    +0.019 A 
BRANCH   4   9
ATOM      9  O   LIG A   1      -5.784   3.340 122.660  0.00  0.00    -0.494 OA
ATOM     10  C   LIG A   1      -5.432   4.439 123.490  0.00  0.00    +0.277 C 
ENDBRANCH   4   9
ENDBRANCH   1   3
BRANCH   1  11
ATOM     11  O   LIG A   1      -8.799   1.366 122.981  0.00  0.00    -0.456 OA
BRANCH  11  12
ATOM     12  C   LIG A   1      -7.786   0.495 123.494  0.00  0.00    +0.268 C 
BRANCH  12  13
ATOM     13  C   LIG A   1      -8.360  -0.841 123.891  0.00  0.00    -0.010 A 
ATOM     14  C   LIG A   1      -8.680  -1.799 122.919  0.00  0.00    +0.007 A 
ATOM     15  C   LIG A   1      -9.216  -3.033 123.290  0.00  0.00    +0.000 A 
ATOM     16  C   LIG A   1      -9.437  -3.321 124.637  0.00  0.00    +0.000 A 
ATOM     17  C   LIG A   1      -9.118  -2.378 125.611  0.00  0.00    +0.000 A 
ATOM     18  C   LIG A   1      -8.581  -1.145 125.241  0.00  0.00    +0.007 A 
ENDBRANCH  12  13
ENDBRANCH  11  12
ENDBRANCH   1  11
TORSDOF 5
ENDMDL
MODEL 2
REMARK VINA RESULT:      -6.8      1.190      2.240
REMARK  Name = NuBBE_2096
REMARK  6 active torsions:
REMARK  status: ('A' for Active; 'I' for Inactive)
REMARK    1  A    between atoms: C_1  and  O_3
REMARK    2  A    between atoms: C_1  and  C_11
REMARK    3  A    between atoms: O_3  and  C_4
REMARK    4  A    between atoms: C_4  and  C_5
REMARK    5  A    between atoms: C_12  and  O_13
REMARK    6  A    between atoms: O_13  and  C_14
REMARK                            x       y       z     vdW  Elec       q    Type
REMARK                         _______ _______ _______ _____ _____    ______ ____
ROOT
ATOM      1  C   LIG A   1      -7.903   2.887 123.216  0.00  0.00    +0.343 C 
ATOM      2  O   LIG A   1      -8.564   3.559 123.994  0.00  0.00    -0.245 OA
ENDROOT
BRANCH   1   3
ATOM      3  C   LIG A   1      -7.079   3.490 122.132  0.00  0.00    +0.101 A 
ATOM      4  C   LIG A   1      -7.570   3.824 120.855  0.00  0.00    +0.134 A 
ATOM      5  C   LIG A   1      -6.695   4.413 119.931  0.00  0.00    +0.046 A 
ATOM      6  C   LIG A   1      -5.354   4.644 120.256  0.00  0.00    +0.004 A 
ATOM      7  C   LIG A   1      -4.867   4.288 121.508  0.00  0.00    +0.001 A 
ATOM      8  C   LIG A   1      -5.724   3.713 122.443  0.00  0.00    +0.019 A 
BRANCH   4   9
ATOM      9  O   LIG A   1      -8.873   3.513 120.571  0.00  0.00    -0.494 OA
ATOM     10  C   LIG A   1      -9.485   4.136 119.450  0.00  0.00    +0.277 C 
ENDBRANCH   4   9
ENDBRANCH   1   3
BRANCH   1  11
ATOM     11  O   LIG A   1      -7.903   1.536 123.137  0.00  0.00    -0.456 OA
BRANCH  11  12
ATOM     12  C   LIG A   1      -9.193   0.917 123.133  0.00  0.00    +0.268 C 
BRANCH  12  13
ATOM     13  C   LIG A   1      -9.134  -0.478 123.702  0.00  0.00    -0.010 A 
ATOM     14  C   LIG A   1      -9.242  -1.597 122.865  0.00  0.00    +0.007 A 
ATOM     15  C   LIG A   1      -9.191  -2.886 123.396  0.00  0.00    +0.000 A 
ATOM     16  C   LIG A   1      -9.031  -3.069 124.770  0.00  0.00    +0.000 A 
ATOM     17  C   LIG A   1      -8.916  -1.964 125.610  0.00  0.00    +0.000 A 
ATOM     18  C   LIG A   1      -8.966  -0.675 125.079  0.00  0.00    +0.007 A 
ENDBRANCH  12  13
ENDBRANCH  11  12
ENDBRANCH   1  11
TORSDOF 5
ENDMDL
MODEL 3
REMARK VINA RESULT:      -6.7      2.007      2.361
REMARK  Name = NuBBE_2096
REMARK  6 active torsions:
REMARK  status: ('A' for Active; 'I' for Inactive)
REMARK    1  A    between atoms: C_1  and  O_3
REMARK    2  A    between atoms: C_1  and  C_11
REMARK    3  A    between atoms: O_3  and  C_4
REMARK    4  A    between atoms: C_4  and  C_5
REMARK    5  A    between atoms: C_12  and  O_13
REMARK    6  A    between atoms: O_13  and  C_14
REMARK                            x       y       z     vdW  Elec       q    Type
REMARK                         _______ _______ _______ _____ _____    ______ ____
ROOT
ATOM      1  C   LIG A   1      -7.109   2.789 123.074  0.00  0.00    +0.343 C 
ATOM      2  O   LIG A   1      -6.776   3.479 124.026  0.00  0.00    -0.245 OA
ENDROOT
BRANCH   1   3
ATOM      3  C   LIG A   1      -7.347   3.351 121.716  0.00  0.00    +0.101 A 
ATOM      4  C   LIG A   1      -6.326   3.775 120.843  0.00  0.00    +0.134 A 
ATOM      5  C   LIG A   1      -6.682   4.260 119.576  0.00  0.00    +0.046 A 
ATOM      6  C   LIG A   1      -8.024   4.348 119.191  0.00  0.00    +0.004 A 
ATOM      7  C   LIG A   1      -9.031   3.954 120.066  0.00  0.00    +0.001 A 
ATOM      8  C   LIG A   1      -8.695   3.458 121.324  0.00  0.00    +0.019 A 
BRANCH   4   9
ATOM      9  O   LIG A   1      -5.036   3.727 121.299  0.00  0.00    -0.494 OA
ATOM     10  C   LIG A   1      -4.399   4.949 121.648  0.00  0.00    +0.277 C 
ENDBRANCH   4   9
ENDBRANCH   1   3
BRANCH   1  11
ATOM     11  O   LIG A   1      -7.421   1.473 123.120  0.00  0.00    -0.456 OA
BRANCH  11  12
ATOM     12  C   LIG A   1      -7.125   0.809 124.352  0.00  0.00    +0.268 C 
BRANCH  12  13
ATOM     13  C   LIG A   1      -6.526  -0.553 124.111  0.00  0.00    -0.010 A 
ATOM     14  C   LIG A   1      -5.952  -1.279 125.165  0.00  0.00    +0.007 A 
ATOM     15  C   LIG A   1      -5.395  -2.537 124.936  0.00  0.00    +0.000 A 
ATOM     16  C   LIG A   1      -5.406  -3.084 123.653  0.00  0.00    +0.000 A 
ATOM     17  C   LIG A   1      -5.979  -2.374 122.600  0.00  0.00    +0.000 A 
ATOM     18  C   LIG A   1      -6.537  -1.116 122.828  0.00  0.00    +0.007 A 
ENDBRANCH  12  13
ENDBRANCH  11  12
ENDBRANCH   1  11
TORSDOF 5
ENDMDL
MODEL 4
REMARK VINA RESULT:      -6.7      2.105      2.672
REMARK  Name = NuBBE_2096
REMARK  6 active torsions:
REMARK  status: ('A' for Active; 'I' for Inactive)
REMARK    1  A    between atoms: C_1  and  O_3
REMARK    2  A    between atoms: C_1  and  C_11
REMARK    3  A    between atoms: O_3  and  C_4
REMARK    4  A    between atoms: C_4  and  C_5
REMARK    5  A    between atoms: C_12  and  O_13
REMARK    6  A    between atoms: O_13  and  C_14
REMARK                            x       y       z     vdW  Elec       q    Type
REMARK                         _______ _______ _______ _____ _____    ______ ____
ROOT
ATOM      1  C   LIG A   1      -8.027   2.998 124.326  0.00  0.00    +0.343 C 
ATOM      2  O   LIG A   1      -8.776   3.754 124.927  0.00  0.00    -0.245 OA
ENDROOT
BRANCH   1   3
ATOM      3  C   LIG A   1      -7.047   3.474 123.311  0.00  0.00    +0.101 A 
ATOM      4  C   LIG A   1      -5.860   4.167 123.619  0.00  0.00    +0.134 A 
ATOM      5  C   LIG A   1      -5.005   4.536 122.570  0.00  0.00    +0.046 A 
ATOM      6  C   LIG A   1      -5.331   4.246 121.241  0.00  0.00    +0.004 A 
ATOM      7  C   LIG A   1      -6.517   3.586 120.939  0.00  0.00    +0.001 A 
ATOM      8  C   LIG A   1      -7.372   3.201 121.969  0.00  0.00    +0.019 A 
BRANCH   4   9
ATOM      9  O   LIG A   1      -5.626   4.480 124.931  0.00  0.00    -0.494 OA
ATOM     10  C   LIG A   1      -4.553   3.831 125.599  0.00  0.00    +0.277 C 
ENDBRANCH   4   9
ENDBRANCH   1   3
BRANCH   1  11
ATOM     11  O   LIG A   1      -8.046   1.646 124.391  0.00  0.00    -0.456 OA
BRANCH  11  12
ATOM     12  C   LIG A   1      -6.977   1.047 125.130  0.00  0.00    +0.268 C 
BRANCH  12  13
ATOM     13  C   LIG A   1      -6.532  -0.248 124.500  0.00  0.00    -0.010 A 
ATOM     14  C   LIG A   1      -5.753  -1.163 125.221  0.00  0.00    +0.007 A 
ATOM     15  C   LIG A   1      -5.339  -2.359 124.632  0.00  0.00    +0.000 A 
ATOM     16  C   LIG A   1      -5.701  -2.652 123.318  0.00  0.00    +0.000 A 
ATOM     17  C   LIG A   1      -6.480  -1.752 122.594  0.00  0.00    +0.000 A 
ATOM     18  C   LIG A   1      -6.895  -0.557 123.182  0.00  0.00    +0.007 A 
ENDBRANCH  12  13
ENDBRANCH  11  12
ENDBRANCH   1  11
TORSDOF 5
ENDMDL
MODEL 5
REMARK VINA RESULT:      -6.6      1.729      6.496
REMARK  Name = NuBBE_2096
REMARK  6 active torsions:
REMARK  status: ('A' for Active; 'I' for Inactive)
REMARK    1  A    between atoms: C_1  and  O_3
REMARK    2  A    between atoms: C_1  and  C_11
REMARK    3  A    between atoms: O_3  and  C_4
REMARK    4  A    between atoms: C_4  and  C_5
REMARK    5  A    between atoms: C_12  and  O_13
REMARK    6  A    between atoms: O_13  and  C_14
REMARK                            x       y       z     vdW  Elec       q    Type
REMARK                         _______ _______ _______ _____ _____    ______ ____
ROOT
ATOM      1  C   LIG A   1      -8.616   0.376 123.695  0.00  0.00    +0.343 C 
ATOM      2  O   LIG A   1      -9.801   0.109 123.559  0.00  0.00    -0.245 OA
ENDROOT
BRANCH   1   3
ATOM      3  C   LIG A   1      -7.590  -0.655 124.017  0.00  0.00    +0.101 A 
ATOM      4  C   LIG A   1      -7.643  -1.991 123.577  0.00  0.00    +0.134 A 
ATOM      5  C   LIG A   1      -6.597  -2.857 123.927  0.00  0.00    +0.046 A 
ATOM      6  C   LIG A   1      -5.531  -2.414 124.717  0.00  0.00    +0.004 A 
ATOM      7  C   LIG A   1      -5.496  -1.100 125.172  0.00  0.00    +0.001 A 
ATOM      8  C   LIG A   1      -6.520  -0.224 124.824  0.00  0.00    +0.019 A 
BRANCH   4   9
ATOM      9  O   LIG A   1      -8.743  -2.385 122.863  0.00  0.00    -0.494 OA
ATOM     10  C   LIG A   1      -9.604  -3.362 123.433  0.00  0.00    +0.277 C 
ENDBRANCH   4   9
ENDBRANCH   1   3
BRANCH   1  11
ATOM     11  O   LIG A   1      -8.078   1.618 123.695  0.00  0.00    -0.456 OA
BRANCH  11  12
ATOM     12  C   LIG A   1      -8.844   2.623 123.024  0.00  0.00    +0.268 C 
BRANCH  12  13
ATOM     13  C   LIG A   1      -8.081   3.211 121.864  0.00  0.00    -0.010 A 
ATOM     14  C   LIG A   1      -8.758   3.697 120.736  0.00  0.00    +0.007 A 
ATOM     15  C   LIG A   1      -8.048   4.235 119.662  0.00  0.00    +0.000 A 
ATOM     16  C   LIG A   1      -6.655   4.294 119.705  0.00  0.00    +0.000 A 
ATOM     17  C   LIG A   1      -5.973   3.819 120.823  0.00  0.00    +0.000 A 
ATOM     18  C   LIG A   1      -6.682   3.281 121.898  0.00  0.00    +0.007 A 
ENDBRANCH  12  13
ENDBRANCH  11  12
ENDBRANCH   1  11
TORSDOF 5
ENDMDL
MODEL 6
REMARK VINA RESULT:      -6.6      8.667     10.248
REMARK  Name = NuBBE_2096
REMARK  6 active torsions:
REMARK  status: ('A' for Active; 'I' for Inactive)
REMARK    1  A    between atoms: C_1  and  O_3
REMARK    2  A    between atoms: C_1  and  C_11
REMARK    3  A    between atoms: O_3  and  C_4
REMARK    4  A    between atoms: C_4  and  C_5
REMARK    5  A    between atoms: C_12  and  O_13
REMARK    6  A    between atoms: O_13  and  C_14
REMARK                            x       y       z     vdW  Elec       q    Type
REMARK                         _______ _______ _______ _____ _____    ______ ____
ROOT
ATOM      1  C   LIG A   1      -9.226   6.124 129.395  0.00  0.00    +0.343 C 
ATOM      2  O   LIG A   1      -9.202   5.408 128.406  0.00  0.00    -0.245 OA
ENDROOT
BRANCH   1   3
ATOM      3  C   LIG A   1     -10.472   6.771 129.891  0.00  0.00    +0.101 A 
ATOM      4  C   LIG A   1     -11.123   7.839 129.245  0.00  0.00    +0.134 A 
ATOM      5  C   LIG A   1     -12.309   8.340 129.802  0.00  0.00    +0.046 A 
ATOM      6  C   LIG A   1     -12.826   7.810 130.988  0.00  0.00    +0.004 A 
ATOM      7  C   LIG A   1     -12.166   6.773 131.638  0.00  0.00    +0.001 A 
ATOM      8  C   LIG A   1     -10.994   6.255 131.093  0.00  0.00    +0.019 A 
BRANCH   4   9
ATOM      9  O   LIG A   1     -10.535   8.361 128.124  0.00  0.00    -0.494 OA
ATOM     10  C   LIG A   1     -11.045   7.977 126.854  0.00  0.00    +0.277 C 
ENDBRANCH   4   9
ENDBRANCH   1   3
BRANCH   1  11
ATOM     11  O   LIG A   1      -8.148   6.530 130.107  0.00  0.00    -0.456 OA
BRANCH  11  12
ATOM     12  C   LIG A   1      -7.299   5.486 130.593  0.00  0.00    +0.268 C 
BRANCH  12  13
ATOM     13  C   LIG A   1      -7.764   4.980 131.934  0.00  0.00    -0.010 A 
ATOM     14  C   LIG A   1      -8.309   3.695 132.064  0.00  0.00    +0.007 A 
ATOM     15  C   LIG A   1      -8.743   3.233 133.307  0.00  0.00    +0.000 A 
ATOM     16  C   LIG A   1      -8.635   4.049 134.433  0.00  0.00    +0.000 A 
ATOM     17  C   LIG A   1      -8.090   5.326 134.316  0.00  0.00    +0.000 A 
ATOM     18  C   LIG A   1      -7.656   5.789 133.074  0.00  0.00    +0.007 A 
ENDBRANCH  12  13
ENDBRANCH  11  12
ENDBRANCH   1  11
TORSDOF 5
ENDMDL
MODEL 7
REMARK VINA RESULT:      -6.6      9.061     11.484
REMARK  Name = NuBBE_2096
REMARK  6 active torsions:
REMARK  status: ('A' for Active; 'I' for Inactive)
REMARK    1  A    between atoms: C_1  and  O_3
REMARK    2  A    between atoms: C_1  and  C_11
REMARK    3  A    between atoms: O_3  and  C_4
REMARK    4  A    between atoms: C_4  and  C_5
REMARK    5  A    between atoms: C_12  and  O_13
REMARK    6  A    between atoms: O_13  and  C_14
REMARK                            x       y       z     vdW  Elec       q    Type
REMARK                         _______ _______ _______ _____ _____    ______ ____
ROOT
ATOM      1  C   LIG A   1      -9.665   6.385 131.300  0.00  0.00    +0.343 C 
ATOM      2  O   LIG A   1      -9.162   6.523 130.195  0.00  0.00    -0.245 OA
ENDROOT
BRANCH   1   3
ATOM      3  C   LIG A   1      -9.191   5.367 132.279  0.00  0.00    +0.101 A 
ATOM      4  C   LIG A   1      -9.361   3.978 132.123  0.00  0.00    +0.134 A 
ATOM      5  C   LIG A   1      -8.842   3.122 133.105  0.00  0.00    +0.046 A 
ATOM      6  C   LIG A   1      -8.189   3.634 134.232  0.00  0.00    +0.004 A 
ATOM      7  C   LIG A   1      -8.047   5.008 134.396  0.00  0.00    +0.001 A 
ATOM      8  C   LIG A   1      -8.546   5.872 133.424  0.00  0.00    +0.019 A 
BRANCH   4   9
ATOM      9  O   LIG A   1     -10.065   3.539 131.034  0.00  0.00    -0.494 OA
ATOM     10  C   LIG A   1      -9.349   2.925 129.971  0.00  0.00    +0.277 C 
ENDBRANCH   4   9
ENDBRANCH   1   3
BRANCH   1  11
ATOM     11  O   LIG A   1     -10.767   7.025 131.756  0.00  0.00    -0.456 OA
BRANCH  11  12
ATOM     12  C   LIG A   1     -12.020   6.480 131.327  0.00  0.00    +0.268 C 
BRANCH  12  13
ATOM     13  C   LIG A   1     -12.566   7.229 130.139  0.00  0.00    -0.010 A 
ATOM     14  C   LIG A   1     -13.044   6.539 129.016  0.00  0.00    +0.007 A 
ATOM     15  C   LIG A   1     -13.544   7.236 127.916  0.00  0.00    +0.000 A 
ATOM     16  C   LIG A   1     -13.572   8.630 127.927  0.00  0.00    +0.000 A 
ATOM     17  C   LIG A   1     -13.105   9.327 129.040  0.00  0.00    +0.000 A 
ATOM     18  C   LIG A   1     -12.605   8.630 130.140  0.00  0.00    +0.007 A 
ENDBRANCH  12  13
ENDBRANCH  11  12
ENDBRANCH   1  11
TORSDOF 5
ENDMDL
MODEL 8
REMARK VINA RESULT:      -6.5      7.571      8.970
REMARK  Name = NuBBE_2096
REMARK  6 active torsions:
REMARK  status: ('A' for Active; 'I' for Inactive)
REMARK    1  A    between atoms: C_1  and  O_3
REMARK    2  A    between atoms: C_1  and  C_11
REMARK    3  A    between atoms: O_3  and  C_4
REMARK    4  A    between atoms: C_4  and  C_5
REMARK    5  A    between atoms: C_12  and  O_13
REMARK    6  A    between atoms: O_13  and  C_14
REMARK                            x       y       z     vdW  Elec       q    Type
REMARK                         _______ _______ _______ _____ _____    ______ ____
ROOT
ATOM      1  C   LIG A   1      -9.411   6.042 129.808  0.00  0.00    +0.343 C 
ATOM      2  O   LIG A   1      -8.293   6.452 130.085  0.00  0.00    -0.245 OA
ENDROOT
BRANCH   1   3
ATOM      3  C   LIG A   1     -10.639   6.863 129.998  0.00  0.00    +0.101 A 
ATOM      4  C   LIG A   1     -11.069   7.865 129.108  0.00  0.00    +0.134 A 
ATOM      5  C   LIG A   1     -12.262   8.547 129.388  0.00  0.00    +0.046 A 
ATOM      6  C   LIG A   1     -13.001   8.260 130.540  0.00  0.00    +0.004 A 
ATOM      7  C   LIG A   1     -12.559   7.288 131.431  0.00  0.00    +0.001 A 
ATOM      8  C   LIG A   1     -11.383   6.592 131.162  0.00  0.00    +0.019 A 
BRANCH   4   9
ATOM      9  O   LIG A   1     -10.271   8.149 128.032  0.00  0.00    -0.494 OA
ATOM     10  C   LIG A   1     -10.727   7.780 126.737  0.00  0.00    +0.277 C 
ENDBRANCH   4   9
ENDBRANCH   1   3
BRANCH   1  11
ATOM     11  O   LIG A   1      -9.719   4.785 129.411  0.00  0.00    -0.456 OA
BRANCH  11  12
ATOM     12  C   LIG A   1      -8.614   3.884 129.298  0.00  0.00    +0.268 C 
BRANCH  12  13
ATOM     13  C   LIG A   1      -8.821   2.654 130.145  0.00  0.00    -0.010 A 
ATOM     14  C   LIG A   1      -8.159   1.456 129.841  0.00  0.00    +0.007 A 
ATOM     15  C   LIG A   1      -8.358   0.319 130.624  0.00  0.00    +0.000 A 
ATOM     16  C   LIG A   1      -9.218   0.368 131.721  0.00  0.00    +0.000 A 
ATOM     17  C   LIG A   1      -9.876   1.555 132.036  0.00  0.00    +0.000 A 
ATOM     18  C   LIG A   1      -9.678   2.692 131.253  0.00  0.00    +0.007 A 
ENDBRANCH  12  13
ENDBRANCH  11  12
ENDBRANCH   1  11
TORSDOF 5
ENDMDL
MODEL 9
REMARK VINA RESULT:      -6.4      8.561     10.799
REMARK  Name = NuBBE_2096
REMARK  6 active torsions:
REMARK  status: ('A' for Active; 'I' for Inactive)
REMARK    1  A    between atoms: C_1  and  O_3
REMARK    2  A    between atoms: C_1  and  C_11
REMARK    3  A    between atoms: O_3  and  C_4
REMARK    4  A    between atoms: C_4  and  C_5
REMARK    5  A    between atoms: C_12  and  O_13
REMARK    6  A    between atoms: O_13  and  C_14
REMARK                            x       y       z     vdW  Elec       q    Type
REMARK                         _______ _______ _______ _____ _____    ______ ____
ROOT
ATOM      1  C   LIG A   1      -9.517   6.289 129.723  0.00  0.00    +0.343 C 
ATOM      2  O   LIG A   1      -9.494   5.278 129.037  0.00  0.00    -0.245 OA
ENDROOT
BRANCH   1   3
ATOM      3  C   LIG A   1     -10.756   7.086 129.941  0.00  0.00    +0.101 A 
ATOM      4  C   LIG A   1     -11.222   8.084 129.064  0.00  0.00    +0.134 A 
ATOM      5  C   LIG A   1     -12.421   8.743 129.370  0.00  0.00    +0.046 A 
ATOM      6  C   LIG A   1     -13.132   8.436 130.536  0.00  0.00    +0.004 A 
ATOM      7  C   LIG A   1     -12.655   7.469 131.413  0.00  0.00    +0.001 A 
ATOM      8  C   LIG A   1     -11.472   6.796 131.118  0.00  0.00    +0.019 A 
BRANCH   4   9
ATOM      9  O   LIG A   1     -10.450   8.387 127.974  0.00  0.00    -0.494 OA
ATOM     10  C   LIG A   1     -10.855   7.896 126.704  0.00  0.00    +0.277 C 
ENDBRANCH   4   9
ENDBRANCH   1   3
BRANCH   1  11
ATOM     11  O   LIG A   1      -8.442   6.896 130.277  0.00  0.00    -0.456 OA
BRANCH  11  12
ATOM     12  C   LIG A   1      -7.980   6.331 131.509  0.00  0.00    +0.268 C 
BRANCH  12  13
ATOM     13  C   LIG A   1      -6.496   6.530 131.681  0.00  0.00    -0.010 A 
ATOM     14  C   LIG A   1      -5.752   7.227 130.719  0.00  0.00    +0.007 A 
ATOM     15  C   LIG A   1      -4.377   7.404 130.880  0.00  0.00    +0.000 A 
ATOM     16  C   LIG A   1      -3.733   6.887 132.004  0.00  0.00    +0.000 A 
ATOM     17  C   LIG A   1      -4.464   6.197 132.969  0.00  0.00    +0.000 A 
ATOM     18  C   LIG A   1      -5.838   6.021 132.809  0.00  0.00    +0.007 A 
ENDBRANCH  12  13
ENDBRANCH  11  12
ENDBRANCH   1  11
TORSDOF 5
ENDMDL
