MODEL 1
REMARK VINA RESULT:      -6.8      0.000      0.000
REMARK  Name = NuBBE_1903
REMARK  7 active torsions:
REMARK  status: ('A' for Active; 'I' for Inactive)
REMARK    1  A    between atoms: C_1  and  O_2
REMARK    2  A    between atoms: O_2  and  C_3
REMARK    3  A    between atoms: C_7  and  C_8
REMARK    4  A    between atoms: C_16  and  C_17
REMARK    5  A    between atoms: C_17  and  C_18
REMARK    6  A    between atoms: C_17  and  O_19
REMARK    7  A    between atoms: C_17  and  C_20
REMARK                            x       y       z     vdW  Elec       q    Type
REMARK                         _______ _______ _______ _____ _____    ______ ____
ROOT
ATOM      1  C   LIG A   1      -7.321  -0.875 125.389  0.00  0.00    +0.192 C 
ATOM      2  C   LIG A   1      -6.241  -1.381 126.381  0.00  0.00    +0.241 C 
ATOM      3  C   LIG A   1      -6.918  -2.092 127.476  0.00  0.00    +0.017 A 
ATOM      4  C   LIG A   1      -8.018  -2.912 127.326  0.00  0.00    -0.014 A 
ATOM      5  C   LIG A   1      -8.565  -3.478 128.485  0.00  0.00    -0.043 A 
ATOM      6  C   LIG A   1      -9.762  -4.386 128.437  0.00  0.00    +0.044 C 
ATOM      7  C   LIG A   1      -7.982  -3.167 129.743  0.00  0.00    +0.005 A 
ATOM      8  C   LIG A   1      -6.912  -2.263 129.855  0.00  0.00    +0.015 A 
ATOM      9  C   LIG A   1      -6.409  -1.729 128.689  0.00  0.00    +0.066 A 
ATOM     10  C   LIG A   1      -5.442  -0.662 128.446  0.00  0.00    +0.340 C 
ATOM     11  O   LIG A   1      -5.443  -0.415 127.087  0.00  0.00    -0.450 OA
ATOM     12  O   LIG A   1      -4.806  -0.065 129.283  0.00  0.00    -0.245 OA
ATOM     13  C   LIG A   1      -8.536  -3.011 125.958  0.00  0.00    +0.013 C 
ATOM     14  C   LIG A   1      -8.257  -2.059 125.026  0.00  0.00    -0.006 C 
ENDROOT
BRANCH  14  15
ATOM     15  C   LIG A   1      -8.828  -2.096 123.612  0.00  0.00    +0.084 C 
ATOM     16  C   LIG A   1      -9.648  -3.365 123.334  0.00  0.00    +0.046 C 
ATOM     17  C   LIG A   1      -7.757  -1.964 122.513  0.00  0.00    +0.046 C 
BRANCH  15  18
ATOM     18  O   LIG A   1      -9.674  -0.950 123.469  0.00  0.00    -0.385 OA
ATOM     19  H   LIG A   1      -9.625  -0.647 122.547  0.00  0.00    +0.211 HD
ENDBRANCH  15  18
ENDBRANCH  14  15
BRANCH   1  21
ATOM     20  C   LIG A   1      -7.939   1.451 125.393  0.00  0.00    +0.195 C 
ATOM     21  O   LIG A   1      -8.181   0.151 125.909  0.00  0.00    -0.371 OA
ENDBRANCH   1  21
TORSDOF 3
ENDMDL
MODEL 2
REMARK VINA RESULT:      -6.5      1.774      5.096
REMARK  Name = NuBBE_1903
REMARK  7 active torsions:
REMARK  status: ('A' for Active; 'I' for Inactive)
REMARK    1  A    between atoms: C_1  and  O_2
REMARK    2  A    between atoms: O_2  and  C_3
REMARK    3  A    between atoms: C_7  and  C_8
REMARK    4  A    between atoms: C_16  and  C_17
REMARK    5  A    between atoms: C_17  and  C_18
REMARK    6  A    between atoms: C_17  and  O_19
REMARK    7  A    between atoms: C_17  and  C_20
REMARK                            x       y       z     vdW  Elec       q    Type
REMARK                         _______ _______ _______ _____ _____    ______ ____
ROOT
ATOM      1  C   LIG A   1      -7.656   0.016 127.310  0.00  0.00    +0.192 C 
ATOM      2  C   LIG A   1      -8.782   0.793 126.578  0.00  0.00    +0.241 C 
ATOM      3  C   LIG A   1      -9.034   0.132 125.288  0.00  0.00    +0.017 A 
ATOM      4  C   LIG A   1      -9.021  -1.232 125.082  0.00  0.00    -0.014 A 
ATOM      5  C   LIG A   1      -9.239  -1.691 123.777  0.00  0.00    -0.043 A 
ATOM      6  C   LIG A   1      -9.247  -3.157 123.441  0.00  0.00    +0.044 C 
ATOM      7  C   LIG A   1      -9.437  -0.742 122.739  0.00  0.00    +0.005 A 
ATOM      8  C   LIG A   1      -9.362   0.640 122.981  0.00  0.00    +0.015 A 
ATOM      9  C   LIG A   1      -9.143   1.044 124.279  0.00  0.00    +0.066 A 
ATOM     10  C   LIG A   1      -8.848   2.355 124.853  0.00  0.00    +0.340 C 
ATOM     11  O   LIG A   1      -8.543   2.155 126.185  0.00  0.00    -0.450 OA
ATOM     12  O   LIG A   1      -8.817   3.408 124.260  0.00  0.00    -0.245 OA
ATOM     13  C   LIG A   1      -8.683  -2.035 126.262  0.00  0.00    +0.013 C 
ATOM     14  C   LIG A   1      -8.015  -1.493 127.318  0.00  0.00    -0.006 C 
ENDROOT
BRANCH  14  15
ATOM     15  C   LIG A   1      -7.592  -2.311 128.534  0.00  0.00    +0.084 C 
ATOM     16  C   LIG A   1      -8.305  -3.668 128.616  0.00  0.00    +0.046 C 
ATOM     17  C   LIG A   1      -7.800  -1.575 129.871  0.00  0.00    +0.046 C 
BRANCH  15  18
ATOM     18  O   LIG A   1      -6.180  -2.527 128.426  0.00  0.00    -0.385 OA
ATOM     19  H   LIG A   1      -6.035  -3.434 128.111  0.00  0.00    +0.211 HD
ENDBRANCH  15  18
ENDBRANCH  14  15
BRANCH   1  21
ATOM     20  C   LIG A   1      -5.403   0.860 127.408  0.00  0.00    +0.195 C 
ATOM     21  O   LIG A   1      -6.364   0.103 126.686  0.00  0.00    -0.371 OA
ENDBRANCH   1  21
TORSDOF 3
ENDMDL
MODEL 3
REMARK VINA RESULT:      -6.4      2.139      5.455
REMARK  Name = NuBBE_1903
REMARK  7 active torsions:
REMARK  status: ('A' for Active; 'I' for Inactive)
REMARK    1  A    between atoms: C_1  and  O_2
REMARK    2  A    between atoms: O_2  and  C_3
REMARK    3  A    between atoms: C_7  and  C_8
REMARK    4  A    between atoms: C_16  and  C_17
REMARK    5  A    between atoms: C_17  and  C_18
REMARK    6  A    between atoms: C_17  and  O_19
REMARK    7  A    between atoms: C_17  and  C_20
REMARK                            x       y       z     vdW  Elec       q    Type
REMARK                         _______ _______ _______ _____ _____    ______ ____
ROOT
ATOM      1  C   LIG A   1      -6.126  -0.450 127.172  0.00  0.00    +0.192 C 
ATOM      2  C   LIG A   1      -7.243  -0.629 126.109  0.00  0.00    +0.241 C 
ATOM      3  C   LIG A   1      -6.684  -1.382 124.975  0.00  0.00    +0.017 A 
ATOM      4  C   LIG A   1      -5.793  -2.429 125.084  0.00  0.00    -0.014 A 
ATOM      5  C   LIG A   1      -5.327  -3.008 123.896  0.00  0.00    -0.043 A 
ATOM      6  C   LIG A   1      -4.356  -4.155 123.899  0.00  0.00    +0.044 C 
ATOM      7  C   LIG A   1      -5.771  -2.478 122.655  0.00  0.00    +0.005 A 
ATOM      8  C   LIG A   1      -6.616  -1.358 122.592  0.00  0.00    +0.015 A 
ATOM      9  C   LIG A   1      -7.047  -0.822 123.785  0.00  0.00    +0.066 A 
ATOM     10  C   LIG A   1      -7.773   0.407 124.093  0.00  0.00    +0.340 C 
ATOM     11  O   LIG A   1      -7.782   0.540 125.468  0.00  0.00    -0.450 OA
ATOM     12  O   LIG A   1      -8.228   1.193 123.294  0.00  0.00    -0.245 OA
ATOM     13  C   LIG A   1      -5.372  -2.747 126.453  0.00  0.00    +0.013 C 
ATOM     14  C   LIG A   1      -5.484  -1.834 127.456  0.00  0.00    -0.006 C 
ENDROOT
BRANCH  14  15
ATOM     15  C   LIG A   1      -5.000  -2.106 128.877  0.00  0.00    +0.084 C 
ATOM     16  C   LIG A   1      -4.111  -3.355 128.974  0.00  0.00    +0.046 C 
ATOM     17  C   LIG A   1      -6.144  -2.247 129.899  0.00  0.00    +0.046 C 
BRANCH  15  18
ATOM     18  O   LIG A   1      -4.247  -0.960 129.292  0.00  0.00    -0.385 OA
ATOM     19  H   LIG A   1      -3.452  -0.902 128.738  0.00  0.00    +0.211 HD
ENDBRANCH  15  18
ENDBRANCH  14  15
BRANCH   1  21
ATOM     20  C   LIG A   1      -5.106   1.728 127.274  0.00  0.00    +0.195 C 
ATOM     21  O   LIG A   1      -5.044   0.403 126.767  0.00  0.00    -0.371 OA
ENDBRANCH   1  21
TORSDOF 3
ENDMDL
MODEL 4
REMARK VINA RESULT:      -6.3      7.695      9.895
REMARK  Name = NuBBE_1903
REMARK  7 active torsions:
REMARK  status: ('A' for Active; 'I' for Inactive)
REMARK    1  A    between atoms: C_1  and  O_2
REMARK    2  A    between atoms: O_2  and  C_3
REMARK    3  A    between atoms: C_7  and  C_8
REMARK    4  A    between atoms: C_16  and  C_17
REMARK    5  A    between atoms: C_17  and  C_18
REMARK    6  A    between atoms: C_17  and  O_19
REMARK    7  A    between atoms: C_17  and  C_20
REMARK                            x       y       z     vdW  Elec       q    Type
REMARK                         _______ _______ _______ _____ _____    ______ ____
ROOT
ATOM      1  C   LIG A   1      -9.886   5.470 131.386  0.00  0.00    +0.192 C 
ATOM      2  C   LIG A   1      -9.145   5.652 132.736  0.00  0.00    +0.241 C 
ATOM      3  C   LIG A   1      -7.733   5.955 132.450  0.00  0.00    +0.017 A 
ATOM      4  C   LIG A   1      -7.290   6.752 131.415  0.00  0.00    -0.014 A 
ATOM      5  C   LIG A   1      -5.905   6.901 131.262  0.00  0.00    -0.043 A 
ATOM      6  C   LIG A   1      -5.314   7.747 130.169  0.00  0.00    +0.044 C 
ATOM      7  C   LIG A   1      -5.038   6.213 132.152  0.00  0.00    +0.005 A 
ATOM      8  C   LIG A   1      -5.533   5.347 133.141  0.00  0.00    +0.015 A 
ATOM      9  C   LIG A   1      -6.901   5.231 133.253  0.00  0.00    +0.066 A 
ATOM     10  C   LIG A   1      -7.739   4.323 134.032  0.00  0.00    +0.340 C 
ATOM     11  O   LIG A   1      -9.044   4.529 133.629  0.00  0.00    -0.450 OA
ATOM     12  O   LIG A   1      -7.357   3.503 134.834  0.00  0.00    -0.245 OA
ATOM     13  C   LIG A   1      -8.343   7.277 130.540  0.00  0.00    +0.013 C 
ATOM     14  C   LIG A   1      -9.567   6.685 130.475  0.00  0.00    -0.006 C 
ENDROOT
BRANCH  14  15
ATOM     15  C   LIG A   1     -10.666   7.164 129.531  0.00  0.00    +0.084 C 
ATOM     16  C   LIG A   1     -10.220   8.336 128.645  0.00  0.00    +0.046 C 
ATOM     17  C   LIG A   1     -11.963   7.572 130.256  0.00  0.00    +0.046 C 
BRANCH  15  18
ATOM     18  O   LIG A   1     -11.020   6.053 128.698  0.00  0.00    -0.385 OA
ATOM     19  H   LIG A   1     -11.399   6.400 127.874  0.00  0.00    +0.211 HD
ENDBRANCH  15  18
ENDBRANCH  14  15
BRANCH   1  21
ATOM     20  C   LIG A   1     -10.417   3.235 130.665  0.00  0.00    +0.195 C 
ATOM     21  O   LIG A   1      -9.490   4.310 130.636  0.00  0.00    -0.371 OA
ENDBRANCH   1  21
TORSDOF 3
ENDMDL
MODEL 5
REMARK VINA RESULT:      -6.2      2.677      4.531
REMARK  Name = NuBBE_1903
REMARK  7 active torsions:
REMARK  status: ('A' for Active; 'I' for Inactive)
REMARK    1  A    between atoms: C_1  and  O_2
REMARK    2  A    between atoms: O_2  and  C_3
REMARK    3  A    between atoms: C_7  and  C_8
REMARK    4  A    between atoms: C_16  and  C_17
REMARK    5  A    between atoms: C_17  and  C_18
REMARK    6  A    between atoms: C_17  and  O_19
REMARK    7  A    between atoms: C_17  and  C_20
REMARK                            x       y       z     vdW  Elec       q    Type
REMARK                         _______ _______ _______ _____ _____    ______ ____
ROOT
ATOM      1  C   LIG A   1      -8.260  -0.740 124.108  0.00  0.00    +0.192 C 
ATOM      2  C   LIG A   1      -7.104   0.294 124.116  0.00  0.00    +0.241 C 
ATOM      3  C   LIG A   1      -7.280   1.172 125.284  0.00  0.00    +0.017 A 
ATOM      4  C   LIG A   1      -7.717   0.758 126.525  0.00  0.00    -0.014 A 
ATOM      5  C   LIG A   1      -7.869   1.737 127.516  0.00  0.00    -0.043 A 
ATOM      6  C   LIG A   1      -8.339   1.397 128.903  0.00  0.00    +0.044 C 
ATOM      7  C   LIG A   1      -7.592   3.092 127.191  0.00  0.00    +0.005 A 
ATOM      8  C   LIG A   1      -7.226   3.477 125.891  0.00  0.00    +0.015 A 
ATOM      9  C   LIG A   1      -7.091   2.481 124.950  0.00  0.00    +0.066 A 
ATOM     10  C   LIG A   1      -6.896   2.530 123.503  0.00  0.00    +0.340 C 
ATOM     11  O   LIG A   1      -7.009   1.236 123.034  0.00  0.00    -0.450 OA
ATOM     12  O   LIG A   1      -6.727   3.523 122.834  0.00  0.00    -0.245 OA
ATOM     13  C   LIG A   1      -8.060  -0.664 126.621  0.00  0.00    +0.013 C 
ATOM     14  C   LIG A   1      -8.351  -1.397 125.511  0.00  0.00    -0.006 C 
ENDROOT
BRANCH  14  15
ATOM     15  C   LIG A   1      -8.772  -2.862 125.576  0.00  0.00    +0.084 C 
ATOM     16  C   LIG A   1      -8.787  -3.414 127.009  0.00  0.00    +0.046 C 
ATOM     17  C   LIG A   1      -7.900  -3.791 124.710  0.00  0.00    +0.046 C 
BRANCH  15  18
ATOM     18  O   LIG A   1     -10.092  -2.946 125.026  0.00  0.00    -0.385 OA
ATOM     19  H   LIG A   1     -10.375  -3.874 125.055  0.00  0.00    +0.211 HD
ENDBRANCH  15  18
ENDBRANCH  14  15
BRANCH   1  21
ATOM     20  C   LIG A   1      -9.982  -0.241 122.501  0.00  0.00    +0.195 C 
ATOM     21  O   LIG A   1      -9.561  -0.185 123.856  0.00  0.00    -0.371 OA
ENDBRANCH   1  21
TORSDOF 3
ENDMDL
MODEL 6
REMARK VINA RESULT:      -6.2      8.582     10.740
REMARK  Name = NuBBE_1903
REMARK  7 active torsions:
REMARK  status: ('A' for Active; 'I' for Inactive)
REMARK    1  A    between atoms: C_1  and  O_2
REMARK    2  A    between atoms: O_2  and  C_3
REMARK    3  A    between atoms: C_7  and  C_8
REMARK    4  A    between atoms: C_16  and  C_17
REMARK    5  A    between atoms: C_17  and  C_18
REMARK    6  A    between atoms: C_17  and  O_19
REMARK    7  A    between atoms: C_17  and  C_20
REMARK                            x       y       z     vdW  Elec       q    Type
REMARK                         _______ _______ _______ _____ _____    ______ ____
ROOT
ATOM      1  C   LIG A   1      -7.218   5.609 131.696  0.00  0.00    +0.192 C 
ATOM      2  C   LIG A   1      -5.974   5.086 130.931  0.00  0.00    +0.241 C 
ATOM      3  C   LIG A   1      -4.800   5.850 131.383  0.00  0.00    +0.017 A 
ATOM      4  C   LIG A   1      -4.574   6.255 132.682  0.00  0.00    -0.014 A 
ATOM      5  C   LIG A   1      -3.422   7.015 132.930  0.00  0.00    -0.043 A 
ATOM      6  C   LIG A   1      -3.078   7.508 134.308  0.00  0.00    +0.044 C 
ATOM      7  C   LIG A   1      -2.570   7.345 131.843  0.00  0.00    +0.005 A 
ATOM      8  C   LIG A   1      -2.883   6.978 130.523  0.00  0.00    +0.015 A 
ATOM      9  C   LIG A   1      -4.026   6.234 130.328  0.00  0.00    +0.066 A 
ATOM     10  C   LIG A   1      -4.729   5.834 129.112  0.00  0.00    +0.340 C 
ATOM     11  O   LIG A   1      -5.918   5.251 129.503  0.00  0.00    -0.450 OA
ATOM     12  O   LIG A   1      -4.368   6.031 127.975  0.00  0.00    -0.245 OA
ATOM     13  C   LIG A   1      -5.634   5.910 133.635  0.00  0.00    +0.013 C 
ATOM     14  C   LIG A   1      -6.897   5.629 133.214  0.00  0.00    -0.006 C 
ENDROOT
BRANCH  14  15
ATOM     15  C   LIG A   1      -8.040   5.326 134.179  0.00  0.00    +0.084 C 
ATOM     16  C   LIG A   1      -7.640   5.508 135.650  0.00  0.00    +0.046 C 
ATOM     17  C   LIG A   1      -8.629   3.913 134.009  0.00  0.00    +0.046 C 
BRANCH  15  18
ATOM     18  O   LIG A   1      -9.106   6.231 133.866  0.00  0.00    -0.385 OA
ATOM     19  H   LIG A   1      -9.711   6.262 134.625  0.00  0.00    +0.211 HD
ENDBRANCH  15  18
ENDBRANCH  14  15
BRANCH   1  21
ATOM     20  C   LIG A   1      -8.789   7.057 130.587  0.00  0.00    +0.195 C 
ATOM     21  O   LIG A   1      -7.606   6.952 131.365  0.00  0.00    -0.371 OA
ENDBRANCH   1  21
TORSDOF 3
ENDMDL
MODEL 7
REMARK VINA RESULT:      -6.1      2.112      5.666
REMARK  Name = NuBBE_1903
REMARK  7 active torsions:
REMARK  status: ('A' for Active; 'I' for Inactive)
REMARK    1  A    between atoms: C_1  and  O_2
REMARK    2  A    between atoms: O_2  and  C_3
REMARK    3  A    between atoms: C_7  and  C_8
REMARK    4  A    between atoms: C_16  and  C_17
REMARK    5  A    between atoms: C_17  and  C_18
REMARK    6  A    between atoms: C_17  and  O_19
REMARK    7  A    between atoms: C_17  and  C_20
REMARK                            x       y       z     vdW  Elec       q    Type
REMARK                         _______ _______ _______ _____ _____    ______ ____
ROOT
ATOM      1  C   LIG A   1      -5.202  -2.471 129.767  0.00  0.00    +0.192 C 
ATOM      2  C   LIG A   1      -5.806  -1.459 128.758  0.00  0.00    +0.241 C 
ATOM      3  C   LIG A   1      -6.927  -2.114 128.065  0.00  0.00    +0.017 A 
ATOM      4  C   LIG A   1      -7.828  -2.975 128.657  0.00  0.00    -0.014 A 
ATOM      5  C   LIG A   1      -8.812  -3.544 127.838  0.00  0.00    -0.043 A 
ATOM      6  C   LIG A   1      -9.844  -4.494 128.379  0.00  0.00    +0.044 C 
ATOM      7  C   LIG A   1      -8.818  -3.230 126.453  0.00  0.00    +0.005 A 
ATOM      8  C   LIG A   1      -7.832  -2.411 125.879  0.00  0.00    +0.015 A 
ATOM      9  C   LIG A   1      -6.884  -1.876 126.723  0.00  0.00    +0.066 A 
ATOM     10  C   LIG A   1      -5.650  -1.141 126.457  0.00  0.00    +0.340 C 
ATOM     11  O   LIG A   1      -4.993  -1.002 127.664  0.00  0.00    -0.450 OA
ATOM     12  O   LIG A   1      -5.248  -0.777 125.376  0.00  0.00    -0.245 OA
ATOM     13  C   LIG A   1      -7.578  -3.258 130.074  0.00  0.00    +0.013 C 
ATOM     14  C   LIG A   1      -6.350  -3.063 130.627  0.00  0.00    -0.006 C 
ENDROOT
BRANCH  14  15
ATOM     15  C   LIG A   1      -6.035  -3.404 132.081  0.00  0.00    +0.084 C 
ATOM     16  C   LIG A   1      -5.526  -4.841 132.258  0.00  0.00    +0.046 C 
ATOM     17  C   LIG A   1      -7.228  -3.193 133.033  0.00  0.00    +0.046 C 
BRANCH  15  18
ATOM     18  O   LIG A   1      -5.023  -2.489 132.519  0.00  0.00    -0.385 OA
ATOM     19  H   LIG A   1      -5.096  -2.393 133.482  0.00  0.00    +0.211 HD
ENDBRANCH  15  18
ENDBRANCH  14  15
BRANCH   1  21
ATOM     20  C   LIG A   1      -3.133  -3.604 129.286  0.00  0.00    +0.195 C 
ATOM     21  O   LIG A   1      -4.547  -3.600 129.166  0.00  0.00    -0.371 OA
ENDBRANCH   1  21
TORSDOF 3
ENDMDL
MODEL 8
REMARK VINA RESULT:      -6.0      1.910      3.288
REMARK  Name = NuBBE_1903
REMARK  7 active torsions:
REMARK  status: ('A' for Active; 'I' for Inactive)
REMARK    1  A    between atoms: C_1  and  O_2
REMARK    2  A    between atoms: O_2  and  C_3
REMARK    3  A    between atoms: C_7  and  C_8
REMARK    4  A    between atoms: C_16  and  C_17
REMARK    5  A    between atoms: C_17  and  C_18
REMARK    6  A    between atoms: C_17  and  O_19
REMARK    7  A    between atoms: C_17  and  C_20
REMARK                            x       y       z     vdW  Elec       q    Type
REMARK                         _______ _______ _______ _____ _____    ______ ____
ROOT
ATOM      1  C   LIG A   1      -7.243   0.847 127.565  0.00  0.00    +0.192 C 
ATOM      2  C   LIG A   1      -6.691  -0.425 128.262  0.00  0.00    +0.241 C 
ATOM      3  C   LIG A   1      -7.479  -1.580 127.802  0.00  0.00    +0.017 A 
ATOM      4  C   LIG A   1      -7.943  -1.760 126.515  0.00  0.00    -0.014 A 
ATOM      5  C   LIG A   1      -8.716  -2.900 126.260  0.00  0.00    -0.043 A 
ATOM      6  C   LIG A   1      -9.271  -3.194 124.895  0.00  0.00    +0.044 C 
ATOM      7  C   LIG A   1      -9.001  -3.790 127.330  0.00  0.00    +0.005 A 
ATOM      8  C   LIG A   1      -8.575  -3.525 128.642  0.00  0.00    +0.015 A 
ATOM      9  C   LIG A   1      -7.819  -2.391 128.845  0.00  0.00    +0.066 A 
ATOM     10  C   LIG A   1      -7.363  -1.733 130.067  0.00  0.00    +0.340 C 
ATOM     11  O   LIG A   1      -6.793  -0.532 129.692  0.00  0.00    -0.450 OA
ATOM     12  O   LIG A   1      -7.510  -2.134 131.198  0.00  0.00    -0.245 OA
ATOM     13  C   LIG A   1      -7.636  -0.667 125.587  0.00  0.00    +0.013 C 
ATOM     14  C   LIG A   1      -7.332   0.580 126.039  0.00  0.00    -0.006 C 
ENDROOT
BRANCH  14  15
ATOM     15  C   LIG A   1      -7.069   1.756 125.103  0.00  0.00    +0.084 C 
ATOM     16  C   LIG A   1      -7.034   1.344 123.624  0.00  0.00    +0.046 C 
ATOM     17  C   LIG A   1      -5.767   2.516 125.423  0.00  0.00    +0.046 C 
BRANCH  15  18
ATOM     18  O   LIG A   1      -8.128   2.699 125.304  0.00  0.00    -0.385 OA
ATOM     19  H   LIG A   1      -7.934   3.491 124.776  0.00  0.00    +0.211 HD
ENDBRANCH  15  18
ENDBRANCH  14  15
BRANCH   1  21
ATOM     20  C   LIG A   1      -8.631   2.344 128.840  0.00  0.00    +0.195 C 
ATOM     21  O   LIG A   1      -8.569   1.225 127.969  0.00  0.00    -0.371 OA
ENDBRANCH   1  21
TORSDOF 3
ENDMDL
MODEL 9
REMARK VINA RESULT:      -5.7      1.937      5.827
REMARK  Name = NuBBE_1903
REMARK  7 active torsions:
REMARK  status: ('A' for Active; 'I' for Inactive)
REMARK    1  A    between atoms: C_1  and  O_2
REMARK    2  A    between atoms: O_2  and  C_3
REMARK    3  A    between atoms: C_7  and  C_8
REMARK    4  A    between atoms: C_16  and  C_17
REMARK    5  A    between atoms: C_17  and  C_18
REMARK    6  A    between atoms: C_17  and  O_19
REMARK    7  A    between atoms: C_17  and  C_20
REMARK                            x       y       z     vdW  Elec       q    Type
REMARK                         _______ _______ _______ _____ _____    ______ ____
ROOT
ATOM      1  C   LIG A   1      -6.516  -2.399 126.704  0.00  0.00    +0.192 C 
ATOM      2  C   LIG A   1      -6.166  -2.158 125.212  0.00  0.00    +0.241 C 
ATOM      3  C   LIG A   1      -6.297  -0.719 124.934  0.00  0.00    +0.017 A 
ATOM      4  C   LIG A   1      -5.931   0.290 125.801  0.00  0.00    -0.014 A 
ATOM      5  C   LIG A   1      -6.165   1.609 125.392  0.00  0.00    -0.043 A 
ATOM      6  C   LIG A   1      -5.806   2.785 126.258  0.00  0.00    +0.044 C 
ATOM      7  C   LIG A   1      -6.780   1.839 124.133  0.00  0.00    +0.005 A 
ATOM      8  C   LIG A   1      -7.208   0.778 123.318  0.00  0.00    +0.015 A 
ATOM      9  C   LIG A   1      -6.959  -0.502 123.762  0.00  0.00    +0.066 A 
ATOM     10  C   LIG A   1      -7.401  -1.804 123.271  0.00  0.00    +0.340 C 
ATOM     11  O   LIG A   1      -7.003  -2.745 124.200  0.00  0.00    -0.450 OA
ATOM     12  O   LIG A   1      -8.047  -2.014 122.270  0.00  0.00    -0.245 OA
ATOM     13  C   LIG A   1      -5.421  -0.161 127.100  0.00  0.00    +0.013 C 
ATOM     14  C   LIG A   1      -5.698  -1.407 127.574  0.00  0.00    -0.006 C 
ENDROOT
BRANCH  14  15
ATOM     15  C   LIG A   1      -5.236  -1.889 128.946  0.00  0.00    +0.084 C 
ATOM     16  C   LIG A   1      -4.594  -0.774 129.784  0.00  0.00    +0.046 C 
ATOM     17  C   LIG A   1      -4.252  -3.073 128.882  0.00  0.00    +0.046 C 
BRANCH  15  18
ATOM     18  O   LIG A   1      -6.394  -2.384 129.629  0.00  0.00    -0.385 OA
ATOM     19  H   LIG A   1      -6.915  -2.911 129.002  0.00  0.00    +0.211 HD
ENDBRANCH  15  18
ENDBRANCH  14  15
BRANCH   1  21
ATOM     20  C   LIG A   1      -8.689  -3.336 127.145  0.00  0.00    +0.195 C 
ATOM     21  O   LIG A   1      -7.892  -2.165 127.043  0.00  0.00    -0.371 OA
ENDBRANCH   1  21
TORSDOF 3
ENDMDL
