MODEL 1
REMARK VINA RESULT:      -7.7      0.000      0.000
REMARK  Name = NuBBE_2275
REMARK  6 active torsions:
REMARK  status: ('A' for Active; 'I' for Inactive)
REMARK    1  A    between atoms: O_1  and  C_2
REMARK    2  A    between atoms: C_7  and  C_8
REMARK    3  A    between atoms: C_9  and  O_10
REMARK    4  A    between atoms: C_13  and  O_14
REMARK    5  A    between atoms: C_16  and  O_17
REMARK    6  A    between atoms: O_17  and  C_18
REMARK                            x       y       z     vdW  Elec       q    Type
REMARK                         _______ _______ _______ _____ _____    ______ ____
ROOT
ATOM      1  C   LIG A   1      -7.091   1.685 123.297  0.00  0.00    +0.181 A 
ATOM      2  C   LIG A   1      -8.316   1.795 123.848  0.00  0.00    +0.208 A 
ATOM      3  C   LIG A   1      -8.935   0.597 124.459  0.00  0.00    +0.238 A 
ATOM      4  C   LIG A   1      -8.193  -0.659 124.392  0.00  0.00    +0.109 A 
ATOM      5  C   LIG A   1      -8.712  -1.846 124.915  0.00  0.00    +0.135 A 
ATOM      6  C   LIG A   1      -7.987  -3.032 124.821  0.00  0.00    +0.092 A 
ATOM      7  C   LIG A   1      -6.737  -3.034 124.201  0.00  0.00    +0.127 A 
ATOM      8  C   LIG A   1      -6.219  -1.839 123.684  0.00  0.00    +0.092 A 
ATOM      9  C   LIG A   1      -6.947  -0.651 123.780  0.00  0.00    +0.146 A 
ATOM     10  O   LIG A   1      -6.382   0.484 123.253  0.00  0.00    -0.451 OA
ATOM     11  O   LIG A   1     -10.039   0.672 124.992  0.00  0.00    -0.283 OA
ENDROOT
BRANCH   1  17
ATOM     12  C   LIG A   1      -4.989   4.967 121.469  0.00  0.00    +0.117 A 
ATOM     13  C   LIG A   1      -5.675   4.069 120.665  0.00  0.00    +0.046 A 
ATOM     14  C   LIG A   1      -6.370   3.007 121.255  0.00  0.00    +0.015 A 
ATOM     15  C   LIG A   1      -4.991   4.822 122.848  0.00  0.00    +0.046 A 
ATOM     16  C   LIG A   1      -5.676   3.751 123.434  0.00  0.00    +0.015 A 
ATOM     17  C   LIG A   1      -6.368   2.813 122.649  0.00  0.00    +0.021 A 
BRANCH  12  18
ATOM     18  O   LIG A   1      -4.299   6.015 120.936  0.00  0.00    -0.507 OA
ATOM     19  H   LIG A   1      -4.909   6.763 120.828  0.00  0.00    +0.292 HD
ENDBRANCH  12  18
ENDBRANCH   1  17
BRANCH   2  20
ATOM     20  O   LIG A   1      -9.071   2.954 123.879  0.00  0.00    -0.501 OA
ATOM     21  H   LIG A   1     -10.002   2.660 123.787  0.00  0.00    +0.292 HD
ENDBRANCH   2  20
BRANCH   5  22
ATOM     22  O   LIG A   1      -9.932  -1.918 125.533  0.00  0.00    -0.506 OA
ATOM     23  H   LIG A   1      -9.829  -2.426 126.368  0.00  0.00    +0.292 HD
ENDBRANCH   5  22
BRANCH   7  24
ATOM     24  O   LIG A   1      -5.929  -4.127 124.038  0.00  0.00    -0.495 OA
ATOM     25  C   LIG A   1      -4.581  -3.876 123.653  0.00  0.00    +0.277 C 
ENDBRANCH   7  24
TORSDOF 5
ENDMDL
MODEL 2
REMARK VINA RESULT:      -7.7      1.461      1.699
REMARK  Name = NuBBE_2275
REMARK  6 active torsions:
REMARK  status: ('A' for Active; 'I' for Inactive)
REMARK    1  A    between atoms: O_1  and  C_2
REMARK    2  A    between atoms: C_7  and  C_8
REMARK    3  A    between atoms: C_9  and  O_10
REMARK    4  A    between atoms: C_13  and  O_14
REMARK    5  A    between atoms: C_16  and  O_17
REMARK    6  A    between atoms: O_17  and  C_18
REMARK                            x       y       z     vdW  Elec       q    Type
REMARK                         _______ _______ _______ _____ _____    ______ ____
ROOT
ATOM      1  C   LIG A   1      -7.112   2.508 122.836  0.00  0.00    +0.181 A 
ATOM      2  C   LIG A   1      -7.766   2.952 123.928  0.00  0.00    +0.208 A 
ATOM      3  C   LIG A   1      -8.077   1.995 125.013  0.00  0.00    +0.238 A 
ATOM      4  C   LIG A   1      -7.691   0.600 124.818  0.00  0.00    +0.109 A 
ATOM      5  C   LIG A   1      -7.971  -0.378 125.775  0.00  0.00    +0.135 A 
ATOM      6  C   LIG A   1      -7.605  -1.704 125.553  0.00  0.00    +0.092 A 
ATOM      7  C   LIG A   1      -6.956  -2.056 124.369  0.00  0.00    +0.127 A 
ATOM      8  C   LIG A   1      -6.672  -1.069 123.416  0.00  0.00    +0.092 A 
ATOM      9  C   LIG A   1      -7.040   0.260 123.641  0.00  0.00    +0.146 A 
ATOM     10  O   LIG A   1      -6.732   1.176 122.666  0.00  0.00    -0.451 OA
ATOM     11  O   LIG A   1      -8.648   2.375 126.032  0.00  0.00    -0.283 OA
ENDROOT
BRANCH   1  17
ATOM     12  C   LIG A   1      -6.015   5.014 119.510  0.00  0.00    +0.117 A 
ATOM     13  C   LIG A   1      -7.282   4.450 119.547  0.00  0.00    +0.046 A 
ATOM     14  C   LIG A   1      -7.647   3.645 120.631  0.00  0.00    +0.015 A 
ATOM     15  C   LIG A   1      -5.114   4.788 120.541  0.00  0.00    +0.046 A 
ATOM     16  C   LIG A   1      -5.478   3.970 121.617  0.00  0.00    +0.015 A 
ATOM     17  C   LIG A   1      -6.748   3.370 121.678  0.00  0.00    +0.021 A 
BRANCH  12  18
ATOM     18  O   LIG A   1      -5.617   5.804 118.474  0.00  0.00    -0.507 OA
ATOM     19  H   LIG A   1      -6.076   5.513 117.669  0.00  0.00    +0.292 HD
ENDBRANCH  12  18
ENDBRANCH   1  17
BRANCH   2  20
ATOM     20  O   LIG A   1      -8.195   4.253 124.120  0.00  0.00    -0.501 OA
ATOM     21  H   LIG A   1      -8.740   4.466 123.333  0.00  0.00    +0.292 HD
ENDBRANCH   2  20
BRANCH   5  22
ATOM     22  O   LIG A   1      -8.607  -0.105 126.957  0.00  0.00    -0.506 OA
ATOM     23  H   LIG A   1      -8.793   0.859 126.996  0.00  0.00    +0.292 HD
ENDBRANCH   5  22
BRANCH   7  24
ATOM     24  O   LIG A   1      -6.551  -3.318 124.026  0.00  0.00    -0.495 OA
ATOM     25  C   LIG A   1      -5.147  -3.560 124.019  0.00  0.00    +0.277 C 
ENDBRANCH   7  24
TORSDOF 5
ENDMDL
MODEL 3
REMARK VINA RESULT:      -7.4      9.642     11.106
REMARK  Name = NuBBE_2275
REMARK  6 active torsions:
REMARK  status: ('A' for Active; 'I' for Inactive)
REMARK    1  A    between atoms: O_1  and  C_2
REMARK    2  A    between atoms: C_7  and  C_8
REMARK    3  A    between atoms: C_9  and  O_10
REMARK    4  A    between atoms: C_13  and  O_14
REMARK    5  A    between atoms: C_16  and  O_17
REMARK    6  A    between atoms: O_17  and  C_18
REMARK                            x       y       z     vdW  Elec       q    Type
REMARK                         _______ _______ _______ _____ _____    ______ ____
ROOT
ATOM      1  C   LIG A   1     -10.482   5.901 131.241  0.00  0.00    +0.181 A 
ATOM      2  C   LIG A   1     -10.549   4.604 130.879  0.00  0.00    +0.208 A 
ATOM      3  C   LIG A   1      -9.789   3.603 131.662  0.00  0.00    +0.238 A 
ATOM      4  C   LIG A   1      -8.968   4.089 132.768  0.00  0.00    +0.109 A 
ATOM      5  C   LIG A   1      -8.194   3.220 133.542  0.00  0.00    +0.135 A 
ATOM      6  C   LIG A   1      -7.408   3.715 134.580  0.00  0.00    +0.092 A 
ATOM      7  C   LIG A   1      -7.393   5.085 134.848  0.00  0.00    +0.127 A 
ATOM      8  C   LIG A   1      -8.177   5.949 134.072  0.00  0.00    +0.092 A 
ATOM      9  C   LIG A   1      -8.965   5.451 133.032  0.00  0.00    +0.146 A 
ATOM     10  O   LIG A   1      -9.708   6.353 132.311  0.00  0.00    -0.451 OA
ATOM     11  O   LIG A   1      -9.851   2.412 131.372  0.00  0.00    -0.283 OA
ENDROOT
BRANCH   1  17
ATOM     12  C   LIG A   1     -12.582   9.072 129.224  0.00  0.00    +0.117 A 
ATOM     13  C   LIG A   1     -11.393   8.597 128.688  0.00  0.00    +0.046 A 
ATOM     14  C   LIG A   1     -10.714   7.558 129.334  0.00  0.00    +0.015 A 
ATOM     15  C   LIG A   1     -13.099   8.523 130.388  0.00  0.00    +0.046 A 
ATOM     16  C   LIG A   1     -12.409   7.494 131.038  0.00  0.00    +0.015 A 
ATOM     17  C   LIG A   1     -11.194   6.999 130.532  0.00  0.00    +0.021 A 
BRANCH  12  18
ATOM     18  O   LIG A   1     -13.276  10.082 128.627  0.00  0.00    -0.507 OA
ATOM     19  H   LIG A   1     -14.060   9.705 128.196  0.00  0.00    +0.292 HD
ENDBRANCH  12  18
ENDBRANCH   1  17
BRANCH   2  20
ATOM     20  O   LIG A   1     -11.270   4.118 129.804  0.00  0.00    -0.501 OA
ATOM     21  H   LIG A   1     -11.045   4.706 129.052  0.00  0.00    +0.292 HD
ENDBRANCH   2  20
BRANCH   5  22
ATOM     22  O   LIG A   1      -8.157   1.867 133.333  0.00  0.00    -0.506 OA
ATOM     23  H   LIG A   1      -7.896   1.429 134.174  0.00  0.00    +0.292 HD
ENDBRANCH   5  22
BRANCH   7  24
ATOM     24  O   LIG A   1      -6.663   5.698 135.830  0.00  0.00    -0.495 OA
ATOM     25  C   LIG A   1      -7.397   6.301 136.892  0.00  0.00    +0.277 C 
ENDBRANCH   7  24
TORSDOF 5
ENDMDL
MODEL 4
REMARK VINA RESULT:      -7.2      7.983      9.192
REMARK  Name = NuBBE_2275
REMARK  6 active torsions:
REMARK  status: ('A' for Active; 'I' for Inactive)
REMARK    1  A    between atoms: O_1  and  C_2
REMARK    2  A    between atoms: C_7  and  C_8
REMARK    3  A    between atoms: C_9  and  O_10
REMARK    4  A    between atoms: C_13  and  O_14
REMARK    5  A    between atoms: C_16  and  O_17
REMARK    6  A    between atoms: O_17  and  C_18
REMARK                            x       y       z     vdW  Elec       q    Type
REMARK                         _______ _______ _______ _____ _____    ______ ____
ROOT
ATOM      1  C   LIG A   1     -10.209   5.546 130.819  0.00  0.00    +0.181 A 
ATOM      2  C   LIG A   1      -9.944   5.440 132.136  0.00  0.00    +0.208 A 
ATOM      3  C   LIG A   1      -9.229   4.240 132.627  0.00  0.00    +0.238 A 
ATOM      4  C   LIG A   1      -8.885   3.209 131.651  0.00  0.00    +0.109 A 
ATOM      5  C   LIG A   1      -8.236   2.031 132.028  0.00  0.00    +0.135 A 
ATOM      6  C   LIG A   1      -7.935   1.058 131.076  0.00  0.00    +0.092 A 
ATOM      7  C   LIG A   1      -8.283   1.263 129.740  0.00  0.00    +0.127 A 
ATOM      8  C   LIG A   1      -8.927   2.451 129.368  0.00  0.00    +0.092 A 
ATOM      9  C   LIG A   1      -9.227   3.424 130.323  0.00  0.00    +0.146 A 
ATOM     10  O   LIG A   1      -9.860   4.564 129.891  0.00  0.00    -0.451 OA
ATOM     11  O   LIG A   1      -8.951   4.126 133.818  0.00  0.00    -0.283 OA
ENDROOT
BRANCH   1  17
ATOM     12  C   LIG A   1     -12.320   8.866 129.071  0.00  0.00    +0.117 A 
ATOM     13  C   LIG A   1     -11.014   8.610 128.679  0.00  0.00    +0.046 A 
ATOM     14  C   LIG A   1     -10.328   7.524 129.235  0.00  0.00    +0.015 A 
ATOM     15  C   LIG A   1     -12.948   8.054 130.004  0.00  0.00    +0.046 A 
ATOM     16  C   LIG A   1     -12.253   6.978 130.569  0.00  0.00    +0.015 A 
ATOM     17  C   LIG A   1     -10.924   6.699 130.206  0.00  0.00    +0.021 A 
BRANCH  12  18
ATOM     18  O   LIG A   1     -13.026   9.912 128.555  0.00  0.00    -0.507 OA
ATOM     19  H   LIG A   1     -13.186  10.556 129.263  0.00  0.00    +0.292 HD
ENDBRANCH  12  18
ENDBRANCH   1  17
BRANCH   2  20
ATOM     20  O   LIG A   1     -10.305   6.368 133.095  0.00  0.00    -0.501 OA
ATOM     21  H   LIG A   1     -10.224   5.901 133.954  0.00  0.00    +0.292 HD
ENDBRANCH   2  20
BRANCH   5  22
ATOM     22  O   LIG A   1      -7.869   1.762 133.319  0.00  0.00    -0.506 OA
ATOM     23  H   LIG A   1      -8.115   2.530 133.881  0.00  0.00    +0.292 HD
ENDBRANCH   5  22
BRANCH   7  24
ATOM     24  O   LIG A   1      -8.052   0.390 128.713  0.00  0.00    -0.495 OA
ATOM     25  C   LIG A   1      -8.184   0.905 127.391  0.00  0.00    +0.277 C 
ENDBRANCH   7  24
TORSDOF 5
ENDMDL
MODEL 5
REMARK VINA RESULT:      -7.2     10.031     11.001
REMARK  Name = NuBBE_2275
REMARK  6 active torsions:
REMARK  status: ('A' for Active; 'I' for Inactive)
REMARK    1  A    between atoms: O_1  and  C_2
REMARK    2  A    between atoms: C_7  and  C_8
REMARK    3  A    between atoms: C_9  and  O_10
REMARK    4  A    between atoms: C_13  and  O_14
REMARK    5  A    between atoms: C_16  and  O_17
REMARK    6  A    between atoms: O_17  and  C_18
REMARK                            x       y       z     vdW  Elec       q    Type
REMARK                         _______ _______ _______ _____ _____    ______ ____
ROOT
ATOM      1  C   LIG A   1      -9.429   6.751 131.104  0.00  0.00    +0.181 A 
ATOM      2  C   LIG A   1      -9.534   6.034 132.241  0.00  0.00    +0.208 A 
ATOM      3  C   LIG A   1      -8.302   5.689 132.985  0.00  0.00    +0.238 A 
ATOM      4  C   LIG A   1      -7.025   6.114 132.416  0.00  0.00    +0.109 A 
ATOM      5  C   LIG A   1      -5.810   5.807 133.033  0.00  0.00    +0.135 A 
ATOM      6  C   LIG A   1      -4.607   6.212 132.458  0.00  0.00    +0.092 A 
ATOM      7  C   LIG A   1      -4.617   6.927 131.259  0.00  0.00    +0.127 A 
ATOM      8  C   LIG A   1      -5.839   7.237 130.649  0.00  0.00    +0.092 A 
ATOM      9  C   LIG A   1      -7.044   6.831 131.228  0.00  0.00    +0.146 A 
ATOM     10  O   LIG A   1      -8.205   7.167 130.578  0.00  0.00    -0.451 OA
ATOM     11  O   LIG A   1      -8.367   5.059 134.037  0.00  0.00    -0.283 OA
ENDROOT
BRANCH   1  17
ATOM     12  C   LIG A   1     -12.760   7.943 128.650  0.00  0.00    +0.117 A 
ATOM     13  C   LIG A   1     -12.999   7.265 129.837  0.00  0.00    +0.046 A 
ATOM     14  C   LIG A   1     -11.920   6.887 130.644  0.00  0.00    +0.015 A 
ATOM     15  C   LIG A   1     -11.463   8.249 128.263  0.00  0.00    +0.046 A 
ATOM     16  C   LIG A   1     -10.386   7.856 129.066  0.00  0.00    +0.015 A 
ATOM     17  C   LIG A   1     -10.591   7.154 130.266  0.00  0.00    +0.021 A 
BRANCH  12  18
ATOM     18  O   LIG A   1     -13.781   8.331 127.835  0.00  0.00    -0.507 OA
ATOM     19  H   LIG A   1     -14.622   8.117 128.269  0.00  0.00    +0.292 HD
ENDBRANCH  12  18
ENDBRANCH   1  17
BRANCH   2  20
ATOM     20  O   LIG A   1     -10.720   5.567 132.777  0.00  0.00    -0.501 OA
ATOM     21  H   LIG A   1     -10.630   5.683 133.747  0.00  0.00    +0.292 HD
ENDBRANCH   2  20
BRANCH   5  22
ATOM     22  O   LIG A   1      -5.725   5.106 134.207  0.00  0.00    -0.506 OA
ATOM     23  H   LIG A   1      -6.621   4.775 134.438  0.00  0.00    +0.292 HD
ENDBRANCH   5  22
BRANCH   7  24
ATOM     24  O   LIG A   1      -3.511   7.376 130.590  0.00  0.00    -0.495 OA
ATOM     25  C   LIG A   1      -3.735   8.009 129.334  0.00  0.00    +0.277 C 
ENDBRANCH   7  24
TORSDOF 5
ENDMDL
MODEL 6
REMARK VINA RESULT:      -7.0      3.212      7.357
REMARK  Name = NuBBE_2275
REMARK  6 active torsions:
REMARK  status: ('A' for Active; 'I' for Inactive)
REMARK    1  A    between atoms: O_1  and  C_2
REMARK    2  A    between atoms: C_7  and  C_8
REMARK    3  A    between atoms: C_9  and  O_10
REMARK    4  A    between atoms: C_13  and  O_14
REMARK    5  A    between atoms: C_16  and  O_17
REMARK    6  A    between atoms: O_17  and  C_18
REMARK                            x       y       z     vdW  Elec       q    Type
REMARK                         _______ _______ _______ _____ _____    ______ ____
ROOT
ATOM      1  C   LIG A   1      -7.752  -1.783 126.604  0.00  0.00    +0.181 A 
ATOM      2  C   LIG A   1      -8.371  -2.487 125.636  0.00  0.00    +0.208 A 
ATOM      3  C   LIG A   1      -9.027  -1.755 124.529  0.00  0.00    +0.238 A 
ATOM      4  C   LIG A   1      -9.002  -0.295 124.572  0.00  0.00    +0.109 A 
ATOM      5  C   LIG A   1      -9.620   0.478 123.586  0.00  0.00    +0.135 A 
ATOM      6  C   LIG A   1      -9.594   1.869 123.663  0.00  0.00    +0.092 A 
ATOM      7  C   LIG A   1      -8.946   2.492 124.731  0.00  0.00    +0.127 A 
ATOM      8  C   LIG A   1      -8.322   1.711 125.712  0.00  0.00    +0.092 A 
ATOM      9  C   LIG A   1      -8.349   0.317 125.632  0.00  0.00    +0.146 A 
ATOM     10  O   LIG A   1      -7.718  -0.388 126.628  0.00  0.00    -0.451 OA
ATOM     11  O   LIG A   1      -9.577  -2.369 123.618  0.00  0.00    -0.283 OA
ENDROOT
BRANCH   1  17
ATOM     12  C   LIG A   1      -5.714  -3.564 129.953  0.00  0.00    +0.117 A 
ATOM     13  C   LIG A   1      -7.098  -3.634 129.885  0.00  0.00    +0.046 A 
ATOM     14  C   LIG A   1      -7.764  -3.067 128.792  0.00  0.00    +0.015 A 
ATOM     15  C   LIG A   1      -4.990  -2.942 128.946  0.00  0.00    +0.046 A 
ATOM     16  C   LIG A   1      -5.661  -2.364 127.862  0.00  0.00    +0.015 A 
ATOM     17  C   LIG A   1      -7.063  -2.402 127.769  0.00  0.00    +0.021 A 
BRANCH  12  18
ATOM     18  O   LIG A   1      -5.025  -4.103 130.998  0.00  0.00    -0.507 OA
ATOM     19  H   LIG A   1      -5.432  -4.953 131.230  0.00  0.00    +0.292 HD
ENDBRANCH  12  18
ENDBRANCH   1  17
BRANCH   2  20
ATOM     20  O   LIG A   1      -8.463  -3.866 125.593  0.00  0.00    -0.501 OA
ATOM     21  H   LIG A   1      -7.922  -4.139 124.822  0.00  0.00    +0.292 HD
ENDBRANCH   2  20
BRANCH   5  22
ATOM     22  O   LIG A   1     -10.277  -0.066 122.514  0.00  0.00    -0.506 OA
ATOM     23  H   LIG A   1      -9.699  -0.751 122.108  0.00  0.00    +0.292 HD
ENDBRANCH   5  22
BRANCH   7  24
ATOM     24  O   LIG A   1      -8.852   3.844 124.927  0.00  0.00    -0.495 OA
ATOM     25  C   LIG A   1      -7.618   4.332 125.444  0.00  0.00    +0.277 C 
ENDBRANCH   7  24
TORSDOF 5
ENDMDL
MODEL 7
REMARK VINA RESULT:      -6.6      2.537      3.011
REMARK  Name = NuBBE_2275
REMARK  6 active torsions:
REMARK  status: ('A' for Active; 'I' for Inactive)
REMARK    1  A    between atoms: O_1  and  C_2
REMARK    2  A    between atoms: C_7  and  C_8
REMARK    3  A    between atoms: C_9  and  O_10
REMARK    4  A    between atoms: C_13  and  O_14
REMARK    5  A    between atoms: C_16  and  O_17
REMARK    6  A    between atoms: O_17  and  C_18
REMARK                            x       y       z     vdW  Elec       q    Type
REMARK                         _______ _______ _______ _____ _____    ______ ____
ROOT
ATOM      1  C   LIG A   1      -7.219   1.580 125.322  0.00  0.00    +0.181 A 
ATOM      2  C   LIG A   1      -8.472   1.667 124.833  0.00  0.00    +0.208 A 
ATOM      3  C   LIG A   1      -9.094   0.460 124.242  0.00  0.00    +0.238 A 
ATOM      4  C   LIG A   1      -8.290  -0.758 124.184  0.00  0.00    +0.109 A 
ATOM      5  C   LIG A   1      -8.784  -1.935 123.617  0.00  0.00    +0.135 A 
ATOM      6  C   LIG A   1      -7.987  -3.077 123.561  0.00  0.00    +0.092 A 
ATOM      7  C   LIG A   1      -6.689  -3.043 124.074  0.00  0.00    +0.127 A 
ATOM      8  C   LIG A   1      -6.203  -1.861 124.648  0.00  0.00    +0.092 A 
ATOM      9  C   LIG A   1      -7.004  -0.718 124.703  0.00  0.00    +0.146 A 
ATOM     10  O   LIG A   1      -6.465   0.406 125.278  0.00  0.00    -0.451 OA
ATOM     11  O   LIG A   1     -10.244   0.501 123.812  0.00  0.00    -0.283 OA
ENDROOT
BRANCH   1  17
ATOM     12  C   LIG A   1      -5.126   4.875 127.137  0.00  0.00    +0.117 A 
ATOM     13  C   LIG A   1      -4.908   4.588 125.797  0.00  0.00    +0.046 A 
ATOM     14  C   LIG A   1      -5.595   3.525 125.200  0.00  0.00    +0.015 A 
ATOM     15  C   LIG A   1      -6.020   4.122 127.883  0.00  0.00    +0.046 A 
ATOM     16  C   LIG A   1      -6.695   3.051 127.286  0.00  0.00    +0.015 A 
ATOM     17  C   LIG A   1      -6.486   2.721 125.935  0.00  0.00    +0.021 A 
BRANCH  12  18
ATOM     18  O   LIG A   1      -4.478   5.901 127.759  0.00  0.00    -0.507 OA
ATOM     19  H   LIG A   1      -4.265   6.578 127.097  0.00  0.00    +0.292 HD
ENDBRANCH  12  18
ENDBRANCH   1  17
BRANCH   2  20
ATOM     20  O   LIG A   1      -9.241   2.817 124.821  0.00  0.00    -0.501 OA
ATOM     21  H   LIG A   1      -9.483   2.957 123.881  0.00  0.00    +0.292 HD
ENDBRANCH   2  20
BRANCH   5  22
ATOM     22  O   LIG A   1     -10.044  -2.039 123.092  0.00  0.00    -0.506 OA
ATOM     23  H   LIG A   1      -9.975  -2.039 122.111  0.00  0.00    +0.292 HD
ENDBRANCH   5  22
BRANCH   7  24
ATOM     24  O   LIG A   1      -5.805  -4.088 124.076  0.00  0.00    -0.495 OA
ATOM     25  C   LIG A   1      -4.506  -3.829 123.553  0.00  0.00    +0.277 C 
ENDBRANCH   7  24
TORSDOF 5
ENDMDL
MODEL 8
REMARK VINA RESULT:      -6.5      9.110     10.579
REMARK  Name = NuBBE_2275
REMARK  6 active torsions:
REMARK  status: ('A' for Active; 'I' for Inactive)
REMARK    1  A    between atoms: O_1  and  C_2
REMARK    2  A    between atoms: C_7  and  C_8
REMARK    3  A    between atoms: C_9  and  O_10
REMARK    4  A    between atoms: C_13  and  O_14
REMARK    5  A    between atoms: C_16  and  O_17
REMARK    6  A    between atoms: O_17  and  C_18
REMARK                            x       y       z     vdW  Elec       q    Type
REMARK                         _______ _______ _______ _____ _____    ______ ____
ROOT
ATOM      1  C   LIG A   1      -7.038   6.036 131.204  0.00  0.00    +0.181 A 
ATOM      2  C   LIG A   1      -7.452   4.782 131.474  0.00  0.00    +0.208 A 
ATOM      3  C   LIG A   1      -8.829   4.387 131.101  0.00  0.00    +0.238 A 
ATOM      4  C   LIG A   1      -9.683   5.403 130.492  0.00  0.00    +0.109 A 
ATOM      5  C   LIG A   1     -11.006   5.129 130.135  0.00  0.00    +0.135 A 
ATOM      6  C   LIG A   1     -11.803   6.124 129.571  0.00  0.00    +0.092 A 
ATOM      7  C   LIG A   1     -11.276   7.400 129.362  0.00  0.00    +0.127 A 
ATOM      8  C   LIG A   1      -9.947   7.666 129.717  0.00  0.00    +0.092 A 
ATOM      9  C   LIG A   1      -9.150   6.667 130.281  0.00  0.00    +0.146 A 
ATOM     10  O   LIG A   1      -7.857   6.995 130.606  0.00  0.00    -0.451 OA
ATOM     11  O   LIG A   1      -9.226   3.244 131.311  0.00  0.00    -0.283 OA
ENDROOT
BRANCH   1  17
ATOM     12  C   LIG A   1      -3.110   7.547 132.113  0.00  0.00    +0.117 A 
ATOM     13  C   LIG A   1      -3.788   6.800 133.066  0.00  0.00    +0.046 A 
ATOM     14  C   LIG A   1      -5.060   6.297 132.771  0.00  0.00    +0.015 A 
ATOM     15  C   LIG A   1      -3.682   7.791 130.873  0.00  0.00    +0.046 A 
ATOM     16  C   LIG A   1      -4.960   7.298 130.586  0.00  0.00    +0.015 A 
ATOM     17  C   LIG A   1      -5.682   6.552 131.535  0.00  0.00    +0.021 A 
BRANCH  12  18
ATOM     18  O   LIG A   1      -1.869   8.055 132.358  0.00  0.00    -0.507 OA
ATOM     19  H   LIG A   1      -1.219   7.340 132.268  0.00  0.00    +0.292 HD
ENDBRANCH  12  18
ENDBRANCH   1  17
BRANCH   2  20
ATOM     20  O   LIG A   1      -6.688   3.813 132.100  0.00  0.00    -0.501 OA
ATOM     21  H   LIG A   1      -5.848   3.777 131.595  0.00  0.00    +0.292 HD
ENDBRANCH   2  20
BRANCH   5  22
ATOM     22  O   LIG A   1     -11.589   3.903 130.314  0.00  0.00    -0.506 OA
ATOM     23  H   LIG A   1     -10.904   3.210 130.184  0.00  0.00    +0.292 HD
ENDBRANCH   5  22
BRANCH   7  24
ATOM     24  O   LIG A   1     -11.951   8.463 128.825  0.00  0.00    -0.495 OA
ATOM     25  C   LIG A   1     -12.769   9.217 129.714  0.00  0.00    +0.277 C 
ENDBRANCH   7  24
TORSDOF 5
ENDMDL
MODEL 9
REMARK VINA RESULT:      -6.4      7.931     10.848
REMARK  Name = NuBBE_2275
REMARK  6 active torsions:
REMARK  status: ('A' for Active; 'I' for Inactive)
REMARK    1  A    between atoms: O_1  and  C_2
REMARK    2  A    between atoms: C_7  and  C_8
REMARK    3  A    between atoms: C_9  and  O_10
REMARK    4  A    between atoms: C_13  and  O_14
REMARK    5  A    between atoms: C_16  and  O_17
REMARK    6  A    between atoms: O_17  and  C_18
REMARK                            x       y       z     vdW  Elec       q    Type
REMARK                         _______ _______ _______ _____ _____    ______ ____
ROOT
ATOM      1  C   LIG A   1      -8.512   1.506 131.929  0.00  0.00    +0.181 A 
ATOM      2  C   LIG A   1      -8.026   2.147 133.010  0.00  0.00    +0.208 A 
ATOM      3  C   LIG A   1      -8.488   3.525 133.292  0.00  0.00    +0.238 A 
ATOM      4  C   LIG A   1      -9.424   4.132 132.348  0.00  0.00    +0.109 A 
ATOM      5  C   LIG A   1      -9.890   5.438 132.517  0.00  0.00    +0.135 A 
ATOM      6  C   LIG A   1     -10.769   5.996 131.591  0.00  0.00    +0.092 A 
ATOM      7  C   LIG A   1     -11.185   5.247 130.490  0.00  0.00    +0.127 A 
ATOM      8  C   LIG A   1     -10.719   3.935 130.330  0.00  0.00    +0.092 A 
ATOM      9  C   LIG A   1      -9.838   3.378 131.260  0.00  0.00    +0.146 A 
ATOM     10  O   LIG A   1      -9.419   2.088 131.043  0.00  0.00    -0.451 OA
ATOM     11  O   LIG A   1      -8.083   4.126 134.283  0.00  0.00    -0.283 OA
ENDROOT
BRANCH   1  17
ATOM     12  C   LIG A   1      -7.384  -2.479 130.750  0.00  0.00    +0.117 A 
ATOM     13  C   LIG A   1      -7.619  -2.208 132.090  0.00  0.00    +0.046 A 
ATOM     14  C   LIG A   1      -7.998  -0.918 132.477  0.00  0.00    +0.015 A 
ATOM     15  C   LIG A   1      -7.526  -1.482 129.795  0.00  0.00    +0.046 A 
ATOM     16  C   LIG A   1      -7.891  -0.189 130.187  0.00  0.00    +0.015 A 
ATOM     17  C   LIG A   1      -8.121   0.123 131.538  0.00  0.00    +0.021 A 
BRANCH  12  18
ATOM     18  O   LIG A   1      -7.014  -3.721 130.329  0.00  0.00    -0.507 OA
ATOM     19  H   LIG A   1      -6.519  -3.632 129.499  0.00  0.00    +0.292 HD
ENDBRANCH  12  18
ENDBRANCH   1  17
BRANCH   2  20
ATOM     20  O   LIG A   1      -7.098   1.624 133.892  0.00  0.00    -0.501 OA
ATOM     21  H   LIG A   1      -6.311   2.205 133.816  0.00  0.00    +0.292 HD
ENDBRANCH   2  20
BRANCH   5  22
ATOM     22  O   LIG A   1      -9.522   6.231 133.571  0.00  0.00    -0.506 OA
ATOM     23  H   LIG A   1      -9.810   5.797 134.405  0.00  0.00    +0.292 HD
ENDBRANCH   5  22
BRANCH   7  24
ATOM     24  O   LIG A   1     -12.037   5.677 129.508  0.00  0.00    -0.495 OA
ATOM     25  C   LIG A   1     -12.727   6.899 129.750  0.00  0.00    +0.277 C 
ENDBRANCH   7  24
TORSDOF 5
ENDMDL
