MODEL 1
REMARK VINA RESULT:      -6.6      0.000      0.000
REMARK  Name = NuBBE_267
REMARK  7 active torsions:
REMARK  status: ('A' for Active; 'I' for Inactive)
REMARK    1  A    between atoms: C_1  and  O_2
REMARK    2  A    between atoms: O_2  and  C_3
REMARK    3  A    between atoms: C_5  and  O_6
REMARK    4  A    between atoms: O_6  and  C_7
REMARK    5  A    between atoms: C_14  and  O_15
REMARK    6  A    between atoms: O_15  and  C_16
REMARK    7  A    between atoms: C_18  and  C_20
REMARK                            x       y       z     vdW  Elec       q    Type
REMARK                         _______ _______ _______ _____ _____    ______ ____
ROOT
ATOM      1  C   LIG A   1      -5.459   4.281 122.255  0.00  0.00    +0.127 A 
ATOM      2  C   LIG A   1      -5.286   4.646 123.604  0.00  0.00    +0.092 A 
ATOM      3  C   LIG A   1      -5.808   3.869 124.647  0.00  0.00    +0.138 A 
ATOM      4  C   LIG A   1      -6.167   3.125 121.930  0.00  0.00    +0.092 A 
ATOM      5  C   LIG A   1      -6.668   2.359 122.962  0.00  0.00    +0.140 A 
ATOM      6  O   LIG A   1      -7.332   1.182 122.728  0.00  0.00    -0.469 OA
ATOM      7  C   LIG A   1      -6.498   2.722 124.282  0.00  0.00    +0.105 A 
ATOM      8  C   LIG A   1      -7.139   1.669 125.053  0.00  0.00    +0.221 C 
ATOM      9  C   LIG A   1      -7.729   0.666 124.037  0.00  0.00    +0.231 C 
ATOM     10  C   LIG A   1      -7.111  -0.726 124.173  0.00  0.00    +0.152 C 
ATOM     11  C   LIG A   1      -7.817  -1.847 123.934  0.00  0.00    +0.091 C 
ATOM     12  C   LIG A   1      -9.280   0.657 124.049  0.00  0.00    +0.053 C 
ATOM     13  C   LIG A   1      -9.900   0.502 125.441  0.00  0.00    +0.013 C 
ATOM     14  C   LIG A   1      -9.803  -0.447 123.113  0.00  0.00    +0.087 C 
ATOM     15  C   LIG A   1      -9.218  -1.792 123.465  0.00  0.00    +0.160 C 
ATOM     16  O   LIG A   1      -9.839  -2.840 123.309  0.00  0.00    -0.293 OA
ATOM     17  O   LIG A   1      -7.188   1.611 126.263  0.00  0.00    -0.287 OA
ENDROOT
BRANCH   1  19
ATOM     18  C   LIG A   1      -5.331   5.041 120.013  0.00  0.00    +0.277 C 
ATOM     19  O   LIG A   1      -4.875   5.134 121.357  0.00  0.00    -0.495 OA
ENDBRANCH   1  19
BRANCH   3  20
ATOM     20  O   LIG A   1      -5.677   4.165 125.974  0.00  0.00    -0.494 OA
ATOM     21  C   LIG A   1      -4.383   3.990 126.545  0.00  0.00    +0.277 C 
ENDBRANCH   3  20
BRANCH  10  22
ATOM     22  O   LIG A   1      -5.776  -0.725 124.551  0.00  0.00    -0.495 OA
ATOM     23  C   LIG A   1      -5.414  -1.573 125.640  0.00  0.00    +0.277 C 
ENDBRANCH  10  22
TORSDOF 3
ENDMDL
MODEL 2
REMARK VINA RESULT:      -6.6      3.966      7.250
REMARK  Name = NuBBE_267
REMARK  7 active torsions:
REMARK  status: ('A' for Active; 'I' for Inactive)
REMARK    1  A    between atoms: C_1  and  O_2
REMARK    2  A    between atoms: O_2  and  C_3
REMARK    3  A    between atoms: C_5  and  O_6
REMARK    4  A    between atoms: O_6  and  C_7
REMARK    5  A    between atoms: C_14  and  O_15
REMARK    6  A    between atoms: O_15  and  C_16
REMARK    7  A    between atoms: C_18  and  C_20
REMARK                            x       y       z     vdW  Elec       q    Type
REMARK                         _______ _______ _______ _____ _____    ______ ____
ROOT
ATOM      1  C   LIG A   1      -7.375  -3.030 130.745  0.00  0.00    +0.127 A 
ATOM      2  C   LIG A   1      -5.989  -2.858 130.569  0.00  0.00    +0.092 A 
ATOM      3  C   LIG A   1      -5.439  -2.566 129.313  0.00  0.00    +0.138 A 
ATOM      4  C   LIG A   1      -8.237  -2.916 129.655  0.00  0.00    +0.092 A 
ATOM      5  C   LIG A   1      -7.690  -2.617 128.424  0.00  0.00    +0.140 A 
ATOM      6  O   LIG A   1      -8.473  -2.439 127.313  0.00  0.00    -0.469 OA
ATOM      7  C   LIG A   1      -6.331  -2.452 128.256  0.00  0.00    +0.105 A 
ATOM      8  C   LIG A   1      -6.156  -2.134 126.848  0.00  0.00    +0.221 C 
ATOM      9  C   LIG A   1      -7.560  -2.162 126.206  0.00  0.00    +0.231 C 
ATOM     10  C   LIG A   1      -7.959  -0.804 125.628  0.00  0.00    +0.152 C 
ATOM     11  C   LIG A   1      -8.729  -0.693 124.529  0.00  0.00    +0.091 C 
ATOM     12  C   LIG A   1      -7.727  -3.333 125.201  0.00  0.00    +0.053 C 
ATOM     13  C   LIG A   1      -6.610  -3.432 124.156  0.00  0.00    +0.013 C 
ATOM     14  C   LIG A   1      -9.093  -3.231 124.503  0.00  0.00    +0.087 C 
ATOM     15  C   LIG A   1      -9.283  -1.884 123.851  0.00  0.00    +0.160 C 
ATOM     16  O   LIG A   1      -9.937  -1.738 122.822  0.00  0.00    -0.293 OA
ATOM     17  O   LIG A   1      -5.098  -1.896 126.305  0.00  0.00    -0.287 OA
ENDROOT
BRANCH   1  19
ATOM     18  C   LIG A   1      -7.605  -2.225 132.963  0.00  0.00    +0.277 C 
ATOM     19  O   LIG A   1      -7.755  -3.292 132.034  0.00  0.00    -0.495 OA
ENDBRANCH   1  19
BRANCH   3  20
ATOM     20  O   LIG A   1      -4.107  -2.388 129.073  0.00  0.00    -0.494 OA
ATOM     21  C   LIG A   1      -3.261  -3.517 129.276  0.00  0.00    +0.277 C 
ENDBRANCH   3  20
BRANCH  10  22
ATOM     22  O   LIG A   1      -7.469   0.285 126.336  0.00  0.00    -0.495 OA
ATOM     23  C   LIG A   1      -8.431   1.122 126.976  0.00  0.00    +0.277 C 
ENDBRANCH  10  22
TORSDOF 3
ENDMDL
MODEL 3
REMARK VINA RESULT:      -6.5      6.215      8.653
REMARK  Name = NuBBE_267
REMARK  7 active torsions:
REMARK  status: ('A' for Active; 'I' for Inactive)
REMARK    1  A    between atoms: C_1  and  O_2
REMARK    2  A    between atoms: O_2  and  C_3
REMARK    3  A    between atoms: C_5  and  O_6
REMARK    4  A    between atoms: O_6  and  C_7
REMARK    5  A    between atoms: C_14  and  O_15
REMARK    6  A    between atoms: O_15  and  C_16
REMARK    7  A    between atoms: C_18  and  C_20
REMARK                            x       y       z     vdW  Elec       q    Type
REMARK                         _______ _______ _______ _____ _____    ______ ____
ROOT
ATOM      1  C   LIG A   1      -7.511   1.750 128.881  0.00  0.00    +0.127 A 
ATOM      2  C   LIG A   1      -6.381   2.590 128.866  0.00  0.00    +0.092 A 
ATOM      3  C   LIG A   1      -6.466   3.940 129.234  0.00  0.00    +0.138 A 
ATOM      4  C   LIG A   1      -8.752   2.255 129.264  0.00  0.00    +0.092 A 
ATOM      5  C   LIG A   1      -8.826   3.582 129.637  0.00  0.00    +0.140 A 
ATOM      6  O   LIG A   1      -9.998   4.143 130.074  0.00  0.00    -0.469 OA
ATOM      7  C   LIG A   1      -7.716   4.402 129.618  0.00  0.00    +0.105 A 
ATOM      8  C   LIG A   1      -8.189   5.694 130.088  0.00  0.00    +0.221 C 
ATOM      9  C   LIG A   1      -9.703   5.546 130.354  0.00  0.00    +0.231 C 
ATOM     10  C   LIG A   1     -10.059   5.792 131.821  0.00  0.00    +0.152 C 
ATOM     11  C   LIG A   1     -11.227   6.352 132.189  0.00  0.00    +0.091 C 
ATOM     12  C   LIG A   1     -10.561   6.377 129.364  0.00  0.00    +0.053 C 
ATOM     13  C   LIG A   1     -10.136   7.844 129.237  0.00  0.00    +0.013 C 
ATOM     14  C   LIG A   1     -12.045   6.292 129.759  0.00  0.00    +0.087 C 
ATOM     15  C   LIG A   1     -12.260   6.707 131.193  0.00  0.00    +0.160 C 
ATOM     16  O   LIG A   1     -13.289   7.263 131.569  0.00  0.00    -0.293 OA
ATOM     17  O   LIG A   1      -7.505   6.684 130.234  0.00  0.00    -0.287 OA
ENDROOT
BRANCH   1  19
ATOM     18  C   LIG A   1      -7.486  -0.537 129.506  0.00  0.00    +0.277 C 
ATOM     19  O   LIG A   1      -7.260   0.455 128.512  0.00  0.00    -0.495 OA
ENDBRANCH   1  19
BRANCH   3  20
ATOM     20  O   LIG A   1      -5.412   4.808 129.241  0.00  0.00    -0.494 OA
ATOM     21  C   LIG A   1      -4.623   4.869 128.056  0.00  0.00    +0.277 C 
ENDBRANCH   3  20
BRANCH  10  22
ATOM     22  O   LIG A   1      -9.086   5.383 132.722  0.00  0.00    -0.495 OA
ATOM     23  C   LIG A   1      -9.287   4.122 133.358  0.00  0.00    +0.277 C 
ENDBRANCH  10  22
TORSDOF 3
ENDMDL
MODEL 4
REMARK VINA RESULT:      -6.3      1.761      3.756
REMARK  Name = NuBBE_267
REMARK  7 active torsions:
REMARK  status: ('A' for Active; 'I' for Inactive)
REMARK    1  A    between atoms: C_1  and  O_2
REMARK    2  A    between atoms: O_2  and  C_3
REMARK    3  A    between atoms: C_5  and  O_6
REMARK    4  A    between atoms: O_6  and  C_7
REMARK    5  A    between atoms: C_14  and  O_15
REMARK    6  A    between atoms: O_15  and  C_16
REMARK    7  A    between atoms: C_18  and  C_20
REMARK                            x       y       z     vdW  Elec       q    Type
REMARK                         _______ _______ _______ _____ _____    ______ ____
ROOT
ATOM      1  C   LIG A   1      -4.104   3.423 126.362  0.00  0.00    +0.127 A 
ATOM      2  C   LIG A   1      -4.693   4.117 125.288  0.00  0.00    +0.092 A 
ATOM      3  C   LIG A   1      -5.695   3.534 124.499  0.00  0.00    +0.138 A 
ATOM      4  C   LIG A   1      -4.509   2.123 126.660  0.00  0.00    +0.092 A 
ATOM      5  C   LIG A   1      -5.504   1.560 125.888  0.00  0.00    +0.140 A 
ATOM      6  O   LIG A   1      -5.995   0.307 126.147  0.00  0.00    -0.469 OA
ATOM      7  C   LIG A   1      -6.077   2.244 124.835  0.00  0.00    +0.105 A 
ATOM      8  C   LIG A   1      -7.078   1.338 124.293  0.00  0.00    +0.221 C 
ATOM      9  C   LIG A   1      -7.006   0.040 125.126  0.00  0.00    +0.231 C 
ATOM     10  C   LIG A   1      -8.315  -0.250 125.861  0.00  0.00    +0.152 C 
ATOM     11  C   LIG A   1      -8.747  -1.505 126.082  0.00  0.00    +0.091 C 
ATOM     12  C   LIG A   1      -6.482  -1.164 124.299  0.00  0.00    +0.053 C 
ATOM     13  C   LIG A   1      -7.203  -1.373 122.963  0.00  0.00    +0.013 C 
ATOM     14  C   LIG A   1      -6.555  -2.448 125.143  0.00  0.00    +0.087 C 
ATOM     15  C   LIG A   1      -7.946  -2.680 125.678  0.00  0.00    +0.160 C 
ATOM     16  O   LIG A   1      -8.403  -3.806 125.854  0.00  0.00    -0.293 OA
ATOM     17  O   LIG A   1      -7.817   1.581 123.363  0.00  0.00    -0.287 OA
ENDROOT
BRANCH   1  19
ATOM     18  C   LIG A   1      -3.595   5.336 127.666  0.00  0.00    +0.277 C 
ATOM     19  O   LIG A   1      -3.154   4.135 127.044  0.00  0.00    -0.495 OA
ENDBRANCH   1  19
BRANCH   3  20
ATOM     20  O   LIG A   1      -6.307   4.150 123.445  0.00  0.00    -0.494 OA
ATOM     21  C   LIG A   1      -5.611   4.134 122.201  0.00  0.00    +0.277 C 
ENDBRANCH   3  20
BRANCH  10  22
ATOM     22  O   LIG A   1      -9.000   0.884 126.278  0.00  0.00    -0.495 OA
ATOM     23  C   LIG A   1      -8.731   1.348 127.599  0.00  0.00    +0.277 C 
ENDBRANCH  10  22
TORSDOF 3
ENDMDL
MODEL 5
REMARK VINA RESULT:      -6.3      4.901      7.662
REMARK  Name = NuBBE_267
REMARK  7 active torsions:
REMARK  status: ('A' for Active; 'I' for Inactive)
REMARK    1  A    between atoms: C_1  and  O_2
REMARK    2  A    between atoms: O_2  and  C_3
REMARK    3  A    between atoms: C_5  and  O_6
REMARK    4  A    between atoms: O_6  and  C_7
REMARK    5  A    between atoms: C_14  and  O_15
REMARK    6  A    between atoms: O_15  and  C_16
REMARK    7  A    between atoms: C_18  and  C_20
REMARK                            x       y       z     vdW  Elec       q    Type
REMARK                         _______ _______ _______ _____ _____    ______ ____
ROOT
ATOM      1  C   LIG A   1      -9.016  -2.633 126.166  0.00  0.00    +0.127 A 
ATOM      2  C   LIG A   1      -8.347  -1.413 125.952  0.00  0.00    +0.092 A 
ATOM      3  C   LIG A   1      -7.404  -0.923 126.867  0.00  0.00    +0.138 A 
ATOM      4  C   LIG A   1      -8.753  -3.383 127.311  0.00  0.00    +0.092 A 
ATOM      5  C   LIG A   1      -7.815  -2.901 128.201  0.00  0.00    +0.140 A 
ATOM      6  O   LIG A   1      -7.463  -3.602 129.325  0.00  0.00    -0.469 OA
ATOM      7  C   LIG A   1      -7.164  -1.704 127.988  0.00  0.00    +0.105 A 
ATOM      8  C   LIG A   1      -6.259  -1.557 129.117  0.00  0.00    +0.221 C 
ATOM      9  C   LIG A   1      -6.476  -2.785 130.027  0.00  0.00    +0.231 C 
ATOM     10  C   LIG A   1      -5.211  -3.634 130.165  0.00  0.00    +0.152 C 
ATOM     11  C   LIG A   1      -4.916  -4.298 131.299  0.00  0.00    +0.091 C 
ATOM     12  C   LIG A   1      -7.115  -2.405 131.389  0.00  0.00    +0.053 C 
ATOM     13  C   LIG A   1      -6.408  -1.260 132.121  0.00  0.00    +0.013 C 
ATOM     14  C   LIG A   1      -7.187  -3.645 132.296  0.00  0.00    +0.087 C 
ATOM     15  C   LIG A   1      -5.834  -4.291 132.458  0.00  0.00    +0.160 C 
ATOM     16  O   LIG A   1      -5.500  -4.868 133.490  0.00  0.00    -0.293 OA
ATOM     17  O   LIG A   1      -5.489  -0.636 129.287  0.00  0.00    -0.287 OA
ENDROOT
BRANCH   1  19
ATOM     18  C   LIG A   1      -9.319  -3.282 123.905  0.00  0.00    +0.277 C 
ATOM     19  O   LIG A   1      -9.892  -2.981 125.172  0.00  0.00    -0.495 OA
ENDBRANCH   1  19
BRANCH   3  20
ATOM     20  O   LIG A   1      -6.720   0.249 126.721  0.00  0.00    -0.494 OA
ATOM     21  C   LIG A   1      -5.595   0.231 125.846  0.00  0.00    +0.277 C 
ENDBRANCH   3  20
BRANCH  10  22
ATOM     22  O   LIG A   1      -4.415  -3.662 129.029  0.00  0.00    -0.495 OA
ATOM     23  C   LIG A   1      -3.003  -3.660 129.232  0.00  0.00    +0.277 C 
ENDBRANCH  10  22
TORSDOF 3
ENDMDL
MODEL 6
REMARK VINA RESULT:      -6.2      1.838      6.134
REMARK  Name = NuBBE_267
REMARK  7 active torsions:
REMARK  status: ('A' for Active; 'I' for Inactive)
REMARK    1  A    between atoms: C_1  and  O_2
REMARK    2  A    between atoms: O_2  and  C_3
REMARK    3  A    between atoms: C_5  and  O_6
REMARK    4  A    between atoms: O_6  and  C_7
REMARK    5  A    between atoms: C_14  and  O_15
REMARK    6  A    between atoms: O_15  and  C_16
REMARK    7  A    between atoms: C_18  and  C_20
REMARK                            x       y       z     vdW  Elec       q    Type
REMARK                         _______ _______ _______ _____ _____    ______ ____
ROOT
ATOM      1  C   LIG A   1      -6.790  -1.811 124.331  0.00  0.00    +0.127 A 
ATOM      2  C   LIG A   1      -8.127  -1.519 124.002  0.00  0.00    +0.092 A 
ATOM      3  C   LIG A   1      -8.677  -0.249 124.229  0.00  0.00    +0.138 A 
ATOM      4  C   LIG A   1      -5.980  -0.831 124.902  0.00  0.00    +0.092 A 
ATOM      5  C   LIG A   1      -6.525   0.419 125.111  0.00  0.00    +0.140 A 
ATOM      6  O   LIG A   1      -5.781   1.452 125.621  0.00  0.00    -0.469 OA
ATOM      7  C   LIG A   1      -7.836   0.701 124.789  0.00  0.00    +0.105 A 
ATOM      8  C   LIG A   1      -8.021   2.101 125.136  0.00  0.00    +0.221 C 
ATOM      9  C   LIG A   1      -6.682   2.597 125.724  0.00  0.00    +0.231 C 
ATOM     10  C   LIG A   1      -6.068   3.724 124.892  0.00  0.00    +0.152 C 
ATOM     11  C   LIG A   1      -5.349   4.715 125.452  0.00  0.00    +0.091 C 
ATOM     12  C   LIG A   1      -6.789   2.934 127.234  0.00  0.00    +0.053 C 
ATOM     13  C   LIG A   1      -7.958   3.857 127.595  0.00  0.00    +0.013 C 
ATOM     14  C   LIG A   1      -5.466   3.541 127.729  0.00  0.00    +0.087 C 
ATOM     15  C   LIG A   1      -5.063   4.737 126.902  0.00  0.00    +0.160 C 
ATOM     16  O   LIG A   1      -4.448   5.688 127.377  0.00  0.00    -0.293 OA
ATOM     17  O   LIG A   1      -9.043   2.735 124.982  0.00  0.00    -0.287 OA
ENDROOT
BRANCH   1  19
ATOM     18  C   LIG A   1      -5.017  -3.273 123.747  0.00  0.00    +0.277 C 
ATOM     19  O   LIG A   1      -6.399  -3.089 124.030  0.00  0.00    -0.495 OA
ENDBRANCH   1  19
BRANCH   3  20
ATOM     20  O   LIG A   1      -9.964   0.101 123.934  0.00  0.00    -0.494 OA
ATOM     21  C   LIG A   1     -10.239   0.453 122.580  0.00  0.00    +0.277 C 
ENDBRANCH   3  20
BRANCH  10  22
ATOM     22  O   LIG A   1      -6.309   3.625 123.529  0.00  0.00    -0.495 OA
ATOM     23  C   LIG A   1      -5.396   4.299 122.663  0.00  0.00    +0.277 C 
ENDBRANCH  10  22
TORSDOF 3
ENDMDL
MODEL 7
REMARK VINA RESULT:      -6.2      2.232      6.234
REMARK  Name = NuBBE_267
REMARK  7 active torsions:
REMARK  status: ('A' for Active; 'I' for Inactive)
REMARK    1  A    between atoms: C_1  and  O_2
REMARK    2  A    between atoms: O_2  and  C_3
REMARK    3  A    between atoms: C_5  and  O_6
REMARK    4  A    between atoms: O_6  and  C_7
REMARK    5  A    between atoms: C_14  and  O_15
REMARK    6  A    between atoms: O_15  and  C_16
REMARK    7  A    between atoms: C_18  and  C_20
REMARK                            x       y       z     vdW  Elec       q    Type
REMARK                         _______ _______ _______ _____ _____    ______ ____
ROOT
ATOM      1  C   LIG A   1      -6.088  -3.291 124.214  0.00  0.00    +0.127 A 
ATOM      2  C   LIG A   1      -7.449  -3.592 124.413  0.00  0.00    +0.092 A 
ATOM      3  C   LIG A   1      -8.366  -2.610 124.816  0.00  0.00    +0.138 A 
ATOM      4  C   LIG A   1      -5.621  -1.995 124.422  0.00  0.00    +0.092 A 
ATOM      5  C   LIG A   1      -6.531  -1.031 124.807  0.00  0.00    +0.140 A 
ATOM      6  O   LIG A   1      -6.163   0.278 124.983  0.00  0.00    -0.469 OA
ATOM      7  C   LIG A   1      -7.864  -1.331 125.002  0.00  0.00    +0.105 A 
ATOM      8  C   LIG A   1      -8.487  -0.070 125.375  0.00  0.00    +0.221 C 
ATOM      9  C   LIG A   1      -7.366   0.992 125.404  0.00  0.00    +0.231 C 
ATOM     10  C   LIG A   1      -7.601   2.109 124.387  0.00  0.00    +0.152 C 
ATOM     11  C   LIG A   1      -7.219   3.379 124.619  0.00  0.00    +0.091 C 
ATOM     12  C   LIG A   1      -7.084   1.512 126.838  0.00  0.00    +0.053 C 
ATOM     13  C   LIG A   1      -8.332   1.966 127.602  0.00  0.00    +0.013 C 
ATOM     14  C   LIG A   1      -6.054   2.654 126.786  0.00  0.00    +0.087 C 
ATOM     15  C   LIG A   1      -6.495   3.753 125.852  0.00  0.00    +0.160 C 
ATOM     16  O   LIG A   1      -6.212   4.933 126.046  0.00  0.00    -0.293 OA
ATOM     17  O   LIG A   1      -9.665   0.090 125.611  0.00  0.00    -0.287 OA
ENDROOT
BRANCH   1  19
ATOM     18  C   LIG A   1      -3.962  -4.075 123.518  0.00  0.00    +0.277 C 
ATOM     19  O   LIG A   1      -5.327  -4.354 123.805  0.00  0.00    -0.495 OA
ENDBRANCH   1  19
BRANCH   3  20
ATOM     20  O   LIG A   1      -9.696  -2.833 125.026  0.00  0.00    -0.494 OA
ATOM     21  C   LIG A   1     -10.068  -3.339 126.306  0.00  0.00    +0.277 C 
ENDBRANCH   3  20
BRANCH  10  22
ATOM     22  O   LIG A   1      -8.225   1.696 123.218  0.00  0.00    -0.495 OA
ATOM     23  C   LIG A   1      -8.844   2.709 122.426  0.00  0.00    +0.277 C 
ENDBRANCH  10  22
TORSDOF 3
ENDMDL
MODEL 8
REMARK VINA RESULT:      -6.2      2.593      6.156
REMARK  Name = NuBBE_267
REMARK  7 active torsions:
REMARK  status: ('A' for Active; 'I' for Inactive)
REMARK    1  A    between atoms: C_1  and  O_2
REMARK    2  A    between atoms: O_2  and  C_3
REMARK    3  A    between atoms: C_5  and  O_6
REMARK    4  A    between atoms: O_6  and  C_7
REMARK    5  A    between atoms: C_14  and  O_15
REMARK    6  A    between atoms: O_15  and  C_16
REMARK    7  A    between atoms: C_18  and  C_20
REMARK                            x       y       z     vdW  Elec       q    Type
REMARK                         _______ _______ _______ _____ _____    ______ ____
ROOT
ATOM      1  C   LIG A   1      -6.408  -2.459 124.764  0.00  0.00    +0.127 A 
ATOM      2  C   LIG A   1      -7.048  -2.722 125.990  0.00  0.00    +0.092 A 
ATOM      3  C   LIG A   1      -7.444  -1.687 126.849  0.00  0.00    +0.138 A 
ATOM      4  C   LIG A   1      -6.150  -1.144 124.379  0.00  0.00    +0.092 A 
ATOM      5  C   LIG A   1      -6.553  -0.130 125.223  0.00  0.00    +0.140 A 
ATOM      6  O   LIG A   1      -6.382   1.190 124.896  0.00  0.00    -0.469 OA
ATOM      7  C   LIG A   1      -7.178  -0.393 126.425  0.00  0.00    +0.105 A 
ATOM      8  C   LIG A   1      -7.458   0.912 127.003  0.00  0.00    +0.221 C 
ATOM      9  C   LIG A   1      -6.901   1.965 126.021  0.00  0.00    +0.231 C 
ATOM     10  C   LIG A   1      -7.997   2.876 125.467  0.00  0.00    +0.152 C 
ATOM     11  C   LIG A   1      -7.768   4.168 125.167  0.00  0.00    +0.091 C 
ATOM     12  C   LIG A   1      -5.693   2.740 126.609  0.00  0.00    +0.053 C 
ATOM     13  C   LIG A   1      -5.935   3.322 128.006  0.00  0.00    +0.013 C 
ATOM     14  C   LIG A   1      -5.267   3.857 125.640  0.00  0.00    +0.087 C 
ATOM     15  C   LIG A   1      -6.422   4.765 125.301  0.00  0.00    +0.160 C 
ATOM     16  O   LIG A   1      -6.271   5.961 125.066  0.00  0.00    -0.293 OA
ATOM     17  O   LIG A   1      -8.023   1.108 128.057  0.00  0.00    -0.287 OA
ENDROOT
BRANCH   1  19
ATOM     18  C   LIG A   1      -4.736  -3.729 123.664  0.00  0.00    +0.277 C 
ATOM     19  O   LIG A   1      -6.101  -3.575 124.033  0.00  0.00    -0.495 OA
ENDBRANCH   1  19
BRANCH   3  20
ATOM     20  O   LIG A   1      -8.067  -1.873 128.049  0.00  0.00    -0.494 OA
ATOM     21  C   LIG A   1      -8.300  -3.221 128.450  0.00  0.00    +0.277 C 
ENDBRANCH   3  20
BRANCH  10  22
ATOM     22  O   LIG A   1      -9.226   2.254 125.297  0.00  0.00    -0.495 OA
ATOM     23  C   LIG A   1      -9.605   1.931 123.960  0.00  0.00    +0.277 C 
ENDBRANCH  10  22
TORSDOF 3
ENDMDL
MODEL 9
REMARK VINA RESULT:      -6.1      2.367      5.162
REMARK  Name = NuBBE_267
REMARK  7 active torsions:
REMARK  status: ('A' for Active; 'I' for Inactive)
REMARK    1  A    between atoms: C_1  and  O_2
REMARK    2  A    between atoms: O_2  and  C_3
REMARK    3  A    between atoms: C_5  and  O_6
REMARK    4  A    between atoms: O_6  and  C_7
REMARK    5  A    between atoms: C_14  and  O_15
REMARK    6  A    between atoms: O_15  and  C_16
REMARK    7  A    between atoms: C_18  and  C_20
REMARK                            x       y       z     vdW  Elec       q    Type
REMARK                         _______ _______ _______ _____ _____    ______ ____
ROOT
ATOM      1  C   LIG A   1      -7.160   3.749 121.298  0.00  0.00    +0.127 A 
ATOM      2  C   LIG A   1      -8.372   3.107 121.617  0.00  0.00    +0.092 A 
ATOM      3  C   LIG A   1      -8.612   2.590 122.898  0.00  0.00    +0.138 A 
ATOM      4  C   LIG A   1      -6.162   3.878 122.262  0.00  0.00    +0.092 A 
ATOM      5  C   LIG A   1      -6.411   3.378 123.524  0.00  0.00    +0.140 A 
ATOM      6  O   LIG A   1      -5.502   3.509 124.542  0.00  0.00    -0.469 OA
ATOM      7  C   LIG A   1      -7.599   2.748 123.832  0.00  0.00    +0.105 A 
ATOM      8  C   LIG A   1      -7.487   2.388 125.236  0.00  0.00    +0.221 C 
ATOM      9  C   LIG A   1      -6.090   2.850 125.706  0.00  0.00    +0.231 C 
ATOM     10  C   LIG A   1      -6.171   3.896 126.819  0.00  0.00    +0.152 C 
ATOM     11  C   LIG A   1      -5.249   3.973 127.796  0.00  0.00    +0.091 C 
ATOM     12  C   LIG A   1      -5.158   1.657 126.048  0.00  0.00    +0.053 C 
ATOM     13  C   LIG A   1      -5.776   0.624 126.996  0.00  0.00    +0.013 C 
ATOM     14  C   LIG A   1      -3.833   2.180 126.630  0.00  0.00    +0.087 C 
ATOM     15  C   LIG A   1      -4.068   3.083 127.814  0.00  0.00    +0.160 C 
ATOM     16  O   LIG A   1      -3.280   3.154 128.754  0.00  0.00    -0.293 OA
ATOM     17  O   LIG A   1      -8.342   1.831 125.891  0.00  0.00    -0.287 OA
ENDROOT
BRANCH   1  19
ATOM     18  C   LIG A   1      -8.315   4.288 119.298  0.00  0.00    +0.277 C 
ATOM     19  O   LIG A   1      -7.086   4.214 120.011  0.00  0.00    -0.495 OA
ENDBRANCH   1  19
BRANCH   3  20
ATOM     20  O   LIG A   1      -9.763   1.958 123.274  0.00  0.00    -0.494 OA
ATOM     21  C   LIG A   1     -10.030   0.696 122.666  0.00  0.00    +0.277 C 
ENDBRANCH   3  20
BRANCH  10  22
ATOM     22  O   LIG A   1      -7.261   4.751 126.722  0.00  0.00    -0.495 OA
ATOM     23  C   LIG A   1      -8.161   4.773 127.828  0.00  0.00    +0.277 C 
ENDBRANCH  10  22
TORSDOF 3
ENDMDL
