MODEL 1
REMARK VINA RESULT:      -7.5      0.000      0.000
REMARK  Name = NuBBE_2091
REMARK  10 active torsions:
REMARK  status: ('A' for Active; 'I' for Inactive)
REMARK    1  A    between atoms: C_2  and  C_12
REMARK    2  A    between atoms: N_3  and  C_4
REMARK    3  A    between atoms: C_4  and  C_5
REMARK    4  A    between atoms: C_5  and  O_6
REMARK    5  A    between atoms: C_5  and  C_10
REMARK    6  A    between atoms: C_5  and  C_11
REMARK    7  A    between atoms: O_6  and  C_7
REMARK    8  A    between atoms: C_7  and  C_8
REMARK    9  A    between atoms: C_13  and  C_14
REMARK   10  A    between atoms: C_15  and  C_16
REMARK                            x       y       z     vdW  Elec       q    Type
REMARK                         _______ _______ _______ _____ _____    ______ ____
ROOT
ATOM      1  C   LIG A   1      -9.358  -1.138 122.672  0.00  0.00    +0.067 C 
ATOM      2  C   LIG A   1      -9.786   0.127 122.571  0.00  0.00    +0.005 C 
ENDROOT
BRANCH   1   4
ATOM      3  O   LIG A   1      -9.755  -2.741 124.385  0.00  0.00    -0.271 OA
ATOM      4  C   LIG A   1      -9.063  -1.824 123.953  0.00  0.00    +0.237 C 
ATOM      5  N   LIG A   1      -7.936  -1.350 124.563  0.00  0.00    -0.308 N 
ATOM      6  H   LIG A   1      -7.440  -0.566 124.140  0.00  0.00    +0.149 HD
BRANCH   5   7
ATOM      7  C   LIG A   1      -7.419  -1.912 125.802  0.00  0.00    +0.151 C 
BRANCH   7   8
ATOM      8  C   LIG A   1      -5.870  -1.906 125.924  0.00  0.00    +0.123 C 
ATOM      9  C   LIG A   1      -5.230  -0.613 125.393  0.00  0.00    +0.057 C 
ATOM     10  C   LIG A   1      -5.487  -2.019 127.417  0.00  0.00    +0.057 C 
BRANCH   8  11
ATOM     11  O   LIG A   1      -5.290  -3.089 125.292  0.00  0.00    -0.457 OA
BRANCH  11  12
ATOM     12  C   LIG A   1      -5.142  -3.134 123.939  0.00  0.00    +0.304 C 
ATOM     13  C   LIG A   1      -4.211  -4.232 123.534  0.00  0.00    +0.136 C 
ATOM     14  O   LIG A   1      -5.684  -2.397 123.132  0.00  0.00    -0.251 OA
ENDBRANCH  11  12
ENDBRANCH   8  11
ENDBRANCH   7   8
ENDBRANCH   5   7
ENDBRANCH   1   4
BRANCH   2  15
ATOM     15  C   LIG A   1      -9.898   1.064 123.663  0.00  0.00    +0.001 C 
ATOM     16  C   LIG A   1      -9.241   2.228 123.782  0.00  0.00    +0.008 C 
BRANCH  16  17
ATOM     17  C   LIG A   1      -8.347   2.834 122.792  0.00  0.00    -0.021 A 
ATOM     18  C   LIG A   1      -8.841   3.302 121.568  0.00  0.00    +0.057 A 
ATOM     19  C   LIG A   1      -7.931   3.798 120.655  0.00  0.00    +0.167 A 
ATOM     20  O   LIG A   1      -8.229   4.282 119.419  0.00  0.00    -0.453 OA
ATOM     21  C   LIG A   1      -6.916   4.647 118.945  0.00  0.00    +0.466 C 
ATOM     22  O   LIG A   1      -5.862   4.348 119.884  0.00  0.00    -0.453 OA
ATOM     23  C   LIG A   1      -6.581   3.837 120.919  0.00  0.00    +0.166 A 
ATOM     24  C   LIG A   1      -6.063   3.390 122.115  0.00  0.00    +0.050 A 
ATOM     25  C   LIG A   1      -6.961   2.887 123.062  0.00  0.00    +0.012 A 
ENDBRANCH  16  17
ENDBRANCH   2  15
TORSDOF 7
ENDMDL
MODEL 2
REMARK VINA RESULT:      -7.5      1.570      2.424
REMARK  Name = NuBBE_2091
REMARK  10 active torsions:
REMARK  status: ('A' for Active; 'I' for Inactive)
REMARK    1  A    between atoms: C_2  and  C_12
REMARK    2  A    between atoms: N_3  and  C_4
REMARK    3  A    between atoms: C_4  and  C_5
REMARK    4  A    between atoms: C_5  and  O_6
REMARK    5  A    between atoms: C_5  and  C_10
REMARK    6  A    between atoms: C_5  and  C_11
REMARK    7  A    between atoms: O_6  and  C_7
REMARK    8  A    between atoms: C_7  and  C_8
REMARK    9  A    between atoms: C_13  and  C_14
REMARK   10  A    between atoms: C_15  and  C_16
REMARK                            x       y       z     vdW  Elec       q    Type
REMARK                         _______ _______ _______ _____ _____    ______ ____
ROOT
ATOM      1  C   LIG A   1      -9.363  -1.207 122.672  0.00  0.00    +0.067 C 
ATOM      2  C   LIG A   1      -9.829   0.049 122.668  0.00  0.00    +0.005 C 
ENDROOT
BRANCH   1   4
ATOM      3  O   LIG A   1      -9.718  -2.584 124.579  0.00  0.00    -0.271 OA
ATOM      4  C   LIG A   1      -8.935  -1.938 123.888  0.00  0.00    +0.237 C 
ATOM      5  N   LIG A   1      -7.592  -1.842 124.123  0.00  0.00    -0.308 N 
ATOM      6  H   LIG A   1      -7.026  -1.260 123.506  0.00  0.00    +0.149 HD
BRANCH   5   7
ATOM      7  C   LIG A   1      -6.938  -2.527 125.227  0.00  0.00    +0.151 C 
BRANCH   7   8
ATOM      8  C   LIG A   1      -6.766  -1.673 126.513  0.00  0.00    +0.123 C 
ATOM      9  C   LIG A   1      -5.499  -2.029 127.307  0.00  0.00    +0.057 C 
ATOM     10  C   LIG A   1      -6.644  -0.186 126.112  0.00  0.00    +0.057 C 
BRANCH   8  11
ATOM     11  O   LIG A   1      -7.960  -1.744 127.353  0.00  0.00    -0.457 OA
BRANCH  11  12
ATOM     12  C   LIG A   1      -8.034  -2.663 128.355  0.00  0.00    +0.304 C 
ATOM     13  C   LIG A   1      -8.838  -3.853 127.941  0.00  0.00    +0.136 C 
ATOM     14  O   LIG A   1      -7.520  -2.565 129.458  0.00  0.00    -0.251 OA
ENDBRANCH  11  12
ENDBRANCH   8  11
ENDBRANCH   7   8
ENDBRANCH   5   7
ENDBRANCH   1   4
BRANCH   2  15
ATOM     15  C   LIG A   1      -9.864   0.935 123.807  0.00  0.00    +0.001 C 
ATOM     16  C   LIG A   1      -9.176   2.077 123.947  0.00  0.00    +0.008 C 
BRANCH  16  17
ATOM     17  C   LIG A   1      -8.319   2.713 122.941  0.00  0.00    -0.021 A 
ATOM     18  C   LIG A   1      -8.855   3.182 121.735  0.00  0.00    +0.057 A 
ATOM     19  C   LIG A   1      -7.979   3.706 120.804  0.00  0.00    +0.167 A 
ATOM     20  O   LIG A   1      -8.319   4.196 119.581  0.00  0.00    -0.453 OA
ATOM     21  C   LIG A   1      -7.026   4.593 119.077  0.00  0.00    +0.466 C 
ATOM     22  O   LIG A   1      -5.943   4.308 119.986  0.00  0.00    -0.453 OA
ATOM     23  C   LIG A   1      -6.624   3.771 121.034  0.00  0.00    +0.166 A 
ATOM     24  C   LIG A   1      -6.066   3.323 122.211  0.00  0.00    +0.050 A 
ATOM     25  C   LIG A   1      -6.929   2.792 123.176  0.00  0.00    +0.012 A 
ENDBRANCH  16  17
ENDBRANCH   2  15
TORSDOF 7
ENDMDL
MODEL 3
REMARK VINA RESULT:      -7.4      8.072      9.651
REMARK  Name = NuBBE_2091
REMARK  10 active torsions:
REMARK  status: ('A' for Active; 'I' for Inactive)
REMARK    1  A    between atoms: C_2  and  C_12
REMARK    2  A    between atoms: N_3  and  C_4
REMARK    3  A    between atoms: C_4  and  C_5
REMARK    4  A    between atoms: C_5  and  O_6
REMARK    5  A    between atoms: C_5  and  C_10
REMARK    6  A    between atoms: C_5  and  C_11
REMARK    7  A    between atoms: O_6  and  C_7
REMARK    8  A    between atoms: C_7  and  C_8
REMARK    9  A    between atoms: C_13  and  C_14
REMARK   10  A    between atoms: C_15  and  C_16
REMARK                            x       y       z     vdW  Elec       q    Type
REMARK                         _______ _______ _______ _____ _____    ______ ____
ROOT
ATOM      1  C   LIG A   1      -8.501   3.541 129.693  0.00  0.00    +0.067 C 
ATOM      2  C   LIG A   1      -8.412   4.007 130.945  0.00  0.00    +0.005 C 
ENDROOT
BRANCH   1   4
ATOM      3  O   LIG A   1      -8.358   4.966 127.792  0.00  0.00    -0.271 OA
ATOM      4  C   LIG A   1      -7.816   4.142 128.524  0.00  0.00    +0.237 C 
ATOM      5  N   LIG A   1      -6.527   3.710 128.382  0.00  0.00    -0.308 N 
ATOM      6  H   LIG A   1      -6.172   3.003 129.026  0.00  0.00    +0.149 HD
BRANCH   5   7
ATOM      7  C   LIG A   1      -5.643   4.210 127.340  0.00  0.00    +0.151 C 
BRANCH   7   8
ATOM      8  C   LIG A   1      -4.293   4.785 127.852  0.00  0.00    +0.123 C 
ATOM      9  C   LIG A   1      -3.976   4.377 129.300  0.00  0.00    +0.057 C 
ATOM     10  C   LIG A   1      -3.150   4.237 126.968  0.00  0.00    +0.057 C 
BRANCH   8  11
ATOM     11  O   LIG A   1      -4.244   6.235 127.683  0.00  0.00    -0.457 OA
BRANCH  11  12
ATOM     12  C   LIG A   1      -3.283   6.963 128.316  0.00  0.00    +0.304 C 
ATOM     13  C   LIG A   1      -3.876   7.837 129.375  0.00  0.00    +0.136 C 
ATOM     14  O   LIG A   1      -2.086   6.929 128.083  0.00  0.00    -0.251 OA
ENDBRANCH  11  12
ENDBRANCH   8  11
ENDBRANCH   7   8
ENDBRANCH   5   7
ENDBRANCH   1   4
BRANCH   2  15
ATOM     15  C   LIG A   1      -7.760   5.232 131.341  0.00  0.00    +0.001 C 
ATOM     16  C   LIG A   1      -8.265   6.470 131.242  0.00  0.00    +0.008 C 
BRANCH  16  17
ATOM     17  C   LIG A   1      -9.615   6.833 130.802  0.00  0.00    -0.021 A 
ATOM     18  C   LIG A   1      -9.814   7.586 129.638  0.00  0.00    +0.057 A 
ATOM     19  C   LIG A   1     -11.108   7.950 129.320  0.00  0.00    +0.167 A 
ATOM     20  O   LIG A   1     -11.483   8.687 128.240  0.00  0.00    -0.453 OA
ATOM     21  C   LIG A   1     -12.913   8.739 128.430  0.00  0.00    +0.466 C 
ATOM     22  O   LIG A   1     -13.359   8.067 129.626  0.00  0.00    -0.453 OA
ATOM     23  C   LIG A   1     -12.178   7.597 130.110  0.00  0.00    +0.166 A 
ATOM     24  C   LIG A   1     -12.018   6.853 131.258  0.00  0.00    +0.050 A 
ATOM     25  C   LIG A   1     -10.719   6.464 131.602  0.00  0.00    +0.012 A 
ENDBRANCH  16  17
ENDBRANCH   2  15
TORSDOF 7
ENDMDL
MODEL 4
REMARK VINA RESULT:      -7.4      7.385      8.931
REMARK  Name = NuBBE_2091
REMARK  10 active torsions:
REMARK  status: ('A' for Active; 'I' for Inactive)
REMARK    1  A    between atoms: C_2  and  C_12
REMARK    2  A    between atoms: N_3  and  C_4
REMARK    3  A    between atoms: C_4  and  C_5
REMARK    4  A    between atoms: C_5  and  O_6
REMARK    5  A    between atoms: C_5  and  C_10
REMARK    6  A    between atoms: C_5  and  C_11
REMARK    7  A    between atoms: O_6  and  C_7
REMARK    8  A    between atoms: C_7  and  C_8
REMARK    9  A    between atoms: C_13  and  C_14
REMARK   10  A    between atoms: C_15  and  C_16
REMARK                            x       y       z     vdW  Elec       q    Type
REMARK                         _______ _______ _______ _____ _____    ______ ____
ROOT
ATOM      1  C   LIG A   1      -8.586   3.429 129.710  0.00  0.00    +0.067 C 
ATOM      2  C   LIG A   1      -8.583   3.751 131.010  0.00  0.00    +0.005 C 
ENDROOT
BRANCH   1   4
ATOM      3  O   LIG A   1      -8.283   4.916 127.877  0.00  0.00    -0.271 OA
ATOM      4  C   LIG A   1      -7.786   4.124 128.673  0.00  0.00    +0.237 C 
ATOM      5  N   LIG A   1      -6.456   3.814 128.730  0.00  0.00    -0.308 N 
ATOM      6  H   LIG A   1      -6.141   3.124 129.411  0.00  0.00    +0.149 HD
BRANCH   5   7
ATOM      7  C   LIG A   1      -5.471   4.421 127.848  0.00  0.00    +0.151 C 
BRANCH   7   8
ATOM      8  C   LIG A   1      -5.021   3.526 126.660  0.00  0.00    +0.123 C 
ATOM      9  C   LIG A   1      -3.588   3.824 126.191  0.00  0.00    +0.057 C 
ATOM     10  C   LIG A   1      -5.050   2.048 127.110  0.00  0.00    +0.057 C 
BRANCH   8  11
ATOM     11  O   LIG A   1      -5.972   3.606 125.554  0.00  0.00    -0.457 OA
BRANCH  11  12
ATOM     12  C   LIG A   1      -5.979   4.697 124.739  0.00  0.00    +0.304 C 
ATOM     13  C   LIG A   1      -5.597   4.330 123.341  0.00  0.00    +0.136 C 
ATOM     14  O   LIG A   1      -6.259   5.838 125.069  0.00  0.00    -0.251 OA
ENDBRANCH  11  12
ENDBRANCH   8  11
ENDBRANCH   7   8
ENDBRANCH   5   7
ENDBRANCH   1   4
BRANCH   2  15
ATOM     15  C   LIG A   1      -7.921   4.895 131.590  0.00  0.00    +0.001 C 
ATOM     16  C   LIG A   1      -8.359   6.163 131.568  0.00  0.00    +0.008 C 
BRANCH  16  17
ATOM     17  C   LIG A   1      -9.639   6.639 131.034  0.00  0.00    -0.021 A 
ATOM     18  C   LIG A   1      -9.691   7.384 129.849  0.00  0.00    +0.057 A 
ATOM     19  C   LIG A   1     -10.923   7.858 129.442  0.00  0.00    +0.167 A 
ATOM     20  O   LIG A   1     -11.158   8.605 128.330  0.00  0.00    -0.453 OA
ATOM     21  C   LIG A   1     -12.586   8.792 128.424  0.00  0.00    +0.466 C 
ATOM     22  O   LIG A   1     -13.168   8.187 129.598  0.00  0.00    -0.453 OA
ATOM     23  C   LIG A   1     -12.070   7.621 130.164  0.00  0.00    +0.166 A 
ATOM     24  C   LIG A   1     -12.053   6.887 131.330  0.00  0.00    +0.050 A 
ATOM     25  C   LIG A   1     -10.821   6.388 131.765  0.00  0.00    +0.012 A 
ENDBRANCH  16  17
ENDBRANCH   2  15
TORSDOF 7
ENDMDL
MODEL 5
REMARK VINA RESULT:      -7.3      7.576      8.915
REMARK  Name = NuBBE_2091
REMARK  10 active torsions:
REMARK  status: ('A' for Active; 'I' for Inactive)
REMARK    1  A    between atoms: C_2  and  C_12
REMARK    2  A    between atoms: N_3  and  C_4
REMARK    3  A    between atoms: C_4  and  C_5
REMARK    4  A    between atoms: C_5  and  O_6
REMARK    5  A    between atoms: C_5  and  C_10
REMARK    6  A    between atoms: C_5  and  C_11
REMARK    7  A    between atoms: O_6  and  C_7
REMARK    8  A    between atoms: C_7  and  C_8
REMARK    9  A    between atoms: C_13  and  C_14
REMARK   10  A    between atoms: C_15  and  C_16
REMARK                            x       y       z     vdW  Elec       q    Type
REMARK                         _______ _______ _______ _____ _____    ______ ____
ROOT
ATOM      1  C   LIG A   1      -8.594   3.499 129.601  0.00  0.00    +0.067 C 
ATOM      2  C   LIG A   1      -8.505   3.886 130.880  0.00  0.00    +0.005 C 
ENDROOT
BRANCH   1   4
ATOM      3  O   LIG A   1      -8.427   4.991 127.755  0.00  0.00    -0.271 OA
ATOM      4  C   LIG A   1      -7.887   4.156 128.475  0.00  0.00    +0.237 C 
ATOM      5  N   LIG A   1      -6.585   3.760 128.360  0.00  0.00    -0.308 N 
ATOM      6  H   LIG A   1      -6.232   3.039 128.990  0.00  0.00    +0.149 HD
BRANCH   5   7
ATOM      7  C   LIG A   1      -5.681   4.315 127.364  0.00  0.00    +0.151 C 
BRANCH   7   8
ATOM      8  C   LIG A   1      -4.905   3.260 126.528  0.00  0.00    +0.123 C 
ATOM      9  C   LIG A   1      -4.742   1.917 127.256  0.00  0.00    +0.057 C 
ATOM     10  C   LIG A   1      -5.693   2.977 125.228  0.00  0.00    +0.057 C 
BRANCH   8  11
ATOM     11  O   LIG A   1      -3.617   3.787 126.084  0.00  0.00    -0.457 OA
BRANCH  11  12
ATOM     12  C   LIG A   1      -2.566   3.835 126.949  0.00  0.00    +0.304 C 
ATOM     13  C   LIG A   1      -1.454   2.942 126.499  0.00  0.00    +0.136 C 
ATOM     14  O   LIG A   1      -2.502   4.508 127.964  0.00  0.00    -0.251 OA
ENDBRANCH  11  12
ENDBRANCH   8  11
ENDBRANCH   7   8
ENDBRANCH   5   7
ENDBRANCH   1   4
BRANCH   2  15
ATOM     15  C   LIG A   1      -7.830   5.071 131.354  0.00  0.00    +0.001 C 
ATOM     16  C   LIG A   1      -8.303   6.325 131.312  0.00  0.00    +0.008 C 
BRANCH  16  17
ATOM     17  C   LIG A   1      -9.634   6.746 130.865  0.00  0.00    -0.021 A 
ATOM     18  C   LIG A   1      -9.795   7.493 129.691  0.00  0.00    +0.057 A 
ATOM     19  C   LIG A   1     -11.070   7.914 129.368  0.00  0.00    +0.167 A 
ATOM     20  O   LIG A   1     -11.410   8.655 128.278  0.00  0.00    -0.453 OA
ATOM     21  C   LIG A   1     -12.836   8.777 128.465  0.00  0.00    +0.466 C 
ATOM     22  O   LIG A   1     -13.314   8.141 129.668  0.00  0.00    -0.453 OA
ATOM     23  C   LIG A   1     -12.157   7.622 130.160  0.00  0.00    +0.166 A 
ATOM     24  C   LIG A   1     -12.033   6.884 131.316  0.00  0.00    +0.050 A 
ATOM     25  C   LIG A   1     -10.755   6.438 131.667  0.00  0.00    +0.012 A 
ENDBRANCH  16  17
ENDBRANCH   2  15
TORSDOF 7
ENDMDL
MODEL 6
REMARK VINA RESULT:      -7.3      8.938     10.206
REMARK  Name = NuBBE_2091
REMARK  10 active torsions:
REMARK  status: ('A' for Active; 'I' for Inactive)
REMARK    1  A    between atoms: C_2  and  C_12
REMARK    2  A    between atoms: N_3  and  C_4
REMARK    3  A    between atoms: C_4  and  C_5
REMARK    4  A    between atoms: C_5  and  O_6
REMARK    5  A    between atoms: C_5  and  C_10
REMARK    6  A    between atoms: C_5  and  C_11
REMARK    7  A    between atoms: O_6  and  C_7
REMARK    8  A    between atoms: C_7  and  C_8
REMARK    9  A    between atoms: C_13  and  C_14
REMARK   10  A    between atoms: C_15  and  C_16
REMARK                            x       y       z     vdW  Elec       q    Type
REMARK                         _______ _______ _______ _____ _____    ______ ____
ROOT
ATOM      1  C   LIG A   1      -8.337   2.951 131.374  0.00  0.00    +0.067 C 
ATOM      2  C   LIG A   1      -9.300   3.523 132.108  0.00  0.00    +0.005 C 
ENDROOT
BRANCH   1   4
ATOM      3  O   LIG A   1      -6.157   2.674 132.286  0.00  0.00    -0.271 OA
ATOM      4  C   LIG A   1      -6.893   3.262 131.498  0.00  0.00    +0.237 C 
ATOM      5  N   LIG A   1      -6.479   4.230 130.627  0.00  0.00    -0.308 N 
ATOM      6  H   LIG A   1      -7.171   4.680 130.027  0.00  0.00    +0.149 HD
BRANCH   5   7
ATOM      7  C   LIG A   1      -5.092   4.657 130.529  0.00  0.00    +0.151 C 
BRANCH   7   8
ATOM      8  C   LIG A   1      -4.790   6.043 131.162  0.00  0.00    +0.123 C 
ATOM      9  C   LIG A   1      -5.974   7.019 131.066  0.00  0.00    +0.057 C 
ATOM     10  C   LIG A   1      -4.485   5.850 132.664  0.00  0.00    +0.057 C 
BRANCH   8  11
ATOM     11  O   LIG A   1      -3.573   6.623 130.598  0.00  0.00    -0.457 OA
BRANCH  11  12
ATOM     12  C   LIG A   1      -3.432   6.732 129.248  0.00  0.00    +0.304 C 
ATOM     13  C   LIG A   1      -2.290   5.904 128.755  0.00  0.00    +0.136 C 
ATOM     14  O   LIG A   1      -4.131   7.402 128.505  0.00  0.00    -0.251 OA
ENDBRANCH  11  12
ENDBRANCH   8  11
ENDBRANCH   7   8
ENDBRANCH   5   7
ENDBRANCH   1   4
BRANCH   2  15
ATOM     15  C   LIG A   1      -9.115   4.618 133.029  0.00  0.00    +0.001 C 
ATOM     16  C   LIG A   1      -9.494   5.891 132.839  0.00  0.00    +0.008 C 
BRANCH  16  17
ATOM     17  C   LIG A   1     -10.255   6.417 131.701  0.00  0.00    -0.021 A 
ATOM     18  C   LIG A   1      -9.601   6.949 130.583  0.00  0.00    +0.057 A 
ATOM     19  C   LIG A   1     -10.380   7.490 129.579  0.00  0.00    +0.167 A 
ATOM     20  O   LIG A   1      -9.918   8.057 128.433  0.00  0.00    -0.453 OA
ATOM     21  C   LIG A   1     -11.157   8.426 127.792  0.00  0.00    +0.466 C 
ATOM     22  O   LIG A   1     -12.326   8.105 128.574  0.00  0.00    -0.453 OA
ATOM     23  C   LIG A   1     -11.754   7.518 129.659  0.00  0.00    +0.166 A 
ATOM     24  C   LIG A   1     -12.428   6.998 130.742  0.00  0.00    +0.050 A 
ATOM     25  C   LIG A   1     -11.665   6.438 131.772  0.00  0.00    +0.012 A 
ENDBRANCH  16  17
ENDBRANCH   2  15
TORSDOF 7
ENDMDL
MODEL 7
REMARK VINA RESULT:      -7.2      4.344      9.519
REMARK  Name = NuBBE_2091
REMARK  10 active torsions:
REMARK  status: ('A' for Active; 'I' for Inactive)
REMARK    1  A    between atoms: C_2  and  C_12
REMARK    2  A    between atoms: N_3  and  C_4
REMARK    3  A    between atoms: C_4  and  C_5
REMARK    4  A    between atoms: C_5  and  O_6
REMARK    5  A    between atoms: C_5  and  C_10
REMARK    6  A    between atoms: C_5  and  C_11
REMARK    7  A    between atoms: O_6  and  C_7
REMARK    8  A    between atoms: C_7  and  C_8
REMARK    9  A    between atoms: C_13  and  C_14
REMARK   10  A    between atoms: C_15  and  C_16
REMARK                            x       y       z     vdW  Elec       q    Type
REMARK                         _______ _______ _______ _____ _____    ______ ____
ROOT
ATOM      1  C   LIG A   1      -9.211  -3.942 127.302  0.00  0.00    +0.067 C 
ATOM      2  C   LIG A   1      -8.567  -3.617 128.430  0.00  0.00    +0.005 C 
ENDROOT
BRANCH   1   4
ATOM      3  O   LIG A   1      -9.857  -2.252 125.756  0.00  0.00    -0.271 OA
ATOM      4  C   LIG A   1      -9.108  -3.186 126.031  0.00  0.00    +0.237 C 
ATOM      5  N   LIG A   1      -8.083  -3.615 125.236  0.00  0.00    -0.308 N 
ATOM      6  H   LIG A   1      -7.529  -4.417 125.539  0.00  0.00    +0.149 HD
BRANCH   5   7
ATOM      7  C   LIG A   1      -7.755  -2.982 123.968  0.00  0.00    +0.151 C 
BRANCH   7   8
ATOM      8  C   LIG A   1      -6.500  -2.067 124.003  0.00  0.00    +0.123 C 
ATOM      9  C   LIG A   1      -6.099  -1.649 125.427  0.00  0.00    +0.057 C 
ATOM     10  C   LIG A   1      -5.303  -2.838 123.404  0.00  0.00    +0.057 C 
BRANCH   8  11
ATOM     11  O   LIG A   1      -6.676  -0.904 123.135  0.00  0.00    -0.457 OA
BRANCH  11  12
ATOM     12  C   LIG A   1      -7.588   0.054 123.457  0.00  0.00    +0.304 C 
ATOM     13  C   LIG A   1      -6.929   1.379 123.672  0.00  0.00    +0.136 C 
ATOM     14  O   LIG A   1      -8.793  -0.108 123.560  0.00  0.00    -0.251 OA
ENDBRANCH  11  12
ENDBRANCH   8  11
ENDBRANCH   7   8
ENDBRANCH   5   7
ENDBRANCH   1   4
BRANCH   2  15
ATOM     15  C   LIG A   1      -7.789  -2.420 128.638  0.00  0.00    +0.001 C 
ATOM     16  C   LIG A   1      -6.966  -2.175 129.668  0.00  0.00    +0.008 C 
BRANCH  16  17
ATOM     17  C   LIG A   1      -6.612  -3.103 130.747  0.00  0.00    -0.021 A 
ATOM     18  C   LIG A   1      -7.069  -2.893 132.054  0.00  0.00    +0.057 A 
ATOM     19  C   LIG A   1      -6.641  -3.768 133.033  0.00  0.00    +0.167 A 
ATOM     20  O   LIG A   1      -6.973  -3.711 134.351  0.00  0.00    -0.453 OA
ATOM     21  C   LIG A   1      -6.251  -4.851 134.864  0.00  0.00    +0.466 C 
ATOM     22  O   LIG A   1      -5.482  -5.544 133.859  0.00  0.00    -0.453 OA
ATOM     23  C   LIG A   1      -5.791  -4.814 132.754  0.00  0.00    +0.166 A 
ATOM     24  C   LIG A   1      -5.327  -5.051 131.478  0.00  0.00    +0.050 A 
ATOM     25  C   LIG A   1      -5.749  -4.185 130.464  0.00  0.00    +0.012 A 
ENDBRANCH  16  17
ENDBRANCH   2  15
TORSDOF 7
ENDMDL
MODEL 8
REMARK VINA RESULT:      -6.9      6.480      8.102
REMARK  Name = NuBBE_2091
REMARK  10 active torsions:
REMARK  status: ('A' for Active; 'I' for Inactive)
REMARK    1  A    between atoms: C_2  and  C_12
REMARK    2  A    between atoms: N_3  and  C_4
REMARK    3  A    between atoms: C_4  and  C_5
REMARK    4  A    between atoms: C_5  and  O_6
REMARK    5  A    between atoms: C_5  and  C_10
REMARK    6  A    between atoms: C_5  and  C_11
REMARK    7  A    between atoms: O_6  and  C_7
REMARK    8  A    between atoms: C_7  and  C_8
REMARK    9  A    between atoms: C_13  and  C_14
REMARK   10  A    between atoms: C_15  and  C_16
REMARK                            x       y       z     vdW  Elec       q    Type
REMARK                         _______ _______ _______ _____ _____    ______ ____
ROOT
ATOM      1  C   LIG A   1      -2.958   3.477 126.786  0.00  0.00    +0.067 C 
ATOM      2  C   LIG A   1      -3.928   2.558 126.700  0.00  0.00    +0.005 C 
ENDROOT
BRANCH   1   4
ATOM      3  O   LIG A   1      -4.078   5.551 127.111  0.00  0.00    -0.271 OA
ATOM      4  C   LIG A   1      -3.129   4.822 127.385  0.00  0.00    +0.237 C 
ATOM      5  N   LIG A   1      -2.149   5.133 128.286  0.00  0.00    -0.308 N 
ATOM      6  H   LIG A   1      -1.385   4.471 128.429  0.00  0.00    +0.149 HD
BRANCH   5   7
ATOM      7  C   LIG A   1      -2.144   6.376 129.042  0.00  0.00    +0.151 C 
BRANCH   7   8
ATOM      8  C   LIG A   1      -2.412   6.213 130.564  0.00  0.00    +0.123 C 
ATOM      9  C   LIG A   1      -2.894   4.804 130.943  0.00  0.00    +0.057 C 
ATOM     10  C   LIG A   1      -1.095   6.461 131.332  0.00  0.00    +0.057 C 
BRANCH   8  11
ATOM     11  O   LIG A   1      -3.333   7.240 131.046  0.00  0.00    -0.457 OA
BRANCH  11  12
ATOM     12  C   LIG A   1      -4.310   7.718 130.227  0.00  0.00    +0.304 C 
ATOM     13  C   LIG A   1      -4.011   9.115 129.786  0.00  0.00    +0.136 C 
ATOM     14  O   LIG A   1      -5.309   7.113 129.872  0.00  0.00    -0.251 OA
ENDBRANCH  11  12
ENDBRANCH   8  11
ENDBRANCH   7   8
ENDBRANCH   5   7
ENDBRANCH   1   4
BRANCH   2  15
ATOM     15  C   LIG A   1      -5.314   2.765 127.043  0.00  0.00    +0.001 C 
ATOM     16  C   LIG A   1      -6.312   3.045 126.192  0.00  0.00    +0.008 C 
BRANCH  16  17
ATOM     17  C   LIG A   1      -6.223   3.108 124.730  0.00  0.00    -0.021 A 
ATOM     18  C   LIG A   1      -5.535   4.149 124.095  0.00  0.00    +0.057 A 
ATOM     19  C   LIG A   1      -5.551   4.183 122.714  0.00  0.00    +0.167 A 
ATOM     20  O   LIG A   1      -4.949   5.122 121.935  0.00  0.00    -0.453 OA
ATOM     21  C   LIG A   1      -5.297   4.647 120.618  0.00  0.00    +0.466 C 
ATOM     22  O   LIG A   1      -6.120   3.462 120.633  0.00  0.00    -0.453 OA
ATOM     23  C   LIG A   1      -6.218   3.236 121.970  0.00  0.00    +0.166 A 
ATOM     24  C   LIG A   1      -6.900   2.197 122.563  0.00  0.00    +0.050 A 
ATOM     25  C   LIG A   1      -6.896   2.133 123.961  0.00  0.00    +0.012 A 
ENDBRANCH  16  17
ENDBRANCH   2  15
TORSDOF 7
ENDMDL
MODEL 9
REMARK VINA RESULT:      -6.9      2.035      3.298
REMARK  Name = NuBBE_2091
REMARK  10 active torsions:
REMARK  status: ('A' for Active; 'I' for Inactive)
REMARK    1  A    between atoms: C_2  and  C_12
REMARK    2  A    between atoms: N_3  and  C_4
REMARK    3  A    between atoms: C_4  and  C_5
REMARK    4  A    between atoms: C_5  and  O_6
REMARK    5  A    between atoms: C_5  and  C_10
REMARK    6  A    between atoms: C_5  and  C_11
REMARK    7  A    between atoms: O_6  and  C_7
REMARK    8  A    between atoms: C_7  and  C_8
REMARK    9  A    between atoms: C_13  and  C_14
REMARK   10  A    between atoms: C_15  and  C_16
REMARK                            x       y       z     vdW  Elec       q    Type
REMARK                         _______ _______ _______ _____ _____    ______ ____
ROOT
ATOM      1  C   LIG A   1      -8.536   3.503 125.439  0.00  0.00    +0.067 C 
ATOM      2  C   LIG A   1      -7.442   4.188 125.079  0.00  0.00    +0.005 C 
ENDROOT
BRANCH   1   4
ATOM      3  O   LIG A   1      -8.361   1.662 126.936  0.00  0.00    -0.271 OA
ATOM      4  C   LIG A   1      -8.546   2.063 125.790  0.00  0.00    +0.237 C 
ATOM      5  N   LIG A   1      -8.814   1.256 124.720  0.00  0.00    -0.308 N 
ATOM      6  H   LIG A   1      -8.928   1.681 123.800  0.00  0.00    +0.149 HD
BRANCH   5   7
ATOM      7  C   LIG A   1      -8.932  -0.190 124.838  0.00  0.00    +0.151 C 
BRANCH   7   8
ATOM      8  C   LIG A   1      -7.952  -0.998 123.944  0.00  0.00    +0.123 C 
ATOM      9  C   LIG A   1      -8.666  -1.811 122.852  0.00  0.00    +0.057 C 
ATOM     10  C   LIG A   1      -7.003  -0.012 123.226  0.00  0.00    +0.057 C 
BRANCH   8  11
ATOM     11  O   LIG A   1      -7.079  -1.844 124.755  0.00  0.00    -0.457 OA
BRANCH  11  12
ATOM     12  C   LIG A   1      -6.734  -3.085 124.316  0.00  0.00    +0.304 C 
ATOM     13  C   LIG A   1      -5.380  -3.078 123.682  0.00  0.00    +0.136 C 
ATOM     14  O   LIG A   1      -7.411  -4.096 124.414  0.00  0.00    -0.251 OA
ENDBRANCH  11  12
ENDBRANCH   8  11
ENDBRANCH   7   8
ENDBRANCH   5   7
ENDBRANCH   1   4
BRANCH   2  15
ATOM     15  C   LIG A   1      -6.137   3.620 124.842  0.00  0.00    +0.001 C 
ATOM     16  C   LIG A   1      -5.573   3.395 123.646  0.00  0.00    +0.008 C 
BRANCH  16  17
ATOM     17  C   LIG A   1      -6.120   3.762 122.337  0.00  0.00    -0.021 A 
ATOM     18  C   LIG A   1      -7.463   3.516 122.024  0.00  0.00    +0.057 A 
ATOM     19  C   LIG A   1      -7.893   3.823 120.748  0.00  0.00    +0.167 A 
ATOM     20  O   LIG A   1      -9.153   3.641 120.269  0.00  0.00    -0.453 OA
ATOM     21  C   LIG A   1      -9.006   4.134 118.920  0.00  0.00    +0.466 C 
ATOM     22  O   LIG A   1      -7.665   4.568 118.611  0.00  0.00    -0.453 OA
ATOM     23  C   LIG A   1      -7.045   4.352 119.802  0.00  0.00    +0.166 A 
ATOM     24  C   LIG A   1      -5.721   4.612 120.078  0.00  0.00    +0.050 A 
ATOM     25  C   LIG A   1      -5.258   4.316 121.365  0.00  0.00    +0.012 A 
ENDBRANCH  16  17
ENDBRANCH   2  15
TORSDOF 7
ENDMDL
