MODEL 1
REMARK VINA RESULT:     -10.2      0.000      0.000
REMARK  Name = NuBBE_199
REMARK  10 active torsions:
REMARK  status: ('A' for Active; 'I' for Inactive)
REMARK    1  A    between atoms: O_1  and  C_2
REMARK    2  A    between atoms: C_4  and  O_5
REMARK    3  A    between atoms: C_9  and  C_10
REMARK    4  A    between atoms: C_12  and  C_13
REMARK    5  A    between atoms: C_14  and  O_15
REMARK    6  A    between atoms: C_17  and  O_18
REMARK    7  A    between atoms: C_22  and  C_23
REMARK    8  A    between atoms: C_26  and  O_27
REMARK    9  A    between atoms: O_27  and  C_28
REMARK   10  A    between atoms: C_34  and  O_35
REMARK                            x       y       z     vdW  Elec       q    Type
REMARK                         _______ _______ _______ _____ _____    ______ ____
ROOT
ATOM      1  C   LIG A   1      -7.378   3.834 128.306  0.00  0.00    +0.018 A 
ATOM      2  C   LIG A   1      -7.660   2.698 127.498  0.00  0.00    +0.024 A 
ATOM      3  C   LIG A   1      -6.683   2.004 126.723  0.00  0.00    +0.031 A 
ATOM      4  C   LIG A   1      -5.370   2.520 126.857  0.00  0.00    +0.125 A 
ATOM      5  C   LIG A   1      -5.057   3.611 127.665  0.00  0.00    +0.046 A 
ATOM      6  C   LIG A   1      -6.050   4.269 128.367  0.00  0.00    +0.015 A 
ENDROOT
BRANCH   1  13
ATOM      7  C   LIG A   1     -11.710   8.028 128.884  0.00  0.00    +0.124 A 
ATOM      8  C   LIG A   1     -12.184   7.732 130.158  0.00  0.00    +0.091 A 
ATOM      9  C   LIG A   1     -11.584   6.699 130.884  0.00  0.00    +0.135 A 
ATOM     10  C   LIG A   1     -10.520   5.974 130.342  0.00  0.00    +0.105 A 
ATOM     11  C   LIG A   1      -9.849   4.879 131.061  0.00  0.00    +0.197 A 
ATOM     12  C   LIG A   1      -8.789   4.172 130.320  0.00  0.00    +0.098 A 
ATOM     13  C   LIG A   1      -8.438   4.545 129.082  0.00  0.00    +0.139 A 
ATOM     14  O   LIG A   1      -9.028   5.618 128.428  0.00  0.00    -0.454 OA
ATOM     15  O   LIG A   1     -10.107   4.528 132.194  0.00  0.00    -0.287 OA
ATOM     16  C   LIG A   1     -10.058   6.286 129.053  0.00  0.00    +0.146 A 
ATOM     17  C   LIG A   1     -10.655   7.315 128.325  0.00  0.00    +0.092 A 
BRANCH   7  18
ATOM     18  O   LIG A   1     -12.270   9.019 128.133  0.00  0.00    -0.506 OA
ATOM     19  H   LIG A   1     -13.214   9.091 128.345  0.00  0.00    +0.292 HD
ENDBRANCH   7  18
BRANCH   9  20
ATOM     20  O   LIG A   1     -12.064   6.403 132.128  0.00  0.00    -0.506 OA
ATOM     21  H   LIG A   1     -11.503   6.784 132.819  0.00  0.00    +0.292 HD
ENDBRANCH   9  20
ENDBRANCH   1  13
BRANCH   3  22
ATOM     22  C   LIG A   1      -7.071   0.821 125.830  0.00  0.00    +0.070 A 
ATOM     23  C   LIG A   1      -7.105   0.909 124.412  0.00  0.00    +0.132 A 
ATOM     24  C   LIG A   1      -7.448  -0.162 123.576  0.00  0.00    +0.092 A 
ATOM     25  C   LIG A   1      -7.778  -1.389 124.122  0.00  0.00    +0.135 A 
ATOM     26  C   LIG A   1      -7.779  -1.552 125.508  0.00  0.00    +0.106 A 
ATOM     27  C   LIG A   1      -7.434  -0.467 126.350  0.00  0.00    +0.154 A 
ATOM     28  O   LIG A   1      -7.471  -0.625 127.724  0.00  0.00    -0.454 OA
ATOM     29  C   LIG A   1      -7.769  -1.859 128.285  0.00  0.00    +0.139 A 
ATOM     30  C   LIG A   1      -8.105  -2.938 127.575  0.00  0.00    +0.098 A 
ATOM     31  C   LIG A   1      -8.142  -2.857 126.112  0.00  0.00    +0.197 A 
ATOM     32  O   LIG A   1      -8.463  -3.858 125.486  0.00  0.00    -0.287 OA
BRANCH  29  33
ATOM     33  C   LIG A   1      -7.742  -1.886 129.766  0.00  0.00    +0.018 A 
ATOM     34  C   LIG A   1      -8.123  -0.739 130.473  0.00  0.00    +0.015 A 
ATOM     35  C   LIG A   1      -8.110  -0.712 131.870  0.00  0.00    +0.046 A 
ATOM     36  C   LIG A   1      -7.712  -1.831 132.596  0.00  0.00    +0.120 A 
ATOM     37  C   LIG A   1      -7.330  -2.983 131.908  0.00  0.00    +0.046 A 
ATOM     38  C   LIG A   1      -7.338  -3.009 130.507  0.00  0.00    +0.015 A 
BRANCH  36  39
ATOM     39  O   LIG A   1      -7.655  -1.911 133.961  0.00  0.00    -0.495 OA
ATOM     40  C   LIG A   1      -8.051  -3.158 134.525  0.00  0.00    +0.277 C 
ENDBRANCH  36  39
ENDBRANCH  29  33
BRANCH  23  41
ATOM     41  O   LIG A   1      -6.803   2.085 123.762  0.00  0.00    -0.506 OA
ATOM     42  H   LIG A   1      -6.765   2.812 124.415  0.00  0.00    +0.292 HD
ENDBRANCH  23  41
BRANCH  25  43
ATOM     43  O   LIG A   1      -8.102  -2.412 123.281  0.00  0.00    -0.506 OA
ATOM     44  H   LIG A   1      -8.371  -2.086 122.409  0.00  0.00    +0.292 HD
ENDBRANCH  25  43
ENDBRANCH   3  22
BRANCH   4  45
ATOM     45  O   LIG A   1      -4.266   2.030 126.216  0.00  0.00    -0.506 OA
ATOM     46  H   LIG A   1      -4.605   1.327 125.634  0.00  0.00    +0.292 HD
ENDBRANCH   4  45
TORSDOF 9
ENDMDL
MODEL 2
REMARK VINA RESULT:     -10.0      1.938      2.303
REMARK  Name = NuBBE_199
REMARK  10 active torsions:
REMARK  status: ('A' for Active; 'I' for Inactive)
REMARK    1  A    between atoms: O_1  and  C_2
REMARK    2  A    between atoms: C_4  and  O_5
REMARK    3  A    between atoms: C_9  and  C_10
REMARK    4  A    between atoms: C_12  and  C_13
REMARK    5  A    between atoms: C_14  and  O_15
REMARK    6  A    between atoms: C_17  and  O_18
REMARK    7  A    between atoms: C_22  and  C_23
REMARK    8  A    between atoms: C_26  and  O_27
REMARK    9  A    between atoms: O_27  and  C_28
REMARK   10  A    between atoms: C_34  and  O_35
REMARK                            x       y       z     vdW  Elec       q    Type
REMARK                         _______ _______ _______ _____ _____    ______ ____
ROOT
ATOM      1  C   LIG A   1      -7.212   3.883 128.236  0.00  0.00    +0.018 A 
ATOM      2  C   LIG A   1      -7.875   3.076 127.270  0.00  0.00    +0.024 A 
ATOM      3  C   LIG A   1      -7.217   2.428 126.182  0.00  0.00    +0.031 A 
ATOM      4  C   LIG A   1      -5.813   2.618 126.162  0.00  0.00    +0.125 A 
ATOM      5  C   LIG A   1      -5.132   3.376 127.112  0.00  0.00    +0.046 A 
ATOM      6  C   LIG A   1      -5.824   4.013 128.125  0.00  0.00    +0.015 A 
ENDROOT
BRANCH   1  13
ATOM      7  C   LIG A   1     -12.080   6.635 130.565  0.00  0.00    +0.124 A 
ATOM      8  C   LIG A   1     -11.665   6.819 131.879  0.00  0.00    +0.091 A 
ATOM      9  C   LIG A   1     -10.383   6.404 132.253  0.00  0.00    +0.135 A 
ATOM     10  C   LIG A   1      -9.527   5.814 131.320  0.00  0.00    +0.105 A 
ATOM     11  C   LIG A   1      -8.168   5.361 131.656  0.00  0.00    +0.197 A 
ATOM     12  C   LIG A   1      -7.421   4.698 130.571  0.00  0.00    +0.098 A 
ATOM     13  C   LIG A   1      -7.944   4.565 129.345  0.00  0.00    +0.139 A 
ATOM     14  O   LIG A   1      -9.202   5.049 129.012  0.00  0.00    -0.454 OA
ATOM     15  O   LIG A   1      -7.637   5.490 132.740  0.00  0.00    -0.287 OA
ATOM     16  C   LIG A   1      -9.965   5.634 129.998  0.00  0.00    +0.146 A 
ATOM     17  C   LIG A   1     -11.244   6.047 129.621  0.00  0.00    +0.092 A 
BRANCH   7  18
ATOM     18  O   LIG A   1     -13.324   7.014 130.156  0.00  0.00    -0.506 OA
ATOM     19  H   LIG A   1     -13.254   7.805 129.597  0.00  0.00    +0.292 HD
ENDBRANCH   7  18
BRANCH   9  20
ATOM     20  O   LIG A   1      -9.988   6.572 133.549  0.00  0.00    -0.506 OA
ATOM     21  H   LIG A   1      -9.843   7.509 133.751  0.00  0.00    +0.292 HD
ENDBRANCH   9  20
ENDBRANCH   1  13
BRANCH   3  22
ATOM     22  C   LIG A   1      -8.004   1.620 125.145  0.00  0.00    +0.070 A 
ATOM     23  C   LIG A   1      -8.616   2.218 124.010  0.00  0.00    +0.132 A 
ATOM     24  C   LIG A   1      -9.333   1.497 123.044  0.00  0.00    +0.092 A 
ATOM     25  C   LIG A   1      -9.477   0.128 123.169  0.00  0.00    +0.135 A 
ATOM     26  C   LIG A   1      -8.915  -0.531 124.263  0.00  0.00    +0.106 A 
ATOM     27  C   LIG A   1      -8.193   0.200 125.237  0.00  0.00    +0.154 A 
ATOM     28  O   LIG A   1      -7.669  -0.454 126.338  0.00  0.00    -0.454 OA
ATOM     29  C   LIG A   1      -7.777  -1.833 126.459  0.00  0.00    +0.139 A 
ATOM     30  C   LIG A   1      -8.436  -2.606 125.593  0.00  0.00    +0.098 A 
ATOM     31  C   LIG A   1      -9.069  -1.999 124.419  0.00  0.00    +0.197 A 
ATOM     32  O   LIG A   1      -9.675  -2.729 123.647  0.00  0.00    -0.287 OA
BRANCH  29  33
ATOM     33  C   LIG A   1      -7.144  -2.398 127.672  0.00  0.00    +0.018 A 
ATOM     34  C   LIG A   1      -5.759  -2.273 127.837  0.00  0.00    +0.015 A 
ATOM     35  C   LIG A   1      -5.113  -2.793 128.961  0.00  0.00    +0.046 A 
ATOM     36  C   LIG A   1      -5.837  -3.455 129.950  0.00  0.00    +0.120 A 
ATOM     37  C   LIG A   1      -7.217  -3.589 129.803  0.00  0.00    +0.046 A 
ATOM     38  C   LIG A   1      -7.865  -3.072 128.673  0.00  0.00    +0.015 A 
BRANCH  36  39
ATOM     39  O   LIG A   1      -5.306  -4.008 131.084  0.00  0.00    -0.495 OA
ATOM     40  C   LIG A   1      -4.125  -3.385 131.581  0.00  0.00    +0.277 C 
ENDBRANCH  36  39
ENDBRANCH  29  33
BRANCH  23  41
ATOM     41  O   LIG A   1      -8.543   3.575 123.792  0.00  0.00    -0.506 OA
ATOM     42  H   LIG A   1      -7.641   3.805 123.494  0.00  0.00    +0.292 HD
ENDBRANCH  23  41
BRANCH  25  43
ATOM     43  O   LIG A   1     -10.175  -0.545 122.210  0.00  0.00    -0.506 OA
ATOM     44  H   LIG A   1      -9.986  -0.201 121.324  0.00  0.00    +0.292 HD
ENDBRANCH  25  43
ENDBRANCH   3  22
BRANCH   4  45
ATOM     45  O   LIG A   1      -4.965   2.102 125.222  0.00  0.00    -0.506 OA
ATOM     46  H   LIG A   1      -5.321   1.218 125.021  0.00  0.00    +0.292 HD
ENDBRANCH   4  45
TORSDOF 9
ENDMDL
MODEL 3
REMARK VINA RESULT:      -9.8      2.148      5.292
REMARK  Name = NuBBE_199
REMARK  10 active torsions:
REMARK  status: ('A' for Active; 'I' for Inactive)
REMARK    1  A    between atoms: O_1  and  C_2
REMARK    2  A    between atoms: C_4  and  O_5
REMARK    3  A    between atoms: C_9  and  C_10
REMARK    4  A    between atoms: C_12  and  C_13
REMARK    5  A    between atoms: C_14  and  O_15
REMARK    6  A    between atoms: C_17  and  O_18
REMARK    7  A    between atoms: C_22  and  C_23
REMARK    8  A    between atoms: C_26  and  O_27
REMARK    9  A    between atoms: O_27  and  C_28
REMARK   10  A    between atoms: C_34  and  O_35
REMARK                            x       y       z     vdW  Elec       q    Type
REMARK                         _______ _______ _______ _____ _____    ______ ____
ROOT
ATOM      1  C   LIG A   1      -8.140   0.262 131.471  0.00  0.00    +0.018 A 
ATOM      2  C   LIG A   1      -8.170  -0.264 130.151  0.00  0.00    +0.024 A 
ATOM      3  C   LIG A   1      -7.785  -1.596 129.811  0.00  0.00    +0.031 A 
ATOM      4  C   LIG A   1      -7.402  -2.386 130.923  0.00  0.00    +0.125 A 
ATOM      5  C   LIG A   1      -7.392  -1.909 132.232  0.00  0.00    +0.046 A 
ATOM      6  C   LIG A   1      -7.741  -0.598 132.500  0.00  0.00    +0.015 A 
ENDROOT
BRANCH   1  13
ATOM      7  C   LIG A   1     -11.320   5.309 130.420  0.00  0.00    +0.124 A 
ATOM      8  C   LIG A   1     -10.921   6.092 131.499  0.00  0.00    +0.091 A 
ATOM      9  C   LIG A   1      -9.984   5.580 132.402  0.00  0.00    +0.135 A 
ATOM     10  C   LIG A   1      -9.452   4.301 132.224  0.00  0.00    +0.105 A 
ATOM     11  C   LIG A   1      -8.461   3.712 133.140  0.00  0.00    +0.197 A 
ATOM     12  C   LIG A   1      -8.052   2.326 132.846  0.00  0.00    +0.098 A 
ATOM     13  C   LIG A   1      -8.528   1.671 131.779  0.00  0.00    +0.139 A 
ATOM     14  O   LIG A   1      -9.414   2.249 130.880  0.00  0.00    -0.454 OA
ATOM     15  O   LIG A   1      -7.975   4.277 134.098  0.00  0.00    -0.287 OA
ATOM     16  C   LIG A   1      -9.868   3.525 131.130  0.00  0.00    +0.146 A 
ATOM     17  C   LIG A   1     -10.804   4.032 130.228  0.00  0.00    +0.092 A 
BRANCH   7  18
ATOM     18  O   LIG A   1     -12.238   5.761 129.520  0.00  0.00    -0.506 OA
ATOM     19  H   LIG A   1     -13.100   5.855 129.956  0.00  0.00    +0.292 HD
ENDBRANCH   7  18
BRANCH   9  20
ATOM     20  O   LIG A   1      -9.610   6.346 133.468  0.00  0.00    -0.506 OA
ATOM     21  H   LIG A   1     -10.330   6.426 134.111  0.00  0.00    +0.292 HD
ENDBRANCH   9  20
ENDBRANCH   1  13
BRANCH   3  22
ATOM     22  C   LIG A   1      -7.789  -2.077 128.356  0.00  0.00    +0.070 A 
ATOM     23  C   LIG A   1      -8.535  -3.207 127.923  0.00  0.00    +0.132 A 
ATOM     24  C   LIG A   1      -8.560  -3.659 126.597  0.00  0.00    +0.092 A 
ATOM     25  C   LIG A   1      -7.830  -2.998 125.626  0.00  0.00    +0.135 A 
ATOM     26  C   LIG A   1      -7.063  -1.886 125.974  0.00  0.00    +0.106 A 
ATOM     27  C   LIG A   1      -7.038  -1.433 127.316  0.00  0.00    +0.154 A 
ATOM     28  O   LIG A   1      -6.247  -0.351 127.661  0.00  0.00    -0.454 OA
ATOM     29  C   LIG A   1      -5.536   0.343 126.692  0.00  0.00    +0.139 A 
ATOM     30  C   LIG A   1      -5.498  -0.008 125.404  0.00  0.00    +0.098 A 
ATOM     31  C   LIG A   1      -6.264  -1.171 124.949  0.00  0.00    +0.197 A 
ATOM     32  O   LIG A   1      -6.204  -1.475 123.765  0.00  0.00    -0.287 OA
BRANCH  29  33
ATOM     33  C   LIG A   1      -4.758   1.494 127.203  0.00  0.00    +0.018 A 
ATOM     34  C   LIG A   1      -4.728   1.736 128.582  0.00  0.00    +0.015 A 
ATOM     35  C   LIG A   1      -4.014   2.812 129.113  0.00  0.00    +0.046 A 
ATOM     36  C   LIG A   1      -3.312   3.677 128.278  0.00  0.00    +0.120 A 
ATOM     37  C   LIG A   1      -3.331   3.452 126.902  0.00  0.00    +0.046 A 
ATOM     38  C   LIG A   1      -4.051   2.376 126.367  0.00  0.00    +0.015 A 
BRANCH  36  39
ATOM     39  O   LIG A   1      -2.588   4.763 128.691  0.00  0.00    -0.495 OA
ATOM     40  C   LIG A   1      -3.041   6.026 128.214  0.00  0.00    +0.277 C 
ENDBRANCH  36  39
ENDBRANCH  29  33
BRANCH  23  41
ATOM     41  O   LIG A   1      -9.289  -3.945 128.808  0.00  0.00    -0.506 OA
ATOM     42  H   LIG A   1     -10.064  -4.313 128.340  0.00  0.00    +0.292 HD
ENDBRANCH  23  41
BRANCH  25  43
ATOM     43  O   LIG A   1      -7.880  -3.460 124.344  0.00  0.00    -0.506 OA
ATOM     44  H   LIG A   1      -8.788  -3.666 124.075  0.00  0.00    +0.292 HD
ENDBRANCH  25  43
ENDBRANCH   3  22
BRANCH   4  45
ATOM     45  O   LIG A   1      -6.991  -3.688 130.855  0.00  0.00    -0.506 OA
ATOM     46  H   LIG A   1      -6.030  -3.640 130.707  0.00  0.00    +0.292 HD
ENDBRANCH   4  45
TORSDOF 9
ENDMDL
MODEL 4
REMARK VINA RESULT:      -9.7      2.496      8.859
REMARK  Name = NuBBE_199
REMARK  10 active torsions:
REMARK  status: ('A' for Active; 'I' for Inactive)
REMARK    1  A    between atoms: O_1  and  C_2
REMARK    2  A    between atoms: C_4  and  O_5
REMARK    3  A    between atoms: C_9  and  C_10
REMARK    4  A    between atoms: C_12  and  C_13
REMARK    5  A    between atoms: C_14  and  O_15
REMARK    6  A    between atoms: C_17  and  O_18
REMARK    7  A    between atoms: C_22  and  C_23
REMARK    8  A    between atoms: C_26  and  O_27
REMARK    9  A    between atoms: O_27  and  C_28
REMARK   10  A    between atoms: C_34  and  O_35
REMARK                            x       y       z     vdW  Elec       q    Type
REMARK                         _______ _______ _______ _____ _____    ______ ____
ROOT
ATOM      1  C   LIG A   1      -6.781   2.434 126.039  0.00  0.00    +0.018 A 
ATOM      2  C   LIG A   1      -6.212   2.850 127.274  0.00  0.00    +0.024 A 
ATOM      3  C   LIG A   1      -5.559   4.103 127.473  0.00  0.00    +0.031 A 
ATOM      4  C   LIG A   1      -5.558   4.939 126.330  0.00  0.00    +0.125 A 
ATOM      5  C   LIG A   1      -6.134   4.574 125.115  0.00  0.00    +0.046 A 
ATOM      6  C   LIG A   1      -6.723   3.331 124.967  0.00  0.00    +0.015 A 
ENDROOT
BRANCH   1  13
ATOM      7  C   LIG A   1      -8.256  -3.113 127.975  0.00  0.00    +0.124 A 
ATOM      8  C   LIG A   1      -9.056  -3.546 126.923  0.00  0.00    +0.091 A 
ATOM      9  C   LIG A   1      -9.251  -2.704 125.824  0.00  0.00    +0.135 A 
ATOM     10  C   LIG A   1      -8.648  -1.444 125.779  0.00  0.00    +0.105 A 
ATOM     11  C   LIG A   1      -8.815  -0.518 124.647  0.00  0.00    +0.197 A 
ATOM     12  C   LIG A   1      -8.166   0.798 124.788  0.00  0.00    +0.098 A 
ATOM     13  C   LIG A   1      -7.433   1.101 125.868  0.00  0.00    +0.139 A 
ATOM     14  O   LIG A   1      -7.224   0.205 126.906  0.00  0.00    -0.454 OA
ATOM     15  O   LIG A   1      -9.438  -0.760 123.634  0.00  0.00    -0.287 OA
ATOM     16  C   LIG A   1      -7.846  -1.024 126.851  0.00  0.00    +0.146 A 
ATOM     17  C   LIG A   1      -7.650  -1.861 127.950  0.00  0.00    +0.092 A 
BRANCH   7  18
ATOM     18  O   LIG A   1      -8.046  -3.894 129.072  0.00  0.00    -0.506 OA
ATOM     19  H   LIG A   1      -7.917  -3.329 129.851  0.00  0.00    +0.292 HD
ENDBRANCH   7  18
BRANCH   9  20
ATOM     20  O   LIG A   1     -10.051  -3.129 124.802  0.00  0.00    -0.506 OA
ATOM     21  H   LIG A   1      -9.620  -2.998 123.944  0.00  0.00    +0.292 HD
ENDBRANCH   9  20
ENDBRANCH   1  13
BRANCH   3  22
ATOM     22  C   LIG A   1      -4.919   4.460 128.818  0.00  0.00    +0.070 A 
ATOM     23  C   LIG A   1      -3.548   4.217 129.104  0.00  0.00    +0.132 A 
ATOM     24  C   LIG A   1      -2.939   4.543 130.324  0.00  0.00    +0.092 A 
ATOM     25  C   LIG A   1      -3.680   5.135 131.330  0.00  0.00    +0.135 A 
ATOM     26  C   LIG A   1      -5.035   5.397 131.130  0.00  0.00    +0.106 A 
ATOM     27  C   LIG A   1      -5.648   5.063 129.897  0.00  0.00    +0.154 A 
ATOM     28  O   LIG A   1      -7.000   5.292 129.719  0.00  0.00    -0.454 OA
ATOM     29  C   LIG A   1      -7.749   5.916 130.707  0.00  0.00    +0.139 A 
ATOM     30  C   LIG A   1      -7.261   6.267 131.899  0.00  0.00    +0.098 A 
ATOM     31  C   LIG A   1      -5.849   6.020 132.203  0.00  0.00    +0.197 A 
ATOM     32  O   LIG A   1      -5.430   6.343 133.306  0.00  0.00    -0.287 OA
BRANCH  29  33
ATOM     33  C   LIG A   1      -9.175   6.121 130.364  0.00  0.00    +0.018 A 
ATOM     34  C   LIG A   1      -9.590   7.379 129.910  0.00  0.00    +0.015 A 
ATOM     35  C   LIG A   1     -10.924   7.626 129.579  0.00  0.00    +0.046 A 
ATOM     36  C   LIG A   1     -11.880   6.620 129.698  0.00  0.00    +0.120 A 
ATOM     37  C   LIG A   1     -11.485   5.361 130.149  0.00  0.00    +0.046 A 
ATOM     38  C   LIG A   1     -10.147   5.114 130.485  0.00  0.00    +0.015 A 
BRANCH  36  39
ATOM     39  O   LIG A   1     -13.211   6.754 129.409  0.00  0.00    -0.495 OA
ATOM     40  C   LIG A   1     -13.515   7.456 128.207  0.00  0.00    +0.277 C 
ENDBRANCH  36  39
ENDBRANCH  29  33
BRANCH  23  41
ATOM     41  O   LIG A   1      -2.720   3.623 128.178  0.00  0.00    -0.506 OA
ATOM     42  H   LIG A   1      -3.028   3.851 127.279  0.00  0.00    +0.292 HD
ENDBRANCH  23  41
BRANCH  25  43
ATOM     43  O   LIG A   1      -3.057   5.446 132.503  0.00  0.00    -0.506 OA
ATOM     44  H   LIG A   1      -2.368   4.800 132.722  0.00  0.00    +0.292 HD
ENDBRANCH  25  43
ENDBRANCH   3  22
BRANCH   4  45
ATOM     45  O   LIG A   1      -4.994   6.183 126.269  0.00  0.00    -0.506 OA
ATOM     46  H   LIG A   1      -5.532   6.672 125.621  0.00  0.00    +0.292 HD
ENDBRANCH   4  45
TORSDOF 9
ENDMDL
MODEL 5
REMARK VINA RESULT:      -9.6      2.619      7.811
REMARK  Name = NuBBE_199
REMARK  10 active torsions:
REMARK  status: ('A' for Active; 'I' for Inactive)
REMARK    1  A    between atoms: O_1  and  C_2
REMARK    2  A    between atoms: C_4  and  O_5
REMARK    3  A    between atoms: C_9  and  C_10
REMARK    4  A    between atoms: C_12  and  C_13
REMARK    5  A    between atoms: C_14  and  O_15
REMARK    6  A    between atoms: C_17  and  O_18
REMARK    7  A    between atoms: C_22  and  C_23
REMARK    8  A    between atoms: C_26  and  O_27
REMARK    9  A    between atoms: O_27  and  C_28
REMARK   10  A    between atoms: C_34  and  O_35
REMARK                            x       y       z     vdW  Elec       q    Type
REMARK                         _______ _______ _______ _____ _____    ______ ____
ROOT
ATOM      1  C   LIG A   1      -7.737  -3.065 128.715  0.00  0.00    +0.018 A 
ATOM      2  C   LIG A   1      -7.482  -1.984 127.828  0.00  0.00    +0.024 A 
ATOM      3  C   LIG A   1      -8.140  -1.803 126.576  0.00  0.00    +0.031 A 
ATOM      4  C   LIG A   1      -9.123  -2.785 126.296  0.00  0.00    +0.125 A 
ATOM      5  C   LIG A   1      -9.418  -3.838 127.159  0.00  0.00    +0.046 A 
ATOM      6  C   LIG A   1      -8.723  -3.985 128.345  0.00  0.00    +0.015 A 
ENDROOT
BRANCH   1  13
ATOM      7  C   LIG A   1      -7.446  -3.045 134.766  0.00  0.00    +0.124 A 
ATOM      8  C   LIG A   1      -6.138  -3.475 134.960  0.00  0.00    +0.091 A 
ATOM      9  C   LIG A   1      -5.332  -3.731 133.846  0.00  0.00    +0.135 A 
ATOM     10  C   LIG A   1      -5.832  -3.553 132.553  0.00  0.00    +0.105 A 
ATOM     11  C   LIG A   1      -5.029  -3.803 131.345  0.00  0.00    +0.197 A 
ATOM     12  C   LIG A   1      -5.728  -3.632 130.058  0.00  0.00    +0.098 A 
ATOM     13  C   LIG A   1      -7.004  -3.229 130.007  0.00  0.00    +0.139 A 
ATOM     14  O   LIG A   1      -7.742  -2.933 131.145  0.00  0.00    -0.454 OA
ATOM     15  O   LIG A   1      -3.861  -4.135 131.340  0.00  0.00    -0.287 OA
ATOM     16  C   LIG A   1      -7.155  -3.120 132.378  0.00  0.00    +0.146 A 
ATOM     17  C   LIG A   1      -7.963  -2.866 133.487  0.00  0.00    +0.092 A 
BRANCH   7  18
ATOM     18  O   LIG A   1      -8.273  -2.794 135.821  0.00  0.00    -0.506 OA
ATOM     19  H   LIG A   1      -7.980  -1.989 136.276  0.00  0.00    +0.292 HD
ENDBRANCH   7  18
BRANCH   9  20
ATOM     20  O   LIG A   1      -4.054  -4.169 134.044  0.00  0.00    -0.506 OA
ATOM     21  H   LIG A   1      -3.981  -4.669 134.870  0.00  0.00    +0.292 HD
ENDBRANCH   9  20
ENDBRANCH   1  13
BRANCH   3  22
ATOM     22  C   LIG A   1      -7.773  -0.644 125.644  0.00  0.00    +0.070 A 
ATOM     23  C   LIG A   1      -7.406  -0.838 124.285  0.00  0.00    +0.132 A 
ATOM     24  C   LIG A   1      -7.075   0.208 123.413  0.00  0.00    +0.092 A 
ATOM     25  C   LIG A   1      -7.094   1.515 123.862  0.00  0.00    +0.135 A 
ATOM     26  C   LIG A   1      -7.434   1.787 125.187  0.00  0.00    +0.106 A 
ATOM     27  C   LIG A   1      -7.766   0.728 126.066  0.00  0.00    +0.154 A 
ATOM     28  O   LIG A   1      -8.067   1.001 127.389  0.00  0.00    -0.454 OA
ATOM     29  C   LIG A   1      -8.122   2.311 127.845  0.00  0.00    +0.139 A 
ATOM     30  C   LIG A   1      -7.827   3.374 127.092  0.00  0.00    +0.098 A 
ATOM     31  C   LIG A   1      -7.448   3.183 125.690  0.00  0.00    +0.197 A 
ATOM     32  O   LIG A   1      -7.174   4.173 125.026  0.00  0.00    -0.287 OA
BRANCH  29  33
ATOM     33  C   LIG A   1      -8.486   2.452 129.273  0.00  0.00    +0.018 A 
ATOM     34  C   LIG A   1      -8.423   1.328 130.105  0.00  0.00    +0.015 A 
ATOM     35  C   LIG A   1      -8.761   1.407 131.458  0.00  0.00    +0.046 A 
ATOM     36  C   LIG A   1      -9.173   2.615 132.014  0.00  0.00    +0.120 A 
ATOM     37  C   LIG A   1      -9.242   3.746 131.201  0.00  0.00    +0.046 A 
ATOM     38  C   LIG A   1      -8.908   3.666 129.843  0.00  0.00    +0.015 A 
BRANCH  36  39
ATOM     39  O   LIG A   1      -9.533   2.803 133.322  0.00  0.00    -0.495 OA
ATOM     40  C   LIG A   1      -8.942   3.925 133.970  0.00  0.00    +0.277 C 
ENDBRANCH  36  39
ENDBRANCH  29  33
BRANCH  23  41
ATOM     41  O   LIG A   1      -7.345  -2.099 123.735  0.00  0.00    -0.506 OA
ATOM     42  H   LIG A   1      -8.157  -2.264 123.218  0.00  0.00    +0.292 HD
ENDBRANCH  23  41
BRANCH  25  43
ATOM     43  O   LIG A   1      -6.772   2.511 122.987  0.00  0.00    -0.506 OA
ATOM     44  H   LIG A   1      -6.382   2.158 122.173  0.00  0.00    +0.292 HD
ENDBRANCH  25  43
ENDBRANCH   3  22
BRANCH   4  45
ATOM     45  O   LIG A   1      -9.886  -2.830 125.162  0.00  0.00    -0.506 OA
ATOM     46  H   LIG A   1     -10.583  -3.482 125.353  0.00  0.00    +0.292 HD
ENDBRANCH   4  45
TORSDOF 9
ENDMDL
MODEL 6
REMARK VINA RESULT:      -9.6      2.820      7.016
REMARK  Name = NuBBE_199
REMARK  10 active torsions:
REMARK  status: ('A' for Active; 'I' for Inactive)
REMARK    1  A    between atoms: O_1  and  C_2
REMARK    2  A    between atoms: C_4  and  O_5
REMARK    3  A    between atoms: C_9  and  C_10
REMARK    4  A    between atoms: C_12  and  C_13
REMARK    5  A    between atoms: C_14  and  O_15
REMARK    6  A    between atoms: C_17  and  O_18
REMARK    7  A    between atoms: C_22  and  C_23
REMARK    8  A    between atoms: C_26  and  O_27
REMARK    9  A    between atoms: O_27  and  C_28
REMARK   10  A    between atoms: C_34  and  O_35
REMARK                            x       y       z     vdW  Elec       q    Type
REMARK                         _______ _______ _______ _____ _____    ______ ____
ROOT
ATOM      1  C   LIG A   1      -8.463   2.561 129.194  0.00  0.00    +0.018 A 
ATOM      2  C   LIG A   1      -7.846   1.515 129.933  0.00  0.00    +0.024 A 
ATOM      3  C   LIG A   1      -7.993   1.336 131.341  0.00  0.00    +0.031 A 
ATOM      4  C   LIG A   1      -8.858   2.277 131.954  0.00  0.00    +0.125 A 
ATOM      5  C   LIG A   1      -9.502   3.293 131.251  0.00  0.00    +0.046 A 
ATOM      6  C   LIG A   1      -9.294   3.442 129.892  0.00  0.00    +0.015 A 
ENDROOT
BRANCH   1  13
ATOM      7  C   LIG A   1      -9.819   1.353 123.415  0.00  0.00    +0.124 A 
ATOM      8  C   LIG A   1      -8.957   2.227 122.762  0.00  0.00    +0.091 A 
ATOM      9  C   LIG A   1      -8.093   3.024 123.519  0.00  0.00    +0.135 A 
ATOM     10  C   LIG A   1      -8.091   2.943 124.914  0.00  0.00    +0.105 A 
ATOM     11  C   LIG A   1      -7.202   3.754 125.761  0.00  0.00    +0.197 A 
ATOM     12  C   LIG A   1      -7.375   3.595 127.217  0.00  0.00    +0.098 A 
ATOM     13  C   LIG A   1      -8.260   2.726 127.723  0.00  0.00    +0.139 A 
ATOM     14  O   LIG A   1      -9.054   1.916 126.923  0.00  0.00    -0.454 OA
ATOM     15  O   LIG A   1      -6.362   4.527 125.350  0.00  0.00    -0.287 OA
ATOM     16  C   LIG A   1      -8.970   2.055 125.555  0.00  0.00    +0.146 A 
ATOM     17  C   LIG A   1      -9.835   1.259 124.803  0.00  0.00    +0.092 A 
BRANCH   7  18
ATOM     18  O   LIG A   1     -10.687   0.564 122.720  0.00  0.00    -0.506 OA
ATOM     19  H   LIG A   1     -10.241  -0.258 122.462  0.00  0.00    +0.292 HD
ENDBRANCH   7  18
BRANCH   9  20
ATOM     20  O   LIG A   1      -7.261   3.893 122.873  0.00  0.00    -0.506 OA
ATOM     21  H   LIG A   1      -6.485   3.434 122.519  0.00  0.00    +0.292 HD
ENDBRANCH   9  20
ENDBRANCH   1  13
BRANCH   3  22
ATOM     22  C   LIG A   1      -7.251   0.219 132.082  0.00  0.00    +0.070 A 
ATOM     23  C   LIG A   1      -6.679   0.401 133.371  0.00  0.00    +0.132 A 
ATOM     24  C   LIG A   1      -6.004  -0.608 134.070  0.00  0.00    +0.092 A 
ATOM     25  C   LIG A   1      -5.865  -1.865 133.510  0.00  0.00    +0.135 A 
ATOM     26  C   LIG A   1      -6.391  -2.120 132.243  0.00  0.00    +0.106 A 
ATOM     27  C   LIG A   1      -7.070  -1.096 131.538  0.00  0.00    +0.154 A 
ATOM     28  O   LIG A   1      -7.557  -1.345 130.267  0.00  0.00    -0.454 OA
ATOM     29  C   LIG A   1      -7.455  -2.611 129.706  0.00  0.00    +0.139 A 
ATOM     30  C   LIG A   1      -6.834  -3.636 130.292  0.00  0.00    +0.098 A 
ATOM     31  C   LIG A   1      -6.241  -3.458 131.620  0.00  0.00    +0.197 A 
ATOM     32  O   LIG A   1      -5.670  -4.412 132.131  0.00  0.00    -0.287 OA
BRANCH  29  33
ATOM     33  C   LIG A   1      -8.046  -2.736 128.354  0.00  0.00    +0.018 A 
ATOM     34  C   LIG A   1      -7.853  -1.703 127.429  0.00  0.00    +0.015 A 
ATOM     35  C   LIG A   1      -8.395  -1.770 126.143  0.00  0.00    +0.046 A 
ATOM     36  C   LIG A   1      -9.147  -2.874 125.750  0.00  0.00    +0.120 A 
ATOM     37  C   LIG A   1      -9.350  -3.913 126.658  0.00  0.00    +0.046 A 
ATOM     38  C   LIG A   1      -8.811  -3.844 127.949  0.00  0.00    +0.015 A 
BRANCH  36  39
ATOM     39  O   LIG A   1      -9.728  -3.040 124.521  0.00  0.00    -0.495 OA
ATOM     40  C   LIG A   1      -8.968  -2.575 123.411  0.00  0.00    +0.277 C 
ENDBRANCH  36  39
ENDBRANCH  29  33
BRANCH  23  41
ATOM     41  O   LIG A   1      -6.749   1.614 134.018  0.00  0.00    -0.506 OA
ATOM     42  H   LIG A   1      -5.934   1.748 134.540  0.00  0.00    +0.292 HD
ENDBRANCH  23  41
BRANCH  25  43
ATOM     43  O   LIG A   1      -5.208  -2.827 134.218  0.00  0.00    -0.506 OA
ATOM     44  H   LIG A   1      -5.589  -2.941 135.103  0.00  0.00    +0.292 HD
ENDBRANCH  25  43
ENDBRANCH   3  22
BRANCH   4  45
ATOM     45  O   LIG A   1      -9.157   2.315 133.288  0.00  0.00    -0.506 OA
ATOM     46  H   LIG A   1      -8.494   2.913 133.676  0.00  0.00    +0.292 HD
ENDBRANCH   4  45
TORSDOF 9
ENDMDL
MODEL 7
REMARK VINA RESULT:      -9.5      2.643      3.570
REMARK  Name = NuBBE_199
REMARK  10 active torsions:
REMARK  status: ('A' for Active; 'I' for Inactive)
REMARK    1  A    between atoms: O_1  and  C_2
REMARK    2  A    between atoms: C_4  and  O_5
REMARK    3  A    between atoms: C_9  and  C_10
REMARK    4  A    between atoms: C_12  and  C_13
REMARK    5  A    between atoms: C_14  and  O_15
REMARK    6  A    between atoms: C_17  and  O_18
REMARK    7  A    between atoms: C_22  and  C_23
REMARK    8  A    between atoms: C_26  and  O_27
REMARK    9  A    between atoms: O_27  and  C_28
REMARK   10  A    between atoms: C_34  and  O_35
REMARK                            x       y       z     vdW  Elec       q    Type
REMARK                         _______ _______ _______ _____ _____    ______ ____
ROOT
ATOM      1  C   LIG A   1      -6.191   3.507 128.018  0.00  0.00    +0.018 A 
ATOM      2  C   LIG A   1      -7.003   2.752 127.127  0.00  0.00    +0.024 A 
ATOM      3  C   LIG A   1      -6.830   2.728 125.711  0.00  0.00    +0.031 A 
ATOM      4  C   LIG A   1      -5.732   3.499 125.253  0.00  0.00    +0.125 A 
ATOM      5  C   LIG A   1      -4.900   4.224 126.103  0.00  0.00    +0.046 A 
ATOM      6  C   LIG A   1      -5.136   4.240 127.465  0.00  0.00    +0.015 A 
ENDROOT
BRANCH   1  13
ATOM      7  C   LIG A   1      -9.025   5.498 132.987  0.00  0.00    +0.124 A 
ATOM      8  C   LIG A   1      -8.451   4.679 133.954  0.00  0.00    +0.091 A 
ATOM      9  C   LIG A   1      -7.473   3.757 133.572  0.00  0.00    +0.135 A 
ATOM     10  C   LIG A   1      -7.072   3.659 132.237  0.00  0.00    +0.105 A 
ATOM     11  C   LIG A   1      -6.044   2.710 131.778  0.00  0.00    +0.197 A 
ATOM     12  C   LIG A   1      -5.787   2.689 130.326  0.00  0.00    +0.098 A 
ATOM     13  C   LIG A   1      -6.425   3.522 129.493  0.00  0.00    +0.139 A 
ATOM     14  O   LIG A   1      -7.347   4.460 129.935  0.00  0.00    -0.454 OA
ATOM     15  O   LIG A   1      -5.415   1.962 132.497  0.00  0.00    -0.287 OA
ATOM     16  C   LIG A   1      -7.664   4.494 131.275  0.00  0.00    +0.146 A 
ATOM     17  C   LIG A   1      -8.642   5.414 131.653  0.00  0.00    +0.092 A 
BRANCH   7  18
ATOM     18  O   LIG A   1      -9.991   6.405 133.311  0.00  0.00    -0.506 OA
ATOM     19  H   LIG A   1      -9.874   6.687 134.232  0.00  0.00    +0.292 HD
ENDBRANCH   7  18
BRANCH   9  20
ATOM     20  O   LIG A   1      -6.925   2.944 134.522  0.00  0.00    -0.506 OA
ATOM     21  H   LIG A   1      -6.351   3.444 135.121  0.00  0.00    +0.292 HD
ENDBRANCH   9  20
ENDBRANCH   1  13
BRANCH   3  22
ATOM     22  C   LIG A   1      -7.779   1.936 124.807  0.00  0.00    +0.070 A 
ATOM     23  C   LIG A   1      -8.491   2.533 123.731  0.00  0.00    +0.132 A 
ATOM     24  C   LIG A   1      -9.358   1.827 122.886  0.00  0.00    +0.092 A 
ATOM     25  C   LIG A   1      -9.559   0.472 123.078  0.00  0.00    +0.135 A 
ATOM     26  C   LIG A   1      -8.905  -0.185 124.121  0.00  0.00    +0.106 A 
ATOM     27  C   LIG A   1      -8.032   0.533 124.974  0.00  0.00    +0.154 A 
ATOM     28  O   LIG A   1      -7.414  -0.116 126.027  0.00  0.00    -0.454 OA
ATOM     29  C   LIG A   1      -7.580  -1.482 126.212  0.00  0.00    +0.139 A 
ATOM     30  C   LIG A   1      -8.381  -2.241 125.461  0.00  0.00    +0.098 A 
ATOM     31  C   LIG A   1      -9.118  -1.635 124.349  0.00  0.00    +0.197 A 
ATOM     32  O   LIG A   1      -9.852  -2.352 123.683  0.00  0.00    -0.287 OA
BRANCH  29  33
ATOM     33  C   LIG A   1      -6.836  -2.045 127.361  0.00  0.00    +0.018 A 
ATOM     34  C   LIG A   1      -7.548  -2.661 128.397  0.00  0.00    +0.015 A 
ATOM     35  C   LIG A   1      -6.893  -3.202 129.505  0.00  0.00    +0.046 A 
ATOM     36  C   LIG A   1      -5.506  -3.139 129.608  0.00  0.00    +0.120 A 
ATOM     37  C   LIG A   1      -4.779  -2.530 128.586  0.00  0.00    +0.046 A 
ATOM     38  C   LIG A   1      -5.436  -1.981 127.476  0.00  0.00    +0.015 A 
BRANCH  36  39
ATOM     39  O   LIG A   1      -4.765  -3.630 130.649  0.00  0.00    -0.495 OA
ATOM     40  C   LIG A   1      -5.294  -4.785 131.294  0.00  0.00    +0.277 C 
ENDBRANCH  36  39
ENDBRANCH  29  33
BRANCH  23  41
ATOM     41  O   LIG A   1      -8.373   3.877 123.455  0.00  0.00    -0.506 OA
ATOM     42  H   LIG A   1      -8.845   4.389 124.141  0.00  0.00    +0.292 HD
ENDBRANCH  23  41
BRANCH  25  43
ATOM     43  O   LIG A   1     -10.404  -0.188 122.236  0.00  0.00    -0.506 OA
ATOM     44  H   LIG A   1     -11.306  -0.222 122.590  0.00  0.00    +0.292 HD
ENDBRANCH  25  43
ENDBRANCH   3  22
BRANCH   4  45
ATOM     45  O   LIG A   1      -5.364   3.637 123.943  0.00  0.00    -0.506 OA
ATOM     46  H   LIG A   1      -4.828   4.450 123.917  0.00  0.00    +0.292 HD
ENDBRANCH   4  45
TORSDOF 9
ENDMDL
MODEL 8
REMARK VINA RESULT:      -9.4      2.968      9.339
REMARK  Name = NuBBE_199
REMARK  10 active torsions:
REMARK  status: ('A' for Active; 'I' for Inactive)
REMARK    1  A    between atoms: O_1  and  C_2
REMARK    2  A    between atoms: C_4  and  O_5
REMARK    3  A    between atoms: C_9  and  C_10
REMARK    4  A    between atoms: C_12  and  C_13
REMARK    5  A    between atoms: C_14  and  O_15
REMARK    6  A    between atoms: C_17  and  O_18
REMARK    7  A    between atoms: C_22  and  C_23
REMARK    8  A    between atoms: C_26  and  O_27
REMARK    9  A    between atoms: O_27  and  C_28
REMARK   10  A    between atoms: C_34  and  O_35
REMARK                            x       y       z     vdW  Elec       q    Type
REMARK                         _______ _______ _______ _____ _____    ______ ____
ROOT
ATOM      1  C   LIG A   1      -6.597   2.385 127.349  0.00  0.00    +0.018 A 
ATOM      2  C   LIG A   1      -6.573   2.473 128.768  0.00  0.00    +0.024 A 
ATOM      3  C   LIG A   1      -6.026   3.574 129.493  0.00  0.00    +0.031 A 
ATOM      4  C   LIG A   1      -5.537   4.619 128.669  0.00  0.00    +0.125 A 
ATOM      5  C   LIG A   1      -5.576   4.576 127.277  0.00  0.00    +0.046 A 
ATOM      6  C   LIG A   1      -6.085   3.467 126.626  0.00  0.00    +0.015 A 
ENDROOT
BRANCH   1  13
ATOM      7  C   LIG A   1      -6.035  -2.940 124.518  0.00  0.00    +0.124 A 
ATOM      8  C   LIG A   1      -7.371  -3.253 124.293  0.00  0.00    +0.091 A 
ATOM      9  C   LIG A   1      -8.359  -2.350 124.699  0.00  0.00    +0.135 A 
ATOM     10  C   LIG A   1      -8.011  -1.148 125.319  0.00  0.00    +0.105 A 
ATOM     11  C   LIG A   1      -9.007  -0.159 125.763  0.00  0.00    +0.197 A 
ATOM     12  C   LIG A   1      -8.475   1.026 126.461  0.00  0.00    +0.098 A 
ATOM     13  C   LIG A   1      -7.157   1.201 126.632  0.00  0.00    +0.139 A 
ATOM     14  O   LIG A   1      -6.216   0.299 126.157  0.00  0.00    -0.454 OA
ATOM     15  O   LIG A   1     -10.206  -0.256 125.601  0.00  0.00    -0.287 OA
ATOM     16  C   LIG A   1      -6.656  -0.851 125.539  0.00  0.00    +0.146 A 
ATOM     17  C   LIG A   1      -5.668  -1.750 125.137  0.00  0.00    +0.092 A 
BRANCH   7  18
ATOM     18  O   LIG A   1      -5.037  -3.794 124.150  0.00  0.00    -0.506 OA
ATOM     19  H   LIG A   1      -5.398  -4.480 123.566  0.00  0.00    +0.292 HD
ENDBRANCH   7  18
BRANCH   9  20
ATOM     20  O   LIG A   1      -9.670  -2.670 124.490  0.00  0.00    -0.506 OA
ATOM     21  H   LIG A   1     -10.256  -2.089 124.999  0.00  0.00    +0.292 HD
ENDBRANCH   9  20
ENDBRANCH   1  13
BRANCH   3  22
ATOM     22  C   LIG A   1      -5.981   3.575 131.024  0.00  0.00    +0.070 A 
ATOM     23  C   LIG A   1      -5.010   2.847 131.764  0.00  0.00    +0.132 A 
ATOM     24  C   LIG A   1      -4.946   2.840 133.164  0.00  0.00    +0.092 A 
ATOM     25  C   LIG A   1      -5.860   3.568 133.902  0.00  0.00    +0.135 A 
ATOM     26  C   LIG A   1      -6.851   4.301 133.249  0.00  0.00    +0.106 A 
ATOM     27  C   LIG A   1      -6.915   4.304 131.834  0.00  0.00    +0.154 A 
ATOM     28  O   LIG A   1      -7.923   5.003 131.194  0.00  0.00    -0.454 OA
ATOM     29  C   LIG A   1      -8.826   5.765 131.920  0.00  0.00    +0.139 A 
ATOM     30  C   LIG A   1      -8.845   5.825 133.254  0.00  0.00    +0.098 A 
ATOM     31  C   LIG A   1      -7.848   5.079 134.025  0.00  0.00    +0.197 A 
ATOM     32  O   LIG A   1      -7.894   5.144 135.246  0.00  0.00    -0.287 OA
BRANCH  29  33
ATOM     33  C   LIG A   1      -9.830   6.482 131.100  0.00  0.00    +0.018 A 
ATOM     34  C   LIG A   1      -9.401   7.201 129.978  0.00  0.00    +0.015 A 
ATOM     35  C   LIG A   1     -10.307   7.898 129.175  0.00  0.00    +0.046 A 
ATOM     36  C   LIG A   1     -11.666   7.896 129.476  0.00  0.00    +0.120 A 
ATOM     37  C   LIG A   1     -12.112   7.185 130.590  0.00  0.00    +0.046 A 
ATOM     38  C   LIG A   1     -11.203   6.490 131.399  0.00  0.00    +0.015 A 
BRANCH  36  39
ATOM     39  O   LIG A   1     -12.636   8.549 128.764  0.00  0.00    -0.495 OA
ATOM     40  C   LIG A   1     -13.557   7.716 128.067  0.00  0.00    +0.277 C 
ENDBRANCH  36  39
ENDBRANCH  29  33
BRANCH  23  41
ATOM     41  O   LIG A   1      -4.058   2.080 131.130  0.00  0.00    -0.506 OA
ATOM     42  H   LIG A   1      -4.118   2.225 130.166  0.00  0.00    +0.292 HD
ENDBRANCH  23  41
BRANCH  25  43
ATOM     43  O   LIG A   1      -5.766   3.546 135.263  0.00  0.00    -0.506 OA
ATOM     44  H   LIG A   1      -5.157   2.856 135.567  0.00  0.00    +0.292 HD
ENDBRANCH  25  43
ENDBRANCH   3  22
BRANCH   4  45
ATOM     45  O   LIG A   1      -4.965   5.774 129.125  0.00  0.00    -0.506 OA
ATOM     46  H   LIG A   1      -4.991   5.701 130.095  0.00  0.00    +0.292 HD
ENDBRANCH   4  45
TORSDOF 9
ENDMDL
MODEL 9
REMARK VINA RESULT:      -9.1      3.323      7.096
REMARK  Name = NuBBE_199
REMARK  10 active torsions:
REMARK  status: ('A' for Active; 'I' for Inactive)
REMARK    1  A    between atoms: O_1  and  C_2
REMARK    2  A    between atoms: C_4  and  O_5
REMARK    3  A    between atoms: C_9  and  C_10
REMARK    4  A    between atoms: C_12  and  C_13
REMARK    5  A    between atoms: C_14  and  O_15
REMARK    6  A    between atoms: C_17  and  O_18
REMARK    7  A    between atoms: C_22  and  C_23
REMARK    8  A    between atoms: C_26  and  O_27
REMARK    9  A    between atoms: O_27  and  C_28
REMARK   10  A    between atoms: C_34  and  O_35
REMARK                            x       y       z     vdW  Elec       q    Type
REMARK                         _______ _______ _______ _____ _____    ______ ____
ROOT
ATOM      1  C   LIG A   1      -7.226   2.906 131.140  0.00  0.00    +0.018 A 
ATOM      2  C   LIG A   1      -6.691   1.650 131.535  0.00  0.00    +0.024 A 
ATOM      3  C   LIG A   1      -7.470   0.582 132.073  0.00  0.00    +0.031 A 
ATOM      4  C   LIG A   1      -8.857   0.861 132.145  0.00  0.00    +0.125 A 
ATOM      5  C   LIG A   1      -9.415   2.070 131.736  0.00  0.00    +0.046 A 
ATOM      6  C   LIG A   1      -8.608   3.085 131.255  0.00  0.00    +0.015 A 
ENDROOT
BRANCH   1  13
ATOM      7  C   LIG A   1      -2.673   4.996 127.734  0.00  0.00    +0.124 A 
ATOM      8  C   LIG A   1      -2.819   6.366 127.925  0.00  0.00    +0.091 A 
ATOM      9  C   LIG A   1      -3.828   6.832 128.773  0.00  0.00    +0.135 A 
ATOM     10  C   LIG A   1      -4.679   5.934 129.424  0.00  0.00    +0.105 A 
ATOM     11  C   LIG A   1      -5.755   6.367 130.330  0.00  0.00    +0.197 A 
ATOM     12  C   LIG A   1      -6.604   5.295 130.883  0.00  0.00    +0.098 A 
ATOM     13  C   LIG A   1      -6.369   4.006 130.604  0.00  0.00    +0.139 A 
ATOM     14  O   LIG A   1      -5.315   3.595 129.800  0.00  0.00    -0.454 OA
ATOM     15  O   LIG A   1      -5.985   7.517 130.641  0.00  0.00    -0.287 OA
ATOM     16  C   LIG A   1      -4.517   4.555 129.217  0.00  0.00    +0.146 A 
ATOM     17  C   LIG A   1      -3.512   4.087 128.370  0.00  0.00    +0.092 A 
BRANCH   7  18
ATOM     18  O   LIG A   1      -1.711   4.495 126.907  0.00  0.00    -0.506 OA
ATOM     19  H   LIG A   1      -1.931   3.580 126.674  0.00  0.00    +0.292 HD
ENDBRANCH   7  18
BRANCH   9  20
ATOM     20  O   LIG A   1      -3.977   8.178 128.944  0.00  0.00    -0.506 OA
ATOM     21  H   LIG A   1      -3.849   8.652 128.108  0.00  0.00    +0.292 HD
ENDBRANCH   9  20
ENDBRANCH   1  13
BRANCH   3  22
ATOM     22  C   LIG A   1      -6.816  -0.726 132.532  0.00  0.00    +0.070 A 
ATOM     23  C   LIG A   1      -6.247  -0.887 133.825  0.00  0.00    +0.132 A 
ATOM     24  C   LIG A   1      -5.652  -2.076 134.268  0.00  0.00    +0.092 A 
ATOM     25  C   LIG A   1      -5.596  -3.176 133.432  0.00  0.00    +0.135 A 
ATOM     26  C   LIG A   1      -6.124  -3.093 132.143  0.00  0.00    +0.106 A 
ATOM     27  C   LIG A   1      -6.722  -1.889 131.697  0.00  0.00    +0.154 A 
ATOM     28  O   LIG A   1      -7.211  -1.802 130.406  0.00  0.00    -0.454 OA
ATOM     29  C   LIG A   1      -7.191  -2.908 129.567  0.00  0.00    +0.139 A 
ATOM     30  C   LIG A   1      -6.650  -4.083 129.897  0.00  0.00    +0.098 A 
ATOM     31  C   LIG A   1      -6.061  -4.259 131.227  0.00  0.00    +0.197 A 
ATOM     32  O   LIG A   1      -5.564  -5.342 131.500  0.00  0.00    -0.287 OA
BRANCH  29  33
ATOM     33  C   LIG A   1      -7.774  -2.675 128.225  0.00  0.00    +0.018 A 
ATOM     34  C   LIG A   1      -8.651  -3.627 127.691  0.00  0.00    +0.015 A 
ATOM     35  C   LIG A   1      -9.223  -3.457 126.429  0.00  0.00    +0.046 A 
ATOM     36  C   LIG A   1      -8.931  -2.330 125.665  0.00  0.00    +0.120 A 
ATOM     37  C   LIG A   1      -8.060  -1.371 126.181  0.00  0.00    +0.046 A 
ATOM     38  C   LIG A   1      -7.481  -1.543 127.446  0.00  0.00    +0.015 A 
BRANCH  36  39
ATOM     39  O   LIG A   1      -9.429  -2.068 124.417  0.00  0.00    -0.495 OA
ATOM     40  C   LIG A   1      -9.431  -3.165 123.510  0.00  0.00    +0.277 C 
ENDBRANCH  36  39
ENDBRANCH  29  33
BRANCH  23  41
ATOM     41  O   LIG A   1      -6.240   0.146 134.735  0.00  0.00    -0.506 OA
ATOM     42  H   LIG A   1      -5.336   0.514 134.796  0.00  0.00    +0.292 HD
ENDBRANCH  23  41
BRANCH  25  43
ATOM     43  O   LIG A   1      -5.016  -4.319 133.895  0.00  0.00    -0.506 OA
ATOM     44  H   LIG A   1      -5.495  -5.108 133.598  0.00  0.00    +0.292 HD
ENDBRANCH  25  43
ENDBRANCH   3  22
BRANCH   4  45
ATOM     45  O   LIG A   1      -9.806   0.001 132.625  0.00  0.00    -0.506 OA
ATOM     46  H   LIG A   1     -10.608   0.200 132.111  0.00  0.00    +0.292 HD
ENDBRANCH   4  45
TORSDOF 9
ENDMDL
