MODEL 1
REMARK VINA RESULT:      -6.3      0.000      0.000
REMARK  Name = NuBBE_1506
REMARK  11 active torsions:
REMARK  status: ('A' for Active; 'I' for Inactive)
REMARK    1  A    between atoms: C_1  and  C_2
REMARK    2  A    between atoms: C_1  and  C_15
REMARK    3  A    between atoms: C_2  and  S_3
REMARK    4  A    between atoms: S_3  and  C_4
REMARK    5  A    between atoms: C_8  and  S_13
REMARK    6  A    between atoms: S_13  and  C_14
REMARK    7  A    between atoms: C_18  and  O_21
REMARK    8  A    between atoms: O_21  and  C_22
REMARK    9  A    between atoms: C_22  and  C_23
REMARK   10  A    between atoms: C_24  and  C_25
REMARK   11  A    between atoms: C_24  and  C_26
REMARK                            x       y       z     vdW  Elec       q    Type
REMARK                         _______ _______ _______ _____ _____    ______ ____
ROOT
ATOM      1  C   LIG A   1      -7.937  -1.693 124.729  0.00  0.00    +0.161 C 
ATOM      2  C   LIG A   1      -6.640  -0.836 124.568  0.00  0.00    +0.248 C 
ATOM      3  O   LIG A   1      -5.521  -1.319 124.425  0.00  0.00    -0.273 OA
ATOM      4  N   LIG A   1      -6.828   0.508 124.326  0.00  0.00    -0.293 N 
ATOM      5  C   LIG A   1      -7.940   1.240 124.898  0.00  0.00    +0.218 C 
ATOM      6  C   LIG A   1      -9.195   0.385 125.190  0.00  0.00    +0.245 C 
ATOM      7  O   LIG A   1     -10.308   0.860 125.387  0.00  0.00    -0.273 OA
ATOM      8  N   LIG A   1      -8.973  -0.948 125.441  0.00  0.00    -0.291 N 
ATOM      9  H   LIG A   1      -5.962   1.019 124.226  0.00  0.00    +0.150 HD
ATOM     10  H   LIG A   1      -9.842  -1.449 125.582  0.00  0.00    +0.151 HD
ENDROOT
BRANCH   1  11
ATOM     11  S   LIG A   1      -8.633  -2.016 123.027  0.00  0.00    -0.129 S 
ATOM     12  C   LIG A   1      -9.697  -3.448 123.344  0.00  0.00    +0.087 C 
ENDBRANCH   1  11
BRANCH   5  13
ATOM     13  S   LIG A   1      -7.321   2.051 126.411  0.00  0.00    -0.133 S 
ATOM     14  C   LIG A   1      -5.682   2.576 125.840  0.00  0.00    +0.086 C 
ENDBRANCH   5  13
BRANCH   1  15
ATOM     15  C   LIG A   1      -7.566  -2.977 125.513  0.00  0.00    +0.081 C 
BRANCH  15  16
ATOM     16  C   LIG A   1      -7.602  -2.875 127.022  0.00  0.00    -0.044 A 
ATOM     17  C   LIG A   1      -6.599  -2.198 127.727  0.00  0.00    +0.007 A 
ATOM     18  C   LIG A   1      -6.622  -2.148 129.129  0.00  0.00    +0.046 A 
ATOM     19  C   LIG A   1      -7.657  -2.768 129.839  0.00  0.00    +0.121 A 
ATOM     20  C   LIG A   1      -8.669  -3.405 129.123  0.00  0.00    +0.046 A 
ATOM     21  C   LIG A   1      -8.642  -3.467 127.737  0.00  0.00    +0.007 A 
BRANCH  19  22
ATOM     22  O   LIG A   1      -7.616  -2.724 131.213  0.00  0.00    -0.488 OA
BRANCH  22  23
ATOM     23  C   LIG A   1      -7.085  -1.499 131.751  0.00  0.00    +0.256 C 
BRANCH  23  24
ATOM     24  C   LIG A   1      -8.201  -0.569 132.105  0.00  0.00    +0.012 C 
ATOM     25  C   LIG A   1      -8.661   0.492 131.410  0.00  0.00    -0.076 C 
ATOM     26  C   LIG A   1      -8.150   0.970 130.077  0.00  0.00    +0.038 C 
ATOM     27  C   LIG A   1      -9.807   1.308 131.947  0.00  0.00    +0.038 C 
ENDBRANCH  23  24
ENDBRANCH  22  23
ENDBRANCH  19  22
ENDBRANCH  15  16
ENDBRANCH   1  15
TORSDOF 7
ENDMDL
MODEL 2
REMARK VINA RESULT:      -6.2      4.656      7.747
REMARK  Name = NuBBE_1506
REMARK  11 active torsions:
REMARK  status: ('A' for Active; 'I' for Inactive)
REMARK    1  A    between atoms: C_1  and  C_2
REMARK    2  A    between atoms: C_1  and  C_15
REMARK    3  A    between atoms: C_2  and  S_3
REMARK    4  A    between atoms: S_3  and  C_4
REMARK    5  A    between atoms: C_8  and  S_13
REMARK    6  A    between atoms: S_13  and  C_14
REMARK    7  A    between atoms: C_18  and  O_21
REMARK    8  A    between atoms: O_21  and  C_22
REMARK    9  A    between atoms: C_22  and  C_23
REMARK   10  A    between atoms: C_24  and  C_25
REMARK   11  A    between atoms: C_24  and  C_26
REMARK                            x       y       z     vdW  Elec       q    Type
REMARK                         _______ _______ _______ _____ _____    ______ ____
ROOT
ATOM      1  C   LIG A   1      -8.661   4.793 131.830  0.00  0.00    +0.161 C 
ATOM      2  C   LIG A   1      -9.494   6.091 132.077  0.00  0.00    +0.248 C 
ATOM      3  O   LIG A   1      -9.815   6.489 133.193  0.00  0.00    -0.273 OA
ATOM      4  N   LIG A   1      -9.640   6.933 130.996  0.00  0.00    -0.293 N 
ATOM      5  C   LIG A   1      -9.739   6.429 129.641  0.00  0.00    +0.218 C 
ATOM      6  C   LIG A   1      -9.031   5.074 129.402  0.00  0.00    +0.245 C 
ATOM      7  O   LIG A   1      -8.753   4.643 128.289  0.00  0.00    -0.273 OA
ATOM      8  N   LIG A   1      -8.914   4.252 130.496  0.00  0.00    -0.291 N 
ATOM      9  H   LIG A   1     -10.182   7.760 131.204  0.00  0.00    +0.150 HD
ATOM     10  H   LIG A   1      -8.405   3.405 130.272  0.00  0.00    +0.151 HD
ENDROOT
BRANCH   1  11
ATOM     11  S   LIG A   1      -6.852   5.254 131.846  0.00  0.00    -0.129 S 
ATOM     12  C   LIG A   1      -6.550   5.449 133.623  0.00  0.00    +0.087 C 
ENDBRANCH   1  11
BRANCH   5  13
ATOM     13  S   LIG A   1     -11.517   6.329 129.240  0.00  0.00    -0.133 S 
ATOM     14  C   LIG A   1     -12.082   7.913 129.918  0.00  0.00    +0.086 C 
ENDBRANCH   5  13
BRANCH   1  15
ATOM     15  C   LIG A   1      -9.057   3.758 132.912  0.00  0.00    +0.081 C 
BRANCH  15  16
ATOM     16  C   LIG A   1      -8.687   2.318 132.630  0.00  0.00    -0.044 A 
ATOM     17  C   LIG A   1      -9.577   1.454 131.980  0.00  0.00    +0.007 A 
ATOM     18  C   LIG A   1      -9.236   0.110 131.762  0.00  0.00    +0.046 A 
ATOM     19  C   LIG A   1      -7.997  -0.379 132.187  0.00  0.00    +0.121 A 
ATOM     20  C   LIG A   1      -7.105   0.501 132.799  0.00  0.00    +0.046 A 
ATOM     21  C   LIG A   1      -7.444   1.827 133.026  0.00  0.00    +0.007 A 
BRANCH  19  22
ATOM     22  O   LIG A   1      -7.724  -1.712 131.986  0.00  0.00    -0.488 OA
BRANCH  22  23
ATOM     23  C   LIG A   1      -7.073  -2.001 130.735  0.00  0.00    +0.256 C 
BRANCH  23  24
ATOM     24  C   LIG A   1      -7.921  -2.924 129.919  0.00  0.00    +0.012 C 
ATOM     25  C   LIG A   1      -8.040  -2.988 128.576  0.00  0.00    -0.076 C 
ATOM     26  C   LIG A   1      -7.305  -2.133 127.579  0.00  0.00    +0.038 C 
ATOM     27  C   LIG A   1      -8.959  -4.000 127.946  0.00  0.00    +0.038 C 
ENDBRANCH  23  24
ENDBRANCH  22  23
ENDBRANCH  19  22
ENDBRANCH  15  16
ENDBRANCH   1  15
TORSDOF 7
ENDMDL
MODEL 3
REMARK VINA RESULT:      -6.1      4.822      7.643
REMARK  Name = NuBBE_1506
REMARK  11 active torsions:
REMARK  status: ('A' for Active; 'I' for Inactive)
REMARK    1  A    between atoms: C_1  and  C_2
REMARK    2  A    between atoms: C_1  and  C_15
REMARK    3  A    between atoms: C_2  and  S_3
REMARK    4  A    between atoms: S_3  and  C_4
REMARK    5  A    between atoms: C_8  and  S_13
REMARK    6  A    between atoms: S_13  and  C_14
REMARK    7  A    between atoms: C_18  and  O_21
REMARK    8  A    between atoms: O_21  and  C_22
REMARK    9  A    between atoms: C_22  and  C_23
REMARK   10  A    between atoms: C_24  and  C_25
REMARK   11  A    between atoms: C_24  and  C_26
REMARK                            x       y       z     vdW  Elec       q    Type
REMARK                         _______ _______ _______ _____ _____    ______ ____
ROOT
ATOM      1  C   LIG A   1     -10.001   5.185 131.197  0.00  0.00    +0.161 C 
ATOM      2  C   LIG A   1      -9.029   5.864 130.180  0.00  0.00    +0.248 C 
ATOM      3  O   LIG A   1      -9.213   5.872 128.967  0.00  0.00    -0.273 OA
ATOM      4  N   LIG A   1      -8.072   6.696 130.720  0.00  0.00    -0.293 N 
ATOM      5  C   LIG A   1      -7.470   6.433 132.011  0.00  0.00    +0.218 C 
ATOM      6  C   LIG A   1      -8.368   5.644 132.994  0.00  0.00    +0.245 C 
ATOM      7  O   LIG A   1      -8.162   5.587 134.201  0.00  0.00    -0.273 OA
ATOM      8  N   LIG A   1      -9.302   4.813 132.425  0.00  0.00    -0.291 N 
ATOM      9  H   LIG A   1      -7.469   7.114 130.025  0.00  0.00    +0.150 HD
ATOM     10  H   LIG A   1      -9.877   4.364 133.128  0.00  0.00    +0.151 HD
ENDROOT
BRANCH   1  11
ATOM     11  S   LIG A   1     -11.277   6.448 131.710  0.00  0.00    -0.129 S 
ATOM     12  C   LIG A   1     -12.282   6.571 130.207  0.00  0.00    +0.087 C 
ENDBRANCH   1  11
BRANCH   5  13
ATOM     13  S   LIG A   1      -5.899   5.559 131.699  0.00  0.00    -0.133 S 
ATOM     14  C   LIG A   1      -5.055   6.789 130.668  0.00  0.00    +0.086 C 
ENDBRANCH   5  13
BRANCH   1  15
ATOM     15  C   LIG A   1     -10.599   3.926 130.518  0.00  0.00    +0.081 C 
BRANCH  15  16
ATOM     16  C   LIG A   1      -9.808   2.645 130.669  0.00  0.00    -0.044 A 
ATOM     17  C   LIG A   1     -10.058   1.758 131.723  0.00  0.00    +0.007 A 
ATOM     18  C   LIG A   1      -9.288   0.594 131.874  0.00  0.00    +0.046 A 
ATOM     19  C   LIG A   1      -8.265   0.304 130.965  0.00  0.00    +0.121 A 
ATOM     20  C   LIG A   1      -8.052   1.176 129.898  0.00  0.00    +0.046 A 
ATOM     21  C   LIG A   1      -8.804   2.333 129.753  0.00  0.00    +0.007 A 
BRANCH  19  22
ATOM     22  O   LIG A   1      -7.512  -0.828 131.177  0.00  0.00    -0.488 OA
BRANCH  22  23
ATOM     23  C   LIG A   1      -6.999  -1.430 129.974  0.00  0.00    +0.256 C 
BRANCH  23  24
ATOM     24  C   LIG A   1      -7.897  -2.542 129.535  0.00  0.00    +0.012 C 
ATOM     25  C   LIG A   1      -8.166  -2.958 128.280  0.00  0.00    -0.076 C 
ATOM     26  C   LIG A   1      -7.584  -2.389 127.013  0.00  0.00    +0.038 C 
ATOM     27  C   LIG A   1      -9.110  -4.108 128.051  0.00  0.00    +0.038 C 
ENDBRANCH  23  24
ENDBRANCH  22  23
ENDBRANCH  19  22
ENDBRANCH  15  16
ENDBRANCH   1  15
TORSDOF 7
ENDMDL
MODEL 4
REMARK VINA RESULT:      -6.0      3.489      6.931
REMARK  Name = NuBBE_1506
REMARK  11 active torsions:
REMARK  status: ('A' for Active; 'I' for Inactive)
REMARK    1  A    between atoms: C_1  and  C_2
REMARK    2  A    between atoms: C_1  and  C_15
REMARK    3  A    between atoms: C_2  and  S_3
REMARK    4  A    between atoms: S_3  and  C_4
REMARK    5  A    between atoms: C_8  and  S_13
REMARK    6  A    between atoms: S_13  and  C_14
REMARK    7  A    between atoms: C_18  and  O_21
REMARK    8  A    between atoms: O_21  and  C_22
REMARK    9  A    between atoms: C_22  and  C_23
REMARK   10  A    between atoms: C_24  and  C_25
REMARK   11  A    between atoms: C_24  and  C_26
REMARK                            x       y       z     vdW  Elec       q    Type
REMARK                         _______ _______ _______ _____ _____    ______ ____
ROOT
ATOM      1  C   LIG A   1      -6.430  -2.422 131.307  0.00  0.00    +0.161 C 
ATOM      2  C   LIG A   1      -6.710  -0.935 131.697  0.00  0.00    +0.248 C 
ATOM      3  O   LIG A   1      -7.783  -0.542 132.145  0.00  0.00    -0.273 OA
ATOM      4  N   LIG A   1      -5.609  -0.109 131.767  0.00  0.00    -0.293 N 
ATOM      5  C   LIG A   1      -4.472  -0.273 130.885  0.00  0.00    +0.218 C 
ATOM      6  C   LIG A   1      -4.249  -1.718 130.378  0.00  0.00    +0.245 C 
ATOM      7  O   LIG A   1      -3.199  -2.107 129.881  0.00  0.00    -0.273 OA
ATOM      8  N   LIG A   1      -5.369  -2.512 130.306  0.00  0.00    -0.291 N 
ATOM      9  H   LIG A   1      -5.839   0.840 132.026  0.00  0.00    +0.150 HD
ATOM     10  H   LIG A   1      -5.139  -3.452 130.007  0.00  0.00    +0.151 HD
ENDROOT
BRANCH   1  11
ATOM     11  S   LIG A   1      -5.769  -3.301 132.816  0.00  0.00    -0.129 S 
ATOM     12  C   LIG A   1      -5.275  -4.896 132.111  0.00  0.00    +0.087 C 
ENDBRANCH   1  11
BRANCH   5  13
ATOM     13  S   LIG A   1      -4.703   0.890 129.497  0.00  0.00    -0.133 S 
ATOM     14  C   LIG A   1      -4.183   2.435 130.292  0.00  0.00    +0.086 C 
ENDBRANCH   5  13
BRANCH   1  15
ATOM     15  C   LIG A   1      -7.744  -3.026 130.751  0.00  0.00    +0.081 C 
BRANCH  15  16
ATOM     16  C   LIG A   1      -8.018  -2.794 129.282  0.00  0.00    -0.044 A 
ATOM     17  C   LIG A   1      -8.661  -3.764 128.502  0.00  0.00    +0.007 A 
ATOM     18  C   LIG A   1      -8.871  -3.552 127.130  0.00  0.00    +0.046 A 
ATOM     19  C   LIG A   1      -8.447  -2.362 126.529  0.00  0.00    +0.121 A 
ATOM     20  C   LIG A   1      -7.844  -1.389 127.324  0.00  0.00    +0.046 A 
ATOM     21  C   LIG A   1      -7.624  -1.601 128.678  0.00  0.00    +0.007 A 
BRANCH  19  22
ATOM     22  O   LIG A   1      -8.641  -2.217 125.175  0.00  0.00    -0.488 OA
BRANCH  22  23
ATOM     23  C   LIG A   1      -8.362  -3.402 124.406  0.00  0.00    +0.256 C 
BRANCH  23  24
ATOM     24  C   LIG A   1      -6.884  -3.589 124.272  0.00  0.00    +0.012 C 
ATOM     25  C   LIG A   1      -6.018  -2.903 123.498  0.00  0.00    -0.076 C 
ATOM     26  C   LIG A   1      -6.359  -1.750 122.591  0.00  0.00    +0.038 C 
ATOM     27  C   LIG A   1      -4.554  -3.253 123.508  0.00  0.00    +0.038 C 
ENDBRANCH  23  24
ENDBRANCH  22  23
ENDBRANCH  19  22
ENDBRANCH  15  16
ENDBRANCH   1  15
TORSDOF 7
ENDMDL
MODEL 5
REMARK VINA RESULT:      -6.0      5.718      9.088
REMARK  Name = NuBBE_1506
REMARK  11 active torsions:
REMARK  status: ('A' for Active; 'I' for Inactive)
REMARK    1  A    between atoms: C_1  and  C_2
REMARK    2  A    between atoms: C_1  and  C_15
REMARK    3  A    between atoms: C_2  and  S_3
REMARK    4  A    between atoms: S_3  and  C_4
REMARK    5  A    between atoms: C_8  and  S_13
REMARK    6  A    between atoms: S_13  and  C_14
REMARK    7  A    between atoms: C_18  and  O_21
REMARK    8  A    between atoms: O_21  and  C_22
REMARK    9  A    between atoms: C_22  and  C_23
REMARK   10  A    between atoms: C_24  and  C_25
REMARK   11  A    between atoms: C_24  and  C_26
REMARK                            x       y       z     vdW  Elec       q    Type
REMARK                         _______ _______ _______ _____ _____    ______ ____
ROOT
ATOM      1  C   LIG A   1      -9.384   4.913 131.288  0.00  0.00    +0.161 C 
ATOM      2  C   LIG A   1      -9.382   3.704 132.278  0.00  0.00    +0.248 C 
ATOM      3  O   LIG A   1      -9.556   3.816 133.487  0.00  0.00    -0.273 OA
ATOM      4  N   LIG A   1      -9.439   2.452 131.705  0.00  0.00    -0.293 N 
ATOM      5  C   LIG A   1      -8.808   2.162 130.434  0.00  0.00    +0.218 C 
ATOM      6  C   LIG A   1      -8.678   3.377 129.484  0.00  0.00    +0.245 C 
ATOM      7  O   LIG A   1      -8.453   3.277 128.284  0.00  0.00    -0.273 OA
ATOM      8  N   LIG A   1      -8.609   4.610 130.087  0.00  0.00    -0.291 N 
ATOM      9  H   LIG A   1      -9.440   1.702 132.383  0.00  0.00    +0.150 HD
ATOM     10  H   LIG A   1      -8.568   5.355 129.402  0.00  0.00    +0.151 HD
ENDROOT
BRANCH   1  11
ATOM     11  S   LIG A   1     -11.136   5.177 130.700  0.00  0.00    -0.129 S 
ATOM     12  C   LIG A   1     -11.660   6.559 131.748  0.00  0.00    +0.087 C 
ENDBRANCH   1  11
BRANCH   5  13
ATOM     13  S   LIG A   1      -7.176   1.432 130.804  0.00  0.00    -0.133 S 
ATOM     14  C   LIG A   1      -7.609   0.408 132.237  0.00  0.00    +0.086 C 
ENDBRANCH   5  13
BRANCH   1  15
ATOM     15  C   LIG A   1      -8.776   6.133 132.024  0.00  0.00    +0.081 C 
BRANCH  15  16
ATOM     16  C   LIG A   1      -7.283   6.329 131.876  0.00  0.00    -0.044 A 
ATOM     17  C   LIG A   1      -6.755   7.149 130.871  0.00  0.00    +0.007 A 
ATOM     18  C   LIG A   1      -5.367   7.288 130.719  0.00  0.00    +0.046 A 
ATOM     19  C   LIG A   1      -4.494   6.613 131.579  0.00  0.00    +0.121 A 
ATOM     20  C   LIG A   1      -5.033   5.830 132.599  0.00  0.00    +0.046 A 
ATOM     21  C   LIG A   1      -6.405   5.681 132.743  0.00  0.00    +0.007 A 
BRANCH  19  22
ATOM     22  O   LIG A   1      -3.142   6.750 131.366  0.00  0.00    -0.488 OA
BRANCH  22  23
ATOM     23  C   LIG A   1      -2.440   5.504 131.198  0.00  0.00    +0.256 C 
BRANCH  23  24
ATOM     24  C   LIG A   1      -2.829   4.870 129.900  0.00  0.00    +0.012 C 
ATOM     25  C   LIG A   1      -2.742   5.384 128.655  0.00  0.00    -0.076 C 
ATOM     26  C   LIG A   1      -2.196   6.739 128.291  0.00  0.00    +0.038 C 
ATOM     27  C   LIG A   1      -3.192   4.573 127.469  0.00  0.00    +0.038 C 
ENDBRANCH  23  24
ENDBRANCH  22  23
ENDBRANCH  19  22
ENDBRANCH  15  16
ENDBRANCH   1  15
TORSDOF 7
ENDMDL
MODEL 6
REMARK VINA RESULT:      -6.0      1.506      2.621
REMARK  Name = NuBBE_1506
REMARK  11 active torsions:
REMARK  status: ('A' for Active; 'I' for Inactive)
REMARK    1  A    between atoms: C_1  and  C_2
REMARK    2  A    between atoms: C_1  and  C_15
REMARK    3  A    between atoms: C_2  and  S_3
REMARK    4  A    between atoms: S_3  and  C_4
REMARK    5  A    between atoms: C_8  and  S_13
REMARK    6  A    between atoms: S_13  and  C_14
REMARK    7  A    between atoms: C_18  and  O_21
REMARK    8  A    between atoms: O_21  and  C_22
REMARK    9  A    between atoms: C_22  and  C_23
REMARK   10  A    between atoms: C_24  and  C_25
REMARK   11  A    between atoms: C_24  and  C_26
REMARK                            x       y       z     vdW  Elec       q    Type
REMARK                         _______ _______ _______ _____ _____    ______ ____
ROOT
ATOM      1  C   LIG A   1      -7.943  -1.691 124.725  0.00  0.00    +0.161 C 
ATOM      2  C   LIG A   1      -6.651  -0.843 124.494  0.00  0.00    +0.248 C 
ATOM      3  O   LIG A   1      -5.526  -1.328 124.419  0.00  0.00    -0.273 OA
ATOM      4  N   LIG A   1      -6.846   0.466 124.112  0.00  0.00    -0.293 N 
ATOM      5  C   LIG A   1      -7.972   1.243 124.587  0.00  0.00    +0.218 C 
ATOM      6  C   LIG A   1      -9.226   0.410 124.949  0.00  0.00    +0.245 C 
ATOM      7  O   LIG A   1     -10.344   0.893 125.078  0.00  0.00    -0.273 OA
ATOM      8  N   LIG A   1      -8.996  -0.887 125.340  0.00  0.00    -0.291 N 
ATOM      9  H   LIG A   1      -5.983   0.973 123.971  0.00  0.00    +0.150 HD
ATOM     10  H   LIG A   1      -9.864  -1.379 125.519  0.00  0.00    +0.151 HD
ENDROOT
BRANCH   1  11
ATOM     11  S   LIG A   1      -8.609  -2.197 123.056  0.00  0.00    -0.129 S 
ATOM     12  C   LIG A   1      -9.710  -3.563 123.511  0.00  0.00    +0.087 C 
ENDBRANCH   1  11
BRANCH   5  13
ATOM     13  S   LIG A   1      -7.384   2.213 126.017  0.00  0.00    -0.133 S 
ATOM     14  C   LIG A   1      -5.715   2.634 125.446  0.00  0.00    +0.086 C 
ENDBRANCH   5  13
BRANCH   1  15
ATOM     15  C   LIG A   1      -7.574  -2.883 125.644  0.00  0.00    +0.081 C 
BRANCH  15  16
ATOM     16  C   LIG A   1      -7.509  -2.591 127.126  0.00  0.00    -0.044 A 
ATOM     17  C   LIG A   1      -6.578  -1.683 127.647  0.00  0.00    +0.007 A 
ATOM     18  C   LIG A   1      -6.501  -1.453 129.029  0.00  0.00    +0.046 A 
ATOM     19  C   LIG A   1      -7.362  -2.126 129.903  0.00  0.00    +0.121 A 
ATOM     20  C   LIG A   1      -8.308  -2.999 129.369  0.00  0.00    +0.046 A 
ATOM     21  C   LIG A   1      -8.379  -3.237 128.004  0.00  0.00    +0.007 A 
BRANCH  19  22
ATOM     22  O   LIG A   1      -7.222  -1.897 131.253  0.00  0.00    -0.488 OA
BRANCH  22  23
ATOM     23  C   LIG A   1      -7.531  -3.034 132.080  0.00  0.00    +0.256 C 
BRANCH  23  24
ATOM     24  C   LIG A   1      -6.278  -3.584 132.683  0.00  0.00    +0.012 C 
ATOM     25  C   LIG A   1      -5.440  -4.512 132.177  0.00  0.00    -0.076 C 
ATOM     26  C   LIG A   1      -5.577  -5.199 130.844  0.00  0.00    +0.038 C 
ATOM     27  C   LIG A   1      -4.220  -4.932 132.952  0.00  0.00    +0.038 C 
ENDBRANCH  23  24
ENDBRANCH  22  23
ENDBRANCH  19  22
ENDBRANCH  15  16
ENDBRANCH   1  15
TORSDOF 7
ENDMDL
MODEL 7
REMARK VINA RESULT:      -5.9      3.223      6.822
REMARK  Name = NuBBE_1506
REMARK  11 active torsions:
REMARK  status: ('A' for Active; 'I' for Inactive)
REMARK    1  A    between atoms: C_1  and  C_2
REMARK    2  A    between atoms: C_1  and  C_15
REMARK    3  A    between atoms: C_2  and  S_3
REMARK    4  A    between atoms: S_3  and  C_4
REMARK    5  A    between atoms: C_8  and  S_13
REMARK    6  A    between atoms: S_13  and  C_14
REMARK    7  A    between atoms: C_18  and  O_21
REMARK    8  A    between atoms: O_21  and  C_22
REMARK    9  A    between atoms: C_22  and  C_23
REMARK   10  A    between atoms: C_24  and  C_25
REMARK   11  A    between atoms: C_24  and  C_26
REMARK                            x       y       z     vdW  Elec       q    Type
REMARK                         _______ _______ _______ _____ _____    ______ ____
ROOT
ATOM      1  C   LIG A   1      -6.984   1.177 129.866  0.00  0.00    +0.161 C 
ATOM      2  C   LIG A   1      -5.836   0.390 130.576  0.00  0.00    +0.248 C 
ATOM      3  O   LIG A   1      -4.684   0.342 130.154  0.00  0.00    -0.273 OA
ATOM      4  N   LIG A   1      -6.101  -0.044 131.856  0.00  0.00    -0.293 N 
ATOM      5  C   LIG A   1      -7.427  -0.460 132.264  0.00  0.00    +0.218 C 
ATOM      6  C   LIG A   1      -8.584   0.210 131.484  0.00  0.00    +0.245 C 
ATOM      7  O   LIG A   1      -9.746   0.218 131.871  0.00  0.00    -0.273 OA
ATOM      8  N   LIG A   1      -8.291   0.619 130.205  0.00  0.00    -0.291 N 
ATOM      9  H   LIG A   1      -5.329  -0.545 132.275  0.00  0.00    +0.150 HD
ATOM     10  H   LIG A   1      -9.082   1.084 129.775  0.00  0.00    +0.151 HD
ENDROOT
BRANCH   1  11
ATOM     11  S   LIG A   1      -6.994   2.919 130.539  0.00  0.00    -0.129 S 
ATOM     12  C   LIG A   1      -8.536   3.563 129.838  0.00  0.00    +0.087 C 
ENDBRANCH   1  11
BRANCH   5  13
ATOM     13  S   LIG A   1      -7.487  -2.277 132.110  0.00  0.00    -0.133 S 
ATOM     14  C   LIG A   1      -7.933  -2.723 133.810  0.00  0.00    +0.086 C 
ENDBRANCH   5  13
BRANCH   1  15
ATOM     15  C   LIG A   1      -6.746   1.094 128.337  0.00  0.00    +0.081 C 
BRANCH  15  16
ATOM     16  C   LIG A   1      -7.554   0.057 127.589  0.00  0.00    -0.044 A 
ATOM     17  C   LIG A   1      -7.468  -1.303 127.913  0.00  0.00    +0.007 A 
ATOM     18  C   LIG A   1      -8.192  -2.258 127.183  0.00  0.00    +0.046 A 
ATOM     19  C   LIG A   1      -9.016  -1.859 126.126  0.00  0.00    +0.121 A 
ATOM     20  C   LIG A   1      -9.123  -0.499 125.838  0.00  0.00    +0.046 A 
ATOM     21  C   LIG A   1      -8.399   0.447 126.551  0.00  0.00    +0.007 A 
BRANCH  19  22
ATOM     22  O   LIG A   1      -9.675  -2.834 125.415  0.00  0.00    -0.488 OA
BRANCH  22  23
ATOM     23  C   LIG A   1      -9.150  -3.060 124.093  0.00  0.00    +0.256 C 
BRANCH  23  24
ATOM     24  C   LIG A   1      -7.738  -3.543 124.180  0.00  0.00    +0.012 C 
ATOM     25  C   LIG A   1      -6.607  -2.899 123.822  0.00  0.00    -0.076 C 
ATOM     26  C   LIG A   1      -6.520  -1.503 123.263  0.00  0.00    +0.038 C 
ATOM     27  C   LIG A   1      -5.270  -3.569 123.991  0.00  0.00    +0.038 C 
ENDBRANCH  23  24
ENDBRANCH  22  23
ENDBRANCH  19  22
ENDBRANCH  15  16
ENDBRANCH   1  15
TORSDOF 7
ENDMDL
MODEL 8
REMARK VINA RESULT:      -5.9      5.383      8.090
REMARK  Name = NuBBE_1506
REMARK  11 active torsions:
REMARK  status: ('A' for Active; 'I' for Inactive)
REMARK    1  A    between atoms: C_1  and  C_2
REMARK    2  A    between atoms: C_1  and  C_15
REMARK    3  A    between atoms: C_2  and  S_3
REMARK    4  A    between atoms: S_3  and  C_4
REMARK    5  A    between atoms: C_8  and  S_13
REMARK    6  A    between atoms: S_13  and  C_14
REMARK    7  A    between atoms: C_18  and  O_21
REMARK    8  A    between atoms: O_21  and  C_22
REMARK    9  A    between atoms: C_22  and  C_23
REMARK   10  A    between atoms: C_24  and  C_25
REMARK   11  A    between atoms: C_24  and  C_26
REMARK                            x       y       z     vdW  Elec       q    Type
REMARK                         _______ _______ _______ _____ _____    ______ ____
ROOT
ATOM      1  C   LIG A   1     -10.744   5.789 130.316  0.00  0.00    +0.161 C 
ATOM      2  C   LIG A   1     -11.814   6.696 131.003  0.00  0.00    +0.248 C 
ATOM      3  O   LIG A   1     -12.411   6.383 132.029  0.00  0.00    -0.273 OA
ATOM      4  N   LIG A   1     -11.881   7.999 130.558  0.00  0.00    -0.293 N 
ATOM      5  C   LIG A   1     -11.625   8.349 129.176  0.00  0.00    +0.218 C 
ATOM      6  C   LIG A   1     -10.668   7.388 128.432  0.00  0.00    +0.245 C 
ATOM      7  O   LIG A   1     -10.107   7.672 127.380  0.00  0.00    -0.273 OA
ATOM      8  N   LIG A   1     -10.635   6.093 128.890  0.00  0.00    -0.291 N 
ATOM      9  H   LIG A   1     -12.584   8.547 131.034  0.00  0.00    +0.150 HD
ATOM     10  H   LIG A   1      -9.957   5.537 128.383  0.00  0.00    +0.151 HD
ENDROOT
BRANCH   1  11
ATOM     11  S   LIG A   1      -9.076   6.206 131.045  0.00  0.00    -0.129 S 
ATOM     12  C   LIG A   1      -9.399   5.996 132.816  0.00  0.00    +0.087 C 
ENDBRANCH   1  11
BRANCH   5  13
ATOM     13  S   LIG A   1     -13.246   8.449 128.343  0.00  0.00    -0.133 S 
ATOM     14  C   LIG A   1     -13.495   6.701 127.931  0.00  0.00    +0.086 C 
ENDBRANCH   5  13
BRANCH   1  15
ATOM     15  C   LIG A   1     -11.168   4.313 130.517  0.00  0.00    +0.081 C 
BRANCH  15  16
ATOM     16  C   LIG A   1     -10.051   3.294 130.554  0.00  0.00    -0.044 A 
ATOM     17  C   LIG A   1      -9.208   3.101 129.451  0.00  0.00    +0.007 A 
ATOM     18  C   LIG A   1      -8.203   2.123 129.484  0.00  0.00    +0.046 A 
ATOM     19  C   LIG A   1      -8.026   1.333 130.626  0.00  0.00    +0.121 A 
ATOM     20  C   LIG A   1      -8.846   1.562 131.730  0.00  0.00    +0.046 A 
ATOM     21  C   LIG A   1      -9.849   2.520 131.695  0.00  0.00    +0.007 A 
BRANCH  19  22
ATOM     22  O   LIG A   1      -7.053   0.362 130.597  0.00  0.00    -0.488 OA
BRANCH  22  23
ATOM     23  C   LIG A   1      -7.438  -0.880 131.215  0.00  0.00    +0.256 C 
BRANCH  23  24
ATOM     24  C   LIG A   1      -8.143  -1.749 130.222  0.00  0.00    +0.012 C 
ATOM     25  C   LIG A   1      -7.667  -2.823 129.560  0.00  0.00    -0.076 C 
ATOM     26  C   LIG A   1      -6.288  -3.412 129.699  0.00  0.00    +0.038 C 
ATOM     27  C   LIG A   1      -8.549  -3.567 128.592  0.00  0.00    +0.038 C 
ENDBRANCH  23  24
ENDBRANCH  22  23
ENDBRANCH  19  22
ENDBRANCH  15  16
ENDBRANCH   1  15
TORSDOF 7
ENDMDL
MODEL 9
REMARK VINA RESULT:      -5.9      2.961      6.133
REMARK  Name = NuBBE_1506
REMARK  11 active torsions:
REMARK  status: ('A' for Active; 'I' for Inactive)
REMARK    1  A    between atoms: C_1  and  C_2
REMARK    2  A    between atoms: C_1  and  C_15
REMARK    3  A    between atoms: C_2  and  S_3
REMARK    4  A    between atoms: S_3  and  C_4
REMARK    5  A    between atoms: C_8  and  S_13
REMARK    6  A    between atoms: S_13  and  C_14
REMARK    7  A    between atoms: C_18  and  O_21
REMARK    8  A    between atoms: O_21  and  C_22
REMARK    9  A    between atoms: C_22  and  C_23
REMARK   10  A    between atoms: C_24  and  C_25
REMARK   11  A    between atoms: C_24  and  C_26
REMARK                            x       y       z     vdW  Elec       q    Type
REMARK                         _______ _______ _______ _____ _____    ______ ____
ROOT
ATOM      1  C   LIG A   1      -6.611   2.255 128.563  0.00  0.00    +0.161 C 
ATOM      2  C   LIG A   1      -7.504   3.369 127.928  0.00  0.00    +0.248 C 
ATOM      3  O   LIG A   1      -8.610   3.679 128.360  0.00  0.00    -0.273 OA
ATOM      4  N   LIG A   1      -6.889   4.187 127.006  0.00  0.00    -0.293 N 
ATOM      5  C   LIG A   1      -5.854   3.697 126.118  0.00  0.00    +0.218 C 
ATOM      6  C   LIG A   1      -5.038   2.505 126.672  0.00  0.00    +0.245 C 
ATOM      7  O   LIG A   1      -3.957   2.154 126.214  0.00  0.00    -0.273 OA
ATOM      8  N   LIG A   1      -5.685   1.700 127.579  0.00  0.00    -0.291 N 
ATOM      9  H   LIG A   1      -7.504   4.893 126.626  0.00  0.00    +0.150 HD
ATOM     10  H   LIG A   1      -5.075   0.969 127.926  0.00  0.00    +0.151 HD
ENDROOT
BRANCH   1  11
ATOM     11  S   LIG A   1      -5.537   3.049 129.868  0.00  0.00    -0.129 S 
ATOM     12  C   LIG A   1      -6.651   3.046 131.297  0.00  0.00    +0.087 C 
ENDBRANCH   1  11
BRANCH   5  13
ATOM     13  S   LIG A   1      -6.665   3.272 124.539  0.00  0.00    -0.133 S 
ATOM     14  C   LIG A   1      -5.597   4.174 123.384  0.00  0.00    +0.086 C 
ENDBRANCH   5  13
BRANCH   1  15
ATOM     15  C   LIG A   1      -7.545   1.145 129.106  0.00  0.00    +0.081 C 
BRANCH  15  16
ATOM     16  C   LIG A   1      -7.855   0.007 128.158  0.00  0.00    -0.044 A 
ATOM     17  C   LIG A   1      -8.415   0.246 126.896  0.00  0.00    +0.007 A 
ATOM     18  C   LIG A   1      -8.736  -0.821 126.044  0.00  0.00    +0.046 A 
ATOM     19  C   LIG A   1      -8.491  -2.139 126.444  0.00  0.00    +0.121 A 
ATOM     20  C   LIG A   1      -7.898  -2.361 127.686  0.00  0.00    +0.046 A 
ATOM     21  C   LIG A   1      -7.591  -1.308 128.536  0.00  0.00    +0.007 A 
BRANCH  19  22
ATOM     22  O   LIG A   1      -8.858  -3.154 125.591  0.00  0.00    -0.488 OA
BRANCH  22  23
ATOM     23  C   LIG A   1      -8.383  -2.993 124.242  0.00  0.00    +0.256 C 
BRANCH  23  24
ATOM     24  C   LIG A   1      -7.078  -3.703 124.071  0.00  0.00    +0.012 C 
ATOM     25  C   LIG A   1      -5.830  -3.204 124.185  0.00  0.00    -0.076 C 
ATOM     26  C   LIG A   1      -5.470  -1.787 124.544  0.00  0.00    +0.038 C 
ATOM     27  C   LIG A   1      -4.637  -4.097 123.971  0.00  0.00    +0.038 C 
ENDBRANCH  23  24
ENDBRANCH  22  23
ENDBRANCH  19  22
ENDBRANCH  15  16
ENDBRANCH   1  15
TORSDOF 7
ENDMDL
