MODEL 1
REMARK VINA RESULT:      -7.9      0.000      0.000
REMARK  Name = NuBBE_2506
REMARK  11 active torsions:
REMARK  status: ('A' for Active; 'I' for Inactive)
REMARK    1  A    between atoms: C_1  and  C_2
REMARK    2  A    between atoms: C_2  and  O_4
REMARK    3  A    between atoms: O_4  and  C_5
REMARK    4  A    between atoms: C_6  and  C_7
REMARK    5  A    between atoms: C_7  and  C_8
REMARK    6  A    between atoms: C_7  and  C_9
REMARK    7  A    between atoms: C_13  and  O_14
REMARK    8  A    between atoms: O_14  and  C_15
REMARK    9  A    between atoms: C_15  and  C_16
REMARK   10  A    between atoms: C_22  and  C_23
REMARK   11  A    between atoms: C_22  and  C_24
REMARK                            x       y       z     vdW  Elec       q    Type
REMARK                         _______ _______ _______ _____ _____    ______ ____
ROOT
ATOM      1  C   LIG A   1      -8.440   1.754 128.243  0.00  0.00    +0.177 A 
ATOM      2  C   LIG A   1      -7.970   1.022 129.365  0.00  0.00    +0.002 A 
ATOM      3  C   LIG A   1      -7.697  -0.331 129.178  0.00  0.00    +0.014 A 
ATOM      4  C   LIG A   1      -7.829  -0.919 127.921  0.00  0.00    -0.011 A 
ATOM      5  C   LIG A   1      -8.258  -0.206 126.763  0.00  0.00    +0.013 A 
ATOM      6  C   LIG A   1      -8.637   1.151 126.950  0.00  0.00    +0.178 A 
ATOM      7  C   LIG A   1      -8.258  -1.198 125.534  0.00  0.00    +0.026 C 
ATOM      8  C   LIG A   1      -8.750  -0.662 124.176  0.00  0.00    +0.014 C 
ATOM      9  C   LIG A   1      -8.380  -1.539 122.965  0.00  0.00    +0.001 C 
ATOM     10  C   LIG A   1      -6.880  -1.802 122.892  0.00  0.00    +0.007 C 
ATOM     11  C   LIG A   1      -6.366  -2.561 124.129  0.00  0.00    -0.031 C 
ATOM     12  C   LIG A   1      -4.820  -2.636 124.031  0.00  0.00    +0.011 C 
ATOM     13  C   LIG A   1      -6.884  -4.018 124.078  0.00  0.00    +0.011 C 
ATOM     14  C   LIG A   1      -6.763  -1.753 125.417  0.00  0.00    +0.010 C 
ATOM     15  C   LIG A   1      -6.360  -2.482 126.726  0.00  0.00    +0.041 C 
ATOM     16  C   LIG A   1      -7.505  -2.383 127.722  0.00  0.00    +0.149 C 
ATOM     17  O   LIG A   1      -8.641  -3.056 127.164  0.00  0.00    -0.371 OA
ATOM     18  C   LIG A   1      -9.186  -2.357 126.029  0.00  0.00    +0.172 C 
ENDROOT
BRANCH   2  19
ATOM     19  C   LIG A   1      -7.814   1.637 130.756  0.00  0.00    +0.017 C 
ATOM     20  C   LIG A   1      -8.867   1.101 131.734  0.00  0.00    +0.012 C 
ATOM     21  C   LIG A   1      -6.422   1.419 131.371  0.00  0.00    +0.012 C 
ENDBRANCH   2  19
BRANCH   1  22
ATOM     22  O   LIG A   1      -8.863   3.092 128.608  0.00  0.00    -0.422 OA
BRANCH  22  24
ATOM     23  C   LIG A   1      -6.803   4.254 128.449  0.00  0.00    +0.136 C 
ATOM     24  C   LIG A   1      -8.314   4.375 128.466  0.00  0.00    +0.309 C 
ATOM     25  O   LIG A   1      -8.930   5.410 128.378  0.00  0.00    -0.251 OA
ENDBRANCH  22  24
ENDBRANCH   1  22
BRANCH   6  26
ATOM     26  O   LIG A   1      -9.226   1.884 125.893  0.00  0.00    -0.422 OA
BRANCH  26  27
ATOM     27  C   LIG A   1      -8.404   2.857 125.316  0.00  0.00    +0.309 C 
ATOM     28  C   LIG A   1      -7.018   2.358 125.007  0.00  0.00    +0.136 C 
ATOM     29  O   LIG A   1      -8.721   4.024 125.098  0.00  0.00    -0.251 OA
ENDBRANCH  26  27
ENDBRANCH   6  26
TORSDOF 5
ENDMDL
MODEL 2
REMARK VINA RESULT:      -7.4      2.651      3.024
REMARK  Name = NuBBE_2506
REMARK  11 active torsions:
REMARK  status: ('A' for Active; 'I' for Inactive)
REMARK    1  A    between atoms: C_1  and  C_2
REMARK    2  A    between atoms: C_2  and  O_4
REMARK    3  A    between atoms: O_4  and  C_5
REMARK    4  A    between atoms: C_6  and  C_7
REMARK    5  A    between atoms: C_7  and  C_8
REMARK    6  A    between atoms: C_7  and  C_9
REMARK    7  A    between atoms: C_13  and  O_14
REMARK    8  A    between atoms: O_14  and  C_15
REMARK    9  A    between atoms: C_15  and  C_16
REMARK   10  A    between atoms: C_22  and  C_23
REMARK   11  A    between atoms: C_22  and  C_24
REMARK                            x       y       z     vdW  Elec       q    Type
REMARK                         _______ _______ _______ _____ _____    ______ ____
ROOT
ATOM      1  C   LIG A   1      -4.718   2.304 127.641  0.00  0.00    +0.177 A 
ATOM      2  C   LIG A   1      -4.734   1.580 128.862  0.00  0.00    +0.002 A 
ATOM      3  C   LIG A   1      -5.373   0.343 128.864  0.00  0.00    +0.014 A 
ATOM      4  C   LIG A   1      -5.921  -0.180 127.694  0.00  0.00    -0.011 A 
ATOM      5  C   LIG A   1      -5.887   0.500 126.441  0.00  0.00    +0.013 A 
ATOM      6  C   LIG A   1      -5.329   1.806 126.436  0.00  0.00    +0.178 A 
ATOM      7  C   LIG A   1      -6.581  -0.414 125.355  0.00  0.00    +0.026 C 
ATOM      8  C   LIG A   1      -6.719   0.145 123.926  0.00  0.00    +0.014 C 
ATOM      9  C   LIG A   1      -7.051  -0.908 122.852  0.00  0.00    +0.001 C 
ATOM     10  C   LIG A   1      -6.047  -2.056 122.853  0.00  0.00    +0.007 C 
ATOM     11  C   LIG A   1      -6.038  -2.814 124.192  0.00  0.00    -0.031 C 
ATOM     12  C   LIG A   1      -4.883  -3.848 124.144  0.00  0.00    +0.011 C 
ATOM     13  C   LIG A   1      -7.350  -3.624 124.323  0.00  0.00    +0.011 C 
ATOM     14  C   LIG A   1      -5.764  -1.789 125.351  0.00  0.00    +0.010 C 
ATOM     15  C   LIG A   1      -5.819  -2.447 126.755  0.00  0.00    +0.041 C 
ATOM     16  C   LIG A   1      -6.589  -1.537 127.700  0.00  0.00    +0.149 C 
ATOM     17  O   LIG A   1      -7.930  -1.415 127.208  0.00  0.00    -0.371 OA
ATOM     18  C   LIG A   1      -7.994  -0.671 125.977  0.00  0.00    +0.172 C 
ENDROOT
BRANCH   2  19
ATOM     19  C   LIG A   1      -4.143   2.124 130.163  0.00  0.00    +0.017 C 
ATOM     20  C   LIG A   1      -4.980   3.278 130.728  0.00  0.00    +0.012 C 
ATOM     21  C   LIG A   1      -3.982   1.057 131.259  0.00  0.00    +0.012 C 
ENDBRANCH   2  19
BRANCH   1  22
ATOM     22  O   LIG A   1      -4.195   3.645 127.815  0.00  0.00    -0.422 OA
BRANCH  22  24
ATOM     23  C   LIG A   1      -2.034   3.250 126.924  0.00  0.00    +0.136 C 
ATOM     24  C   LIG A   1      -2.969   4.271 127.543  0.00  0.00    +0.309 C 
ATOM     25  O   LIG A   1      -2.690   5.425 127.765  0.00  0.00    -0.251 OA
ENDBRANCH  22  24
ENDBRANCH   1  22
BRANCH   6  26
ATOM     26  O   LIG A   1      -5.401   2.614 125.276  0.00  0.00    -0.422 OA
BRANCH  26  27
ATOM     27  C   LIG A   1      -6.453   3.534 125.259  0.00  0.00    +0.309 C 
ATOM     28  C   LIG A   1      -6.008   4.942 124.963  0.00  0.00    +0.136 C 
ATOM     29  O   LIG A   1      -7.632   3.278 125.494  0.00  0.00    -0.251 OA
ENDBRANCH  26  27
ENDBRANCH   6  26
TORSDOF 5
ENDMDL
MODEL 3
REMARK VINA RESULT:      -7.3      2.477      4.659
REMARK  Name = NuBBE_2506
REMARK  11 active torsions:
REMARK  status: ('A' for Active; 'I' for Inactive)
REMARK    1  A    between atoms: C_1  and  C_2
REMARK    2  A    between atoms: C_2  and  O_4
REMARK    3  A    between atoms: O_4  and  C_5
REMARK    4  A    between atoms: C_6  and  C_7
REMARK    5  A    between atoms: C_7  and  C_8
REMARK    6  A    between atoms: C_7  and  C_9
REMARK    7  A    between atoms: C_13  and  O_14
REMARK    8  A    between atoms: O_14  and  C_15
REMARK    9  A    between atoms: C_15  and  C_16
REMARK   10  A    between atoms: C_22  and  C_23
REMARK   11  A    between atoms: C_22  and  C_24
REMARK                            x       y       z     vdW  Elec       q    Type
REMARK                         _______ _______ _______ _____ _____    ______ ____
ROOT
ATOM      1  C   LIG A   1      -6.595  -0.125 129.875  0.00  0.00    +0.177 A 
ATOM      2  C   LIG A   1      -7.693   0.773 129.863  0.00  0.00    +0.002 A 
ATOM      3  C   LIG A   1      -8.287   1.041 128.631  0.00  0.00    +0.014 A 
ATOM      4  C   LIG A   1      -7.848   0.403 127.473  0.00  0.00    -0.011 A 
ATOM      5  C   LIG A   1      -6.775  -0.536 127.454  0.00  0.00    +0.013 A 
ATOM      6  C   LIG A   1      -6.090  -0.750 128.680  0.00  0.00    +0.178 A 
ATOM      7  C   LIG A   1      -6.590  -1.057 125.975  0.00  0.00    +0.026 C 
ATOM      8  C   LIG A   1      -5.438  -2.042 125.697  0.00  0.00    +0.014 C 
ATOM      9  C   LIG A   1      -5.538  -2.789 124.353  0.00  0.00    +0.001 C 
ATOM     10  C   LIG A   1      -6.871  -3.514 124.206  0.00  0.00    +0.007 C 
ATOM     11  C   LIG A   1      -8.064  -2.541 124.232  0.00  0.00    -0.031 C 
ATOM     12  C   LIG A   1      -9.365  -3.385 124.236  0.00  0.00    +0.011 C 
ATOM     13  C   LIG A   1      -8.074  -1.719 122.921  0.00  0.00    +0.011 C 
ATOM     14  C   LIG A   1      -7.995  -1.695 125.555  0.00  0.00    +0.010 C 
ATOM     15  C   LIG A   1      -9.113  -0.622 125.635  0.00  0.00    +0.041 C 
ATOM     16  C   LIG A   1      -8.516   0.681 126.145  0.00  0.00    +0.149 C 
ATOM     17  O   LIG A   1      -7.536   1.123 125.197  0.00  0.00    -0.371 OA
ATOM     18  C   LIG A   1      -6.378   0.267 125.168  0.00  0.00    +0.172 C 
ENDROOT
BRANCH   2  19
ATOM     19  C   LIG A   1      -8.200   1.489 131.115  0.00  0.00    +0.017 C 
ATOM     20  C   LIG A   1      -8.638   2.926 130.808  0.00  0.00    +0.012 C 
ATOM     21  C   LIG A   1      -9.365   0.763 131.809  0.00  0.00    +0.012 C 
ENDBRANCH   2  19
BRANCH   1  22
ATOM     22  O   LIG A   1      -5.951  -0.175 131.174  0.00  0.00    -0.422 OA
BRANCH  22  24
ATOM     23  C   LIG A   1      -6.944  -1.937 132.411  0.00  0.00    +0.136 C 
ATOM     24  C   LIG A   1      -5.662  -1.193 132.095  0.00  0.00    +0.309 C 
ATOM     25  O   LIG A   1      -4.579  -1.442 132.568  0.00  0.00    -0.251 OA
ENDBRANCH  22  24
ENDBRANCH   1  22
BRANCH   6  26
ATOM     26  O   LIG A   1      -4.915  -1.539 128.719  0.00  0.00    -0.422 OA
BRANCH  26  27
ATOM     27  C   LIG A   1      -5.106  -2.869 129.102  0.00  0.00    +0.309 C 
ATOM     28  C   LIG A   1      -3.819  -3.634 129.258  0.00  0.00    +0.136 C 
ATOM     29  O   LIG A   1      -6.193  -3.418 129.268  0.00  0.00    -0.251 OA
ENDBRANCH  26  27
ENDBRANCH   6  26
TORSDOF 5
ENDMDL
MODEL 4
REMARK VINA RESULT:      -7.2      3.001      5.086
REMARK  Name = NuBBE_2506
REMARK  11 active torsions:
REMARK  status: ('A' for Active; 'I' for Inactive)
REMARK    1  A    between atoms: C_1  and  C_2
REMARK    2  A    between atoms: C_2  and  O_4
REMARK    3  A    between atoms: O_4  and  C_5
REMARK    4  A    between atoms: C_6  and  C_7
REMARK    5  A    between atoms: C_7  and  C_8
REMARK    6  A    between atoms: C_7  and  C_9
REMARK    7  A    between atoms: C_13  and  O_14
REMARK    8  A    between atoms: O_14  and  C_15
REMARK    9  A    between atoms: C_15  and  C_16
REMARK   10  A    between atoms: C_22  and  C_23
REMARK   11  A    between atoms: C_22  and  C_24
REMARK                            x       y       z     vdW  Elec       q    Type
REMARK                         _______ _______ _______ _____ _____    ______ ____
ROOT
ATOM      1  C   LIG A   1      -5.091   2.077 126.731  0.00  0.00    +0.177 A 
ATOM      2  C   LIG A   1      -4.010   2.564 127.512  0.00  0.00    +0.002 A 
ATOM      3  C   LIG A   1      -3.863   2.045 128.796  0.00  0.00    +0.014 A 
ATOM      4  C   LIG A   1      -4.714   1.045 129.264  0.00  0.00    -0.011 A 
ATOM      5  C   LIG A   1      -5.784   0.502 128.493  0.00  0.00    +0.013 A 
ATOM      6  C   LIG A   1      -6.015   1.086 127.219  0.00  0.00    +0.178 A 
ATOM      7  C   LIG A   1      -6.500  -0.617 129.347  0.00  0.00    +0.026 C 
ATOM      8  C   LIG A   1      -7.736  -1.307 128.738  0.00  0.00    +0.014 C 
ATOM      9  C   LIG A   1      -8.153  -2.615 129.435  0.00  0.00    +0.001 C 
ATOM     10  C   LIG A   1      -7.000  -3.612 129.507  0.00  0.00    +0.007 C 
ATOM     11  C   LIG A   1      -5.814  -3.064 130.321  0.00  0.00    -0.031 C 
ATOM     12  C   LIG A   1      -4.647  -4.079 130.198  0.00  0.00    +0.011 C 
ATOM     13  C   LIG A   1      -6.206  -3.020 131.817  0.00  0.00    +0.011 C 
ATOM     14  C   LIG A   1      -5.369  -1.690 129.702  0.00  0.00    +0.010 C 
ATOM     15  C   LIG A   1      -4.227  -1.015 130.508  0.00  0.00    +0.041 C 
ATOM     16  C   LIG A   1      -4.529   0.469 130.650  0.00  0.00    +0.149 C 
ATOM     17  O   LIG A   1      -5.747   0.607 131.394  0.00  0.00    -0.371 OA
ATOM     18  C   LIG A   1      -6.895   0.149 130.654  0.00  0.00    +0.172 C 
ENDROOT
BRANCH   2  19
ATOM     19  C   LIG A   1      -3.059   3.659 127.029  0.00  0.00    +0.017 C 
ATOM     20  C   LIG A   1      -2.768   4.684 128.131  0.00  0.00    +0.012 C 
ATOM     21  C   LIG A   1      -1.719   3.120 126.499  0.00  0.00    +0.012 C 
ENDBRANCH   2  19
BRANCH   1  22
ATOM     22  O   LIG A   1      -5.248   2.824 125.499  0.00  0.00    -0.422 OA
BRANCH  22  24
ATOM     23  C   LIG A   1      -5.697   4.253 123.661  0.00  0.00    +0.136 C 
ATOM     24  C   LIG A   1      -5.822   4.059 125.159  0.00  0.00    +0.309 C 
ATOM     25  O   LIG A   1      -6.329   4.846 125.922  0.00  0.00    -0.251 OA
ENDBRANCH  22  24
ENDBRANCH   1  22
BRANCH   6  26
ATOM     26  O   LIG A   1      -7.151   0.721 126.457  0.00  0.00    -0.422 OA
BRANCH  26  27
ATOM     27  C   LIG A   1      -8.236   1.597 126.554  0.00  0.00    +0.309 C 
ATOM     28  C   LIG A   1      -8.850   1.934 125.221  0.00  0.00    +0.136 C 
ATOM     29  O   LIG A   1      -8.659   2.101 127.592  0.00  0.00    -0.251 OA
ENDBRANCH  26  27
ENDBRANCH   6  26
TORSDOF 5
ENDMDL
MODEL 5
REMARK VINA RESULT:      -7.1      3.673      8.032
REMARK  Name = NuBBE_2506
REMARK  11 active torsions:
REMARK  status: ('A' for Active; 'I' for Inactive)
REMARK    1  A    between atoms: C_1  and  C_2
REMARK    2  A    between atoms: C_2  and  O_4
REMARK    3  A    between atoms: O_4  and  C_5
REMARK    4  A    between atoms: C_6  and  C_7
REMARK    5  A    between atoms: C_7  and  C_8
REMARK    6  A    between atoms: C_7  and  C_9
REMARK    7  A    between atoms: C_13  and  O_14
REMARK    8  A    between atoms: O_14  and  C_15
REMARK    9  A    between atoms: C_15  and  C_16
REMARK   10  A    between atoms: C_22  and  C_23
REMARK   11  A    between atoms: C_22  and  C_24
REMARK                            x       y       z     vdW  Elec       q    Type
REMARK                         _______ _______ _______ _____ _____    ______ ____
ROOT
ATOM      1  C   LIG A   1      -4.101   4.152 129.011  0.00  0.00    +0.177 A 
ATOM      2  C   LIG A   1      -3.629   5.420 129.442  0.00  0.00    +0.002 A 
ATOM      3  C   LIG A   1      -4.526   6.240 130.121  0.00  0.00    +0.014 A 
ATOM      4  C   LIG A   1      -5.817   5.801 130.411  0.00  0.00    -0.011 A 
ATOM      5  C   LIG A   1      -6.312   4.519 130.031  0.00  0.00    +0.013 A 
ATOM      6  C   LIG A   1      -5.448   3.704 129.252  0.00  0.00    +0.178 A 
ATOM      7  C   LIG A   1      -7.795   4.379 130.556  0.00  0.00    +0.026 C 
ATOM      8  C   LIG A   1      -8.564   3.090 130.206  0.00  0.00    +0.014 C 
ATOM      9  C   LIG A   1      -9.836   2.852 131.040  0.00  0.00    +0.001 C 
ATOM     10  C   LIG A   1      -9.546   2.879 132.537  0.00  0.00    +0.007 C 
ATOM     11  C   LIG A   1      -8.997   4.242 132.994  0.00  0.00    -0.031 C 
ATOM     12  C   LIG A   1      -8.589   4.113 134.485  0.00  0.00    +0.011 C 
ATOM     13  C   LIG A   1     -10.133   5.290 132.936  0.00  0.00    +0.011 C 
ATOM     14  C   LIG A   1      -7.723   4.585 132.140  0.00  0.00    +0.010 C 
ATOM     15  C   LIG A   1      -7.142   5.985 132.470  0.00  0.00    +0.041 C 
ATOM     16  C   LIG A   1      -6.775   6.689 131.173  0.00  0.00    +0.149 C 
ATOM     17  O   LIG A   1      -7.974   6.870 130.409  0.00  0.00    -0.371 OA
ATOM     18  C   LIG A   1      -8.503   5.622 129.919  0.00  0.00    +0.172 C 
ENDROOT
BRANCH   2  19
ATOM     19  C   LIG A   1      -2.220   5.932 129.141  0.00  0.00    +0.017 C 
ATOM     20  C   LIG A   1      -2.231   7.020 128.061  0.00  0.00    +0.012 C 
ATOM     21  C   LIG A   1      -1.487   6.480 130.377  0.00  0.00    +0.012 C 
ENDBRANCH   2  19
BRANCH   1  22
ATOM     22  O   LIG A   1      -3.140   3.478 128.160  0.00  0.00    -0.422 OA
BRANCH  22  24
ATOM     23  C   LIG A   1      -1.457   2.931 126.583  0.00  0.00    +0.136 C 
ATOM     24  C   LIG A   1      -2.843   3.508 126.789  0.00  0.00    +0.309 C 
ATOM     25  O   LIG A   1      -3.560   3.927 125.911  0.00  0.00    -0.251 OA
ENDBRANCH  22  24
ENDBRANCH   1  22
BRANCH   6  26
ATOM     26  O   LIG A   1      -5.915   2.489 128.696  0.00  0.00    -0.422 OA
BRANCH  26  27
ATOM     27  C   LIG A   1      -6.366   2.576 127.375  0.00  0.00    +0.309 C 
ATOM     28  C   LIG A   1      -5.976   1.390 126.534  0.00  0.00    +0.136 C 
ATOM     29  O   LIG A   1      -6.986   3.521 126.891  0.00  0.00    -0.251 OA
ENDBRANCH  26  27
ENDBRANCH   6  26
TORSDOF 5
ENDMDL
MODEL 6
REMARK VINA RESULT:      -6.9      3.167      4.845
REMARK  Name = NuBBE_2506
REMARK  11 active torsions:
REMARK  status: ('A' for Active; 'I' for Inactive)
REMARK    1  A    between atoms: C_1  and  C_2
REMARK    2  A    between atoms: C_2  and  O_4
REMARK    3  A    between atoms: O_4  and  C_5
REMARK    4  A    between atoms: C_6  and  C_7
REMARK    5  A    between atoms: C_7  and  C_8
REMARK    6  A    between atoms: C_7  and  C_9
REMARK    7  A    between atoms: C_13  and  O_14
REMARK    8  A    between atoms: O_14  and  C_15
REMARK    9  A    between atoms: C_15  and  C_16
REMARK   10  A    between atoms: C_22  and  C_23
REMARK   11  A    between atoms: C_22  and  C_24
REMARK                            x       y       z     vdW  Elec       q    Type
REMARK                         _______ _______ _______ _____ _____    ______ ____
ROOT
ATOM      1  C   LIG A   1      -5.434   4.969 129.038  0.00  0.00    +0.177 A 
ATOM      2  C   LIG A   1      -6.524   5.104 129.938  0.00  0.00    +0.002 A 
ATOM      3  C   LIG A   1      -7.529   4.141 129.875  0.00  0.00    +0.014 A 
ATOM      4  C   LIG A   1      -7.430   3.062 128.999  0.00  0.00    -0.011 A 
ATOM      5  C   LIG A   1      -6.331   2.872 128.110  0.00  0.00    +0.013 A 
ATOM      6  C   LIG A   1      -5.343   3.892 128.086  0.00  0.00    +0.178 A 
ATOM      7  C   LIG A   1      -6.565   1.535 127.302  0.00  0.00    +0.026 C 
ATOM      8  C   LIG A   1      -5.529   1.153 126.227  0.00  0.00    +0.014 C 
ATOM      9  C   LIG A   1      -5.605  -0.310 125.750  0.00  0.00    +0.001 C 
ATOM     10  C   LIG A   1      -5.513  -1.291 126.914  0.00  0.00    +0.007 C 
ATOM     11  C   LIG A   1      -6.674  -1.116 127.910  0.00  0.00    -0.031 C 
ATOM     12  C   LIG A   1      -6.401  -2.043 129.123  0.00  0.00    +0.011 C 
ATOM     13  C   LIG A   1      -7.982  -1.620 127.254  0.00  0.00    +0.011 C 
ATOM     14  C   LIG A   1      -6.699   0.377 128.397  0.00  0.00    +0.010 C 
ATOM     15  C   LIG A   1      -7.891   0.675 129.345  0.00  0.00    +0.041 C 
ATOM     16  C   LIG A   1      -8.514   2.007 128.957  0.00  0.00    +0.149 C 
ATOM     17  O   LIG A   1      -9.020   1.891 127.621  0.00  0.00    -0.371 OA
ATOM     18  C   LIG A   1      -7.966   1.771 126.646  0.00  0.00    +0.172 C 
ENDROOT
BRANCH   2  19
ATOM     19  C   LIG A   1      -6.662   6.274 130.911  0.00  0.00    +0.017 C 
ATOM     20  C   LIG A   1      -8.107   6.781 130.987  0.00  0.00    +0.012 C 
ATOM     21  C   LIG A   1      -6.184   5.948 132.337  0.00  0.00    +0.012 C 
ENDBRANCH   2  19
BRANCH   1  22
ATOM     22  O   LIG A   1      -4.559   6.124 129.071  0.00  0.00    -0.422 OA
BRANCH  22  24
ATOM     23  C   LIG A   1      -2.384   6.727 128.346  0.00  0.00    +0.136 C 
ATOM     24  C   LIG A   1      -3.255   6.363 129.532  0.00  0.00    +0.309 C 
ATOM     25  O   LIG A   1      -2.876   6.288 130.676  0.00  0.00    -0.251 OA
ENDBRANCH  22  24
ENDBRANCH   1  22
BRANCH   6  26
ATOM     26  O   LIG A   1      -4.307   3.866 127.122  0.00  0.00    -0.422 OA
BRANCH  26  27
ATOM     27  C   LIG A   1      -3.131   3.232 127.532  0.00  0.00    +0.309 C 
ATOM     28  C   LIG A   1      -2.038   3.277 126.498  0.00  0.00    +0.136 C 
ATOM     29  O   LIG A   1      -2.968   2.649 128.602  0.00  0.00    -0.251 OA
ENDBRANCH  26  27
ENDBRANCH   6  26
TORSDOF 5
ENDMDL
MODEL 7
REMARK VINA RESULT:      -6.9      1.823      6.153
REMARK  Name = NuBBE_2506
REMARK  11 active torsions:
REMARK  status: ('A' for Active; 'I' for Inactive)
REMARK    1  A    between atoms: C_1  and  C_2
REMARK    2  A    between atoms: C_2  and  O_4
REMARK    3  A    between atoms: O_4  and  C_5
REMARK    4  A    between atoms: C_6  and  C_7
REMARK    5  A    between atoms: C_7  and  C_8
REMARK    6  A    between atoms: C_7  and  C_9
REMARK    7  A    between atoms: C_13  and  O_14
REMARK    8  A    between atoms: O_14  and  C_15
REMARK    9  A    between atoms: C_15  and  C_16
REMARK   10  A    between atoms: C_22  and  C_23
REMARK   11  A    between atoms: C_22  and  C_24
REMARK                            x       y       z     vdW  Elec       q    Type
REMARK                         _______ _______ _______ _____ _____    ______ ____
ROOT
ATOM      1  C   LIG A   1      -8.640   0.413 125.696  0.00  0.00    +0.177 A 
ATOM      2  C   LIG A   1      -8.418  -0.933 126.089  0.00  0.00    +0.002 A 
ATOM      3  C   LIG A   1      -7.899  -1.151 127.363  0.00  0.00    +0.014 A 
ATOM      4  C   LIG A   1      -7.665  -0.085 128.230  0.00  0.00    -0.011 A 
ATOM      5  C   LIG A   1      -7.915   1.276 127.885  0.00  0.00    +0.013 A 
ATOM      6  C   LIG A   1      -8.350   1.530 126.557  0.00  0.00    +0.178 A 
ATOM      7  C   LIG A   1      -7.553   2.182 129.127  0.00  0.00    +0.026 C 
ATOM      8  C   LIG A   1      -7.685   3.709 128.966  0.00  0.00    +0.014 C 
ATOM      9  C   LIG A   1      -7.683   4.499 130.288  0.00  0.00    +0.001 C 
ATOM     10  C   LIG A   1      -8.755   3.997 131.250  0.00  0.00    +0.007 C 
ATOM     11  C   LIG A   1      -8.535   2.525 131.643  0.00  0.00    -0.031 C 
ATOM     12  C   LIG A   1      -9.754   2.072 132.487  0.00  0.00    +0.011 C 
ATOM     13  C   LIG A   1      -7.298   2.429 132.568  0.00  0.00    +0.011 C 
ATOM     14  C   LIG A   1      -8.463   1.659 130.334  0.00  0.00    +0.010 C 
ATOM     15  C   LIG A   1      -8.158   0.165 130.623  0.00  0.00    +0.041 C 
ATOM     16  C   LIG A   1      -7.127  -0.334 129.622  0.00  0.00    +0.149 C 
ATOM     17  O   LIG A   1      -5.920   0.416 129.812  0.00  0.00    -0.371 OA
ATOM     18  C   LIG A   1      -6.065   1.793 129.414  0.00  0.00    +0.172 C 
ENDROOT
BRANCH   2  19
ATOM     19  C   LIG A   1      -8.664  -2.124 125.162  0.00  0.00    +0.017 C 
ATOM     20  C   LIG A   1      -7.350  -2.775 124.714  0.00  0.00    +0.012 C 
ATOM     21  C   LIG A   1      -9.559  -3.210 125.782  0.00  0.00    +0.012 C 
ENDBRANCH   2  19
BRANCH   1  22
ATOM     22  O   LIG A   1      -8.998   0.515 124.295  0.00  0.00    -0.422 OA
BRANCH  22  24
ATOM     23  C   LIG A   1      -9.292   2.114 122.569  0.00  0.00    +0.136 C 
ATOM     24  C   LIG A   1      -9.980   1.213 123.575  0.00  0.00    +0.309 C 
ATOM     25  O   LIG A   1     -11.175   1.124 123.725  0.00  0.00    -0.251 OA
ENDBRANCH  22  24
ENDBRANCH   1  22
BRANCH   6  26
ATOM     26  O   LIG A   1      -8.466   2.858 126.081  0.00  0.00    -0.422 OA
BRANCH  26  27
ATOM     27  C   LIG A   1      -7.310   3.379 125.492  0.00  0.00    +0.309 C 
ATOM     28  C   LIG A   1      -7.304   4.883 125.423  0.00  0.00    +0.136 C 
ATOM     29  O   LIG A   1      -6.383   2.719 125.027  0.00  0.00    -0.251 OA
ENDBRANCH  26  27
ENDBRANCH   6  26
TORSDOF 5
ENDMDL
MODEL 8
REMARK VINA RESULT:      -6.9      2.415      3.582
REMARK  Name = NuBBE_2506
REMARK  11 active torsions:
REMARK  status: ('A' for Active; 'I' for Inactive)
REMARK    1  A    between atoms: C_1  and  C_2
REMARK    2  A    between atoms: C_2  and  O_4
REMARK    3  A    between atoms: O_4  and  C_5
REMARK    4  A    between atoms: C_6  and  C_7
REMARK    5  A    between atoms: C_7  and  C_8
REMARK    6  A    between atoms: C_7  and  C_9
REMARK    7  A    between atoms: C_13  and  O_14
REMARK    8  A    between atoms: O_14  and  C_15
REMARK    9  A    between atoms: C_15  and  C_16
REMARK   10  A    between atoms: C_22  and  C_23
REMARK   11  A    between atoms: C_22  and  C_24
REMARK                            x       y       z     vdW  Elec       q    Type
REMARK                         _______ _______ _______ _____ _____    ______ ____
ROOT
ATOM      1  C   LIG A   1      -6.398  -1.000 129.553  0.00  0.00    +0.177 A 
ATOM      2  C   LIG A   1      -6.618  -2.389 129.746  0.00  0.00    +0.002 A 
ATOM      3  C   LIG A   1      -7.257  -3.084 128.721  0.00  0.00    +0.014 A 
ATOM      4  C   LIG A   1      -7.610  -2.442 127.535  0.00  0.00    -0.011 A 
ATOM      5  C   LIG A   1      -7.368  -1.059 127.290  0.00  0.00    +0.013 A 
ATOM      6  C   LIG A   1      -6.808  -0.308 128.358  0.00  0.00    +0.178 A 
ATOM      7  C   LIG A   1      -7.881  -0.709 125.838  0.00  0.00    +0.026 C 
ATOM      8  C   LIG A   1      -7.780   0.757 125.373  0.00  0.00    +0.014 C 
ATOM      9  C   LIG A   1      -7.940   0.963 123.855  0.00  0.00    +0.001 C 
ATOM     10  C   LIG A   1      -6.956   0.110 123.060  0.00  0.00    +0.007 C 
ATOM     11  C   LIG A   1      -7.172  -1.395 123.301  0.00  0.00    -0.031 C 
ATOM     12  C   LIG A   1      -6.031  -2.158 122.580  0.00  0.00    +0.011 C 
ATOM     13  C   LIG A   1      -8.493  -1.832 122.624  0.00  0.00    +0.011 C 
ATOM     14  C   LIG A   1      -7.083  -1.676 124.845  0.00  0.00    +0.010 C 
ATOM     15  C   LIG A   1      -7.371  -3.159 125.198  0.00  0.00    +0.041 C 
ATOM     16  C   LIG A   1      -8.279  -3.212 126.418  0.00  0.00    +0.149 C 
ATOM     17  O   LIG A   1      -9.521  -2.582 126.077  0.00  0.00    -0.371 OA
ATOM     18  C   LIG A   1      -9.378  -1.162 125.886  0.00  0.00    +0.172 C 
ENDROOT
BRANCH   2  19
ATOM     19  C   LIG A   1      -6.243  -3.122 131.033  0.00  0.00    +0.017 C 
ATOM     20  C   LIG A   1      -7.406  -3.145 132.033  0.00  0.00    +0.012 C 
ATOM     21  C   LIG A   1      -5.772  -4.568 130.802  0.00  0.00    +0.012 C 
ENDBRANCH   2  19
BRANCH   1  22
ATOM     22  O   LIG A   1      -5.902  -0.359 130.755  0.00  0.00    -0.422 OA
BRANCH  22  24
ATOM     23  C   LIG A   1      -5.875   0.124 133.076  0.00  0.00    +0.136 C 
ATOM     24  C   LIG A   1      -6.460   0.487 131.726  0.00  0.00    +0.309 C 
ATOM     25  O   LIG A   1      -7.274   1.359 131.531  0.00  0.00    -0.251 OA
ENDBRANCH  22  24
ENDBRANCH   1  22
BRANCH   6  26
ATOM     26  O   LIG A   1      -6.684   1.099 128.261  0.00  0.00    -0.422 OA
BRANCH  26  27
ATOM     27  C   LIG A   1      -5.400   1.562 127.962  0.00  0.00    +0.309 C 
ATOM     28  C   LIG A   1      -4.836   2.474 129.018  0.00  0.00    +0.136 C 
ATOM     29  O   LIG A   1      -4.769   1.313 126.937  0.00  0.00    -0.251 OA
ENDBRANCH  26  27
ENDBRANCH   6  26
TORSDOF 5
ENDMDL
MODEL 9
REMARK VINA RESULT:      -6.9      3.153      8.080
REMARK  Name = NuBBE_2506
REMARK  11 active torsions:
REMARK  status: ('A' for Active; 'I' for Inactive)
REMARK    1  A    between atoms: C_1  and  C_2
REMARK    2  A    between atoms: C_2  and  O_4
REMARK    3  A    between atoms: O_4  and  C_5
REMARK    4  A    between atoms: C_6  and  C_7
REMARK    5  A    between atoms: C_7  and  C_8
REMARK    6  A    between atoms: C_7  and  C_9
REMARK    7  A    between atoms: C_13  and  O_14
REMARK    8  A    between atoms: O_14  and  C_15
REMARK    9  A    between atoms: C_15  and  C_16
REMARK   10  A    between atoms: C_22  and  C_23
REMARK   11  A    between atoms: C_22  and  C_24
REMARK                            x       y       z     vdW  Elec       q    Type
REMARK                         _______ _______ _______ _____ _____    ______ ____
ROOT
ATOM      1  C   LIG A   1      -7.426  -0.729 130.510  0.00  0.00    +0.177 A 
ATOM      2  C   LIG A   1      -7.425  -0.461 129.116  0.00  0.00    +0.002 A 
ATOM      3  C   LIG A   1      -7.881   0.790 128.705  0.00  0.00    +0.014 A 
ATOM      4  C   LIG A   1      -8.265   1.752 129.638  0.00  0.00    -0.011 A 
ATOM      5  C   LIG A   1      -8.240   1.532 131.046  0.00  0.00    +0.013 A 
ATOM      6  C   LIG A   1      -7.873   0.232 131.485  0.00  0.00    +0.178 A 
ATOM      7  C   LIG A   1      -8.719   2.853 131.769  0.00  0.00    +0.026 C 
ATOM      8  C   LIG A   1      -8.834   2.832 133.305  0.00  0.00    +0.014 C 
ATOM      9  C   LIG A   1      -8.937   4.221 133.963  0.00  0.00    +0.001 C 
ATOM     10  C   LIG A   1      -7.783   5.129 133.553  0.00  0.00    +0.007 C 
ATOM     11  C   LIG A   1      -7.761   5.387 132.035  0.00  0.00    -0.031 C 
ATOM     12  C   LIG A   1      -6.471   6.182 131.708  0.00  0.00    +0.011 C 
ATOM     13  C   LIG A   1      -8.951   6.302 131.661  0.00  0.00    +0.011 C 
ATOM     14  C   LIG A   1      -7.718   4.004 131.290  0.00  0.00    +0.010 C 
ATOM     15  C   LIG A   1      -7.778   4.156 129.747  0.00  0.00    +0.041 C 
ATOM     16  C   LIG A   1      -8.733   3.116 129.182  0.00  0.00    +0.149 C 
ATOM     17  O   LIG A   1     -10.040   3.377 129.710  0.00  0.00    -0.371 OA
ATOM     18  C   LIG A   1     -10.122   3.107 131.123  0.00  0.00    +0.172 C 
ENDROOT
BRANCH   2  19
ATOM     19  C   LIG A   1      -7.010  -1.493 128.068  0.00  0.00    +0.017 C 
ATOM     20  C   LIG A   1      -7.966  -1.500 126.869  0.00  0.00    +0.012 C 
ATOM     21  C   LIG A   1      -5.576  -1.296 127.546  0.00  0.00    +0.012 C 
ENDBRANCH   2  19
BRANCH   1  22
ATOM     22  O   LIG A   1      -7.112  -2.116 130.794  0.00  0.00    -0.422 OA
BRANCH  22  24
ATOM     23  C   LIG A   1      -6.094  -4.237 130.499  0.00  0.00    +0.136 C 
ATOM     24  C   LIG A   1      -5.930  -2.830 131.041  0.00  0.00    +0.309 C 
ATOM     25  O   LIG A   1      -4.943  -2.410 131.596  0.00  0.00    -0.251 OA
ENDBRANCH  22  24
ENDBRANCH   1  22
BRANCH   6  26
ATOM     26  O   LIG A   1      -7.978  -0.121 132.852  0.00  0.00    -0.422 OA
BRANCH  26  27
ATOM     27  C   LIG A   1      -6.761  -0.228 133.531  0.00  0.00    +0.309 C 
ATOM     28  C   LIG A   1      -5.775   0.848 133.161  0.00  0.00    +0.136 C 
ATOM     29  O   LIG A   1      -6.462  -1.115 134.328  0.00  0.00    -0.251 OA
ENDBRANCH  26  27
ENDBRANCH   6  26
TORSDOF 5
ENDMDL
