MODEL 1
REMARK VINA RESULT:      -6.5      0.000      0.000
REMARK  Name = NuBBE_2225
REMARK  3 active torsions:
REMARK  status: ('A' for Active; 'I' for Inactive)
REMARK    1  A    between atoms: C_3  and  C_14
REMARK    2  A    between atoms: C_4  and  O_5
REMARK    3  A    between atoms: C_9  and  C_13
REMARK                            x       y       z     vdW  Elec       q    Type
REMARK                         _______ _______ _______ _____ _____    ______ ____
ROOT
ATOM      1  C   LIG A   1     -12.583   7.479 131.541  0.00  0.00    +0.005 A 
ATOM      2  C   LIG A   1     -13.115   8.659 131.025  0.00  0.00    +0.007 A 
ATOM      3  C   LIG A   1     -12.763   9.101 129.744  0.00  0.00    -0.008 A 
ATOM      4  C   LIG A   1     -11.862   8.332 128.983  0.00  0.00    +0.134 A 
ATOM      5  C   LIG A   1     -11.306   7.142 129.497  0.00  0.00    +0.104 A 
ATOM      6  C   LIG A   1     -11.686   6.716 130.784  0.00  0.00    -0.026 A 
ATOM      7  C   LIG A   1     -11.078   5.484 131.388  0.00  0.00    +0.080 C 
ATOM      8  C   LIG A   1     -10.629   4.546 130.281  0.00  0.00    +0.178 C 
ATOM      9  O   LIG A   1      -9.791   5.247 129.350  0.00  0.00    -0.458 OA
ATOM     10  C   LIG A   1     -10.272   6.364 128.735  0.00  0.00    +0.343 C 
ATOM     11  O   LIG A   1      -9.806   6.708 127.657  0.00  0.00    -0.245 OA
ATOM     12  C   LIG A   1      -9.811   3.390 130.845  0.00  0.00    +0.052 C 
ATOM     13  C   LIG A   1     -13.348  10.393 129.240  0.00  0.00    +0.048 C 
ENDROOT
BRANCH   4  14
ATOM     14  O   LIG A   1     -11.515   8.739 127.723  0.00  0.00    -0.506 OA
ATOM     15  H   LIG A   1     -12.126   8.397 127.056  0.00  0.00    +0.292 HD
ENDBRANCH   4  14
TORSDOF 1
ENDMDL
MODEL 2
REMARK VINA RESULT:      -6.4      2.703      5.065
REMARK  Name = NuBBE_2225
REMARK  3 active torsions:
REMARK  status: ('A' for Active; 'I' for Inactive)
REMARK    1  A    between atoms: C_3  and  C_14
REMARK    2  A    between atoms: C_4  and  O_5
REMARK    3  A    between atoms: C_9  and  C_13
REMARK                            x       y       z     vdW  Elec       q    Type
REMARK                         _______ _______ _______ _____ _____    ______ ____
ROOT
ATOM      1  C   LIG A   1      -7.930   7.161 130.515  0.00  0.00    +0.005 A 
ATOM      2  C   LIG A   1      -7.404   6.519 131.633  0.00  0.00    +0.007 A 
ATOM      3  C   LIG A   1      -8.248   5.907 132.569  0.00  0.00    -0.008 A 
ATOM      4  C   LIG A   1      -9.639   5.950 132.359  0.00  0.00    +0.134 A 
ATOM      5  C   LIG A   1     -10.186   6.607 131.237  0.00  0.00    +0.104 A 
ATOM      6  C   LIG A   1      -9.313   7.205 130.308  0.00  0.00    -0.026 A 
ATOM      7  C   LIG A   1      -9.857   7.958 129.130  0.00  0.00    +0.080 C 
ATOM      8  C   LIG A   1     -11.235   7.425 128.779  0.00  0.00    +0.178 C 
ATOM      9  O   LIG A   1     -12.075   7.423 129.943  0.00  0.00    -0.458 OA
ATOM     10  C   LIG A   1     -11.671   6.743 131.052  0.00  0.00    +0.343 C 
ATOM     11  O   LIG A   1     -12.505   6.345 131.854  0.00  0.00    -0.245 OA
ATOM     12  C   LIG A   1     -11.910   8.305 127.734  0.00  0.00    +0.052 C 
ATOM     13  C   LIG A   1      -7.633   5.244 133.771  0.00  0.00    +0.048 C 
ENDROOT
BRANCH   4  14
ATOM     14  O   LIG A   1     -10.482   5.347 133.253  0.00  0.00    -0.506 OA
ATOM     15  H   LIG A   1     -11.285   5.020 132.823  0.00  0.00    +0.292 HD
ENDBRANCH   4  14
TORSDOF 1
ENDMDL
MODEL 3
REMARK VINA RESULT:      -6.3      1.094      4.303
REMARK  Name = NuBBE_2225
REMARK  3 active torsions:
REMARK  status: ('A' for Active; 'I' for Inactive)
REMARK    1  A    between atoms: C_3  and  C_14
REMARK    2  A    between atoms: C_4  and  O_5
REMARK    3  A    between atoms: C_9  and  C_13
REMARK                            x       y       z     vdW  Elec       q    Type
REMARK                         _______ _______ _______ _____ _____    ______ ____
ROOT
ATOM      1  C   LIG A   1     -11.233   6.550 131.668  0.00  0.00    +0.005 A 
ATOM      2  C   LIG A   1     -10.230   5.599 131.839  0.00  0.00    +0.007 A 
ATOM      3  C   LIG A   1      -9.443   5.186 130.756  0.00  0.00    -0.008 A 
ATOM      4  C   LIG A   1      -9.684   5.750 129.488  0.00  0.00    +0.134 A 
ATOM      5  C   LIG A   1     -10.705   6.704 129.297  0.00  0.00    +0.104 A 
ATOM      6  C   LIG A   1     -11.472   7.108 130.406  0.00  0.00    -0.026 A 
ATOM      7  C   LIG A   1     -12.601   8.082 130.236  0.00  0.00    +0.080 C 
ATOM      8  C   LIG A   1     -12.338   8.955 129.022  0.00  0.00    +0.178 C 
ATOM      9  O   LIG A   1     -12.059   8.137 127.876  0.00  0.00    -0.458 OA
ATOM     10  C   LIG A   1     -11.034   7.241 127.933  0.00  0.00    +0.343 C 
ATOM     11  O   LIG A   1     -10.492   6.876 126.899  0.00  0.00    -0.245 OA
ATOM     12  C   LIG A   1     -13.559   9.804 128.687  0.00  0.00    +0.052 C 
ATOM     13  C   LIG A   1      -8.386   4.141 130.988  0.00  0.00    +0.048 C 
ENDROOT
BRANCH   4  14
ATOM     14  O   LIG A   1      -8.919   5.370 128.418  0.00  0.00    -0.506 OA
ATOM     15  H   LIG A   1      -8.965   6.016 127.699  0.00  0.00    +0.292 HD
ENDBRANCH   4  14
TORSDOF 1
ENDMDL
MODEL 4
REMARK VINA RESULT:      -6.1      7.812      9.733
REMARK  Name = NuBBE_2225
REMARK  3 active torsions:
REMARK  status: ('A' for Active; 'I' for Inactive)
REMARK    1  A    between atoms: C_3  and  C_14
REMARK    2  A    between atoms: C_4  and  O_5
REMARK    3  A    between atoms: C_9  and  C_13
REMARK                            x       y       z     vdW  Elec       q    Type
REMARK                         _______ _______ _______ _____ _____    ______ ____
ROOT
ATOM      1  C   LIG A   1      -5.158   4.333 121.819  0.00  0.00    +0.005 A 
ATOM      2  C   LIG A   1      -5.565   4.527 120.501  0.00  0.00    +0.007 A 
ATOM      3  C   LIG A   1      -6.870   4.212 120.101  0.00  0.00    -0.008 A 
ATOM      4  C   LIG A   1      -7.766   3.696 121.057  0.00  0.00    +0.134 A 
ATOM      5  C   LIG A   1      -7.365   3.482 122.392  0.00  0.00    +0.104 A 
ATOM      6  C   LIG A   1      -6.050   3.818 122.767  0.00  0.00    -0.026 A 
ATOM      7  C   LIG A   1      -5.568   3.558 124.164  0.00  0.00    +0.080 C 
ATOM      8  C   LIG A   1      -6.750   3.562 125.117  0.00  0.00    +0.178 C 
ATOM      9  O   LIG A   1      -7.767   2.666 124.646  0.00  0.00    -0.458 OA
ATOM     10  C   LIG A   1      -8.281   2.843 123.396  0.00  0.00    +0.343 C 
ATOM     11  O   LIG A   1      -9.403   2.427 123.140  0.00  0.00    -0.245 OA
ATOM     12  C   LIG A   1      -6.333   3.086 126.504  0.00  0.00    +0.052 C 
ATOM     13  C   LIG A   1      -7.255   4.420 118.662  0.00  0.00    +0.048 C 
ENDROOT
BRANCH   4  14
ATOM     14  O   LIG A   1      -9.050   3.393 120.692  0.00  0.00    -0.506 OA
ATOM     15  H   LIG A   1      -9.634   4.160 120.768  0.00  0.00    +0.292 HD
ENDBRANCH   4  14
TORSDOF 1
ENDMDL
MODEL 5
REMARK VINA RESULT:      -5.9     10.960     11.453
REMARK  Name = NuBBE_2225
REMARK  3 active torsions:
REMARK  status: ('A' for Active; 'I' for Inactive)
REMARK    1  A    between atoms: C_3  and  C_14
REMARK    2  A    between atoms: C_4  and  O_5
REMARK    3  A    between atoms: C_9  and  C_13
REMARK                            x       y       z     vdW  Elec       q    Type
REMARK                         _______ _______ _______ _____ _____    ______ ____
ROOT
ATOM      1  C   LIG A   1      -8.638  -3.537 128.114  0.00  0.00    +0.005 A 
ATOM      2  C   LIG A   1      -7.856  -3.288 129.240  0.00  0.00    +0.007 A 
ATOM      3  C   LIG A   1      -6.633  -2.614 129.127  0.00  0.00    -0.008 A 
ATOM      4  C   LIG A   1      -6.206  -2.191 127.854  0.00  0.00    +0.134 A 
ATOM      5  C   LIG A   1      -6.981  -2.448 126.704  0.00  0.00    +0.104 A 
ATOM      6  C   LIG A   1      -8.210  -3.117 126.849  0.00  0.00    -0.026 A 
ATOM      7  C   LIG A   1      -9.039  -3.455 125.644  0.00  0.00    +0.080 C 
ATOM      8  C   LIG A   1      -8.734  -2.473 124.527  0.00  0.00    +0.178 C 
ATOM      9  O   LIG A   1      -7.319  -2.412 124.297  0.00  0.00    -0.458 OA
ATOM     10  C   LIG A   1      -6.491  -2.087 125.330  0.00  0.00    +0.343 C 
ATOM     11  O   LIG A   1      -5.396  -1.595 125.095  0.00  0.00    -0.245 OA
ATOM     12  C   LIG A   1      -9.387  -2.912 123.223  0.00  0.00    +0.052 C 
ATOM     13  C   LIG A   1      -5.816  -2.387 130.370  0.00  0.00    +0.048 C 
ENDROOT
BRANCH   4  14
ATOM     14  O   LIG A   1      -5.021  -1.519 127.722  0.00  0.00    -0.506 OA
ATOM     15  H   LIG A   1      -5.118  -0.726 127.177  0.00  0.00    +0.292 HD
ENDBRANCH   4  14
TORSDOF 1
ENDMDL
MODEL 6
REMARK VINA RESULT:      -5.6      9.087     11.098
REMARK  Name = NuBBE_2225
REMARK  3 active torsions:
REMARK  status: ('A' for Active; 'I' for Inactive)
REMARK    1  A    between atoms: C_3  and  C_14
REMARK    2  A    between atoms: C_4  and  O_5
REMARK    3  A    between atoms: C_9  and  C_13
REMARK                            x       y       z     vdW  Elec       q    Type
REMARK                         _______ _______ _______ _____ _____    ______ ____
ROOT
ATOM      1  C   LIG A   1      -6.419  -0.816 124.793  0.00  0.00    +0.005 A 
ATOM      2  C   LIG A   1      -6.699  -2.168 124.981  0.00  0.00    +0.007 A 
ATOM      3  C   LIG A   1      -7.879  -2.731 124.479  0.00  0.00    -0.008 A 
ATOM      4  C   LIG A   1      -8.781  -1.906 123.780  0.00  0.00    +0.134 A 
ATOM      5  C   LIG A   1      -8.517  -0.533 123.593  0.00  0.00    +0.104 A 
ATOM      6  C   LIG A   1      -7.318   0.003 124.099  0.00  0.00    -0.026 A 
ATOM      7  C   LIG A   1      -7.025   1.468 123.966  0.00  0.00    +0.080 C 
ATOM      8  C   LIG A   1      -7.763   2.026 122.762  0.00  0.00    +0.178 C 
ATOM      9  O   LIG A   1      -9.155   1.686 122.836  0.00  0.00    -0.458 OA
ATOM     10  C   LIG A   1      -9.515   0.376 122.932  0.00  0.00    +0.343 C 
ATOM     11  O   LIG A   1     -10.623   0.024 122.552  0.00  0.00    -0.245 OA
ATOM     12  C   LIG A   1      -7.668   3.547 122.722  0.00  0.00    +0.052 C 
ATOM     13  C   LIG A   1      -8.145  -4.191 124.727  0.00  0.00    +0.048 C 
ENDROOT
BRANCH   4  14
ATOM     14  O   LIG A   1      -9.935  -2.438 123.270  0.00  0.00    -0.506 OA
ATOM     15  H   LIG A   1      -9.766  -2.960 122.473  0.00  0.00    +0.292 HD
ENDBRANCH   4  14
TORSDOF 1
ENDMDL
MODEL 7
REMARK VINA RESULT:      -5.6     10.710     11.114
REMARK  Name = NuBBE_2225
REMARK  3 active torsions:
REMARK  status: ('A' for Active; 'I' for Inactive)
REMARK    1  A    between atoms: C_3  and  C_14
REMARK    2  A    between atoms: C_4  and  O_5
REMARK    3  A    between atoms: C_9  and  C_13
REMARK                            x       y       z     vdW  Elec       q    Type
REMARK                         _______ _______ _______ _____ _____    ______ ____
ROOT
ATOM      1  C   LIG A   1      -9.327  -3.358 125.923  0.00  0.00    +0.005 A 
ATOM      2  C   LIG A   1      -9.219  -3.060 124.566  0.00  0.00    +0.007 A 
ATOM      3  C   LIG A   1      -8.117  -2.348 124.076  0.00  0.00    -0.008 A 
ATOM      4  C   LIG A   1      -7.118  -1.937 124.978  0.00  0.00    +0.134 A 
ATOM      5  C   LIG A   1      -7.221  -2.219 126.357  0.00  0.00    +0.104 A 
ATOM      6  C   LIG A   1      -8.334  -2.946 126.819  0.00  0.00    -0.026 A 
ATOM      7  C   LIG A   1      -8.506  -3.222 128.284  0.00  0.00    +0.080 C 
ATOM      8  C   LIG A   1      -7.147  -3.227 128.962  0.00  0.00    +0.178 C 
ATOM      9  O   LIG A   1      -6.435  -2.021 128.648  0.00  0.00    -0.458 OA
ATOM     10  C   LIG A   1      -6.210  -1.704 127.342  0.00  0.00    +0.343 C 
ATOM     11  O   LIG A   1      -5.267  -0.982 127.049  0.00  0.00    -0.245 OA
ATOM     12  C   LIG A   1      -7.295  -3.284 130.478  0.00  0.00    +0.052 C 
ATOM     13  C   LIG A   1      -8.057  -2.034 122.606  0.00  0.00    +0.048 C 
ENDROOT
BRANCH   4  14
ATOM     14  O   LIG A   1      -6.026  -1.251 124.519  0.00  0.00    -0.506 OA
ATOM     15  H   LIG A   1      -5.890  -0.428 125.009  0.00  0.00    +0.292 HD
ENDBRANCH   4  14
TORSDOF 1
ENDMDL
MODEL 8
REMARK VINA RESULT:      -5.5      9.367     12.320
REMARK  Name = NuBBE_2225
REMARK  3 active torsions:
REMARK  status: ('A' for Active; 'I' for Inactive)
REMARK    1  A    between atoms: C_3  and  C_14
REMARK    2  A    between atoms: C_4  and  O_5
REMARK    3  A    between atoms: C_9  and  C_13
REMARK                            x       y       z     vdW  Elec       q    Type
REMARK                         _______ _______ _______ _____ _____    ______ ____
ROOT
ATOM      1  C   LIG A   1      -5.962  -1.368 122.987  0.00  0.00    +0.005 A 
ATOM      2  C   LIG A   1      -5.303  -2.586 123.135  0.00  0.00    +0.007 A 
ATOM      3  C   LIG A   1      -5.908  -3.647 123.821  0.00  0.00    -0.008 A 
ATOM      4  C   LIG A   1      -7.196  -3.462 124.358  0.00  0.00    +0.134 A 
ATOM      5  C   LIG A   1      -7.870  -2.230 124.226  0.00  0.00    +0.104 A 
ATOM      6  C   LIG A   1      -7.242  -1.185 123.523  0.00  0.00    -0.026 A 
ATOM      7  C   LIG A   1      -7.903   0.157 123.405  0.00  0.00    +0.080 C 
ATOM      8  C   LIG A   1      -9.408  -0.008 123.515  0.00  0.00    +0.178 C 
ATOM      9  O   LIG A   1      -9.739  -0.749 124.698  0.00  0.00    -0.458 OA
ATOM     10  C   LIG A   1      -9.203  -1.989 124.876  0.00  0.00    +0.343 C 
ATOM     11  O   LIG A   1      -9.780  -2.800 125.588  0.00  0.00    -0.245 OA
ATOM     12  C   LIG A   1     -10.098   1.347 123.621  0.00  0.00    +0.052 C 
ATOM     13  C   LIG A   1      -5.147  -4.936 123.973  0.00  0.00    +0.048 C 
ENDROOT
BRANCH   4  14
ATOM     14  O   LIG A   1      -7.812  -4.490 125.020  0.00  0.00    -0.506 OA
ATOM     15  H   LIG A   1      -7.290  -4.790 125.778  0.00  0.00    +0.292 HD
ENDBRANCH   4  14
TORSDOF 1
ENDMDL
MODEL 9
REMARK VINA RESULT:      -5.4     10.962     11.264
REMARK  Name = NuBBE_2225
REMARK  3 active torsions:
REMARK  status: ('A' for Active; 'I' for Inactive)
REMARK    1  A    between atoms: C_3  and  C_14
REMARK    2  A    between atoms: C_4  and  O_5
REMARK    3  A    between atoms: C_9  and  C_13
REMARK                            x       y       z     vdW  Elec       q    Type
REMARK                         _______ _______ _______ _____ _____    ______ ____
ROOT
ATOM      1  C   LIG A   1      -6.183  -1.623 125.612  0.00  0.00    +0.005 A 
ATOM      2  C   LIG A   1      -6.950  -1.506 124.455  0.00  0.00    +0.007 A 
ATOM      3  C   LIG A   1      -8.257  -2.010 124.409  0.00  0.00    -0.008 A 
ATOM      4  C   LIG A   1      -8.783  -2.638 125.555  0.00  0.00    +0.134 A 
ATOM      5  C   LIG A   1      -8.013  -2.775 126.729  0.00  0.00    +0.104 A 
ATOM      6  C   LIG A   1      -6.707  -2.249 126.749  0.00  0.00    -0.026 A 
ATOM      7  C   LIG A   1      -5.838  -2.420 127.960  0.00  0.00    +0.080 C 
ATOM      8  C   LIG A   1      -6.710  -2.573 129.193  0.00  0.00    +0.178 C 
ATOM      9  O   LIG A   1      -7.679  -3.612 128.986  0.00  0.00    -0.458 OA
ATOM     10  C   LIG A   1      -8.528  -3.526 127.924  0.00  0.00    +0.343 C 
ATOM     11  O   LIG A   1      -9.607  -4.102 127.964  0.00  0.00    -0.245 OA
ATOM     12  C   LIG A   1      -5.876  -2.967 130.406  0.00  0.00    +0.052 C 
ATOM     13  C   LIG A   1      -9.037  -1.878 123.130  0.00  0.00    +0.048 C 
ENDROOT
BRANCH   4  14
ATOM     14  O   LIG A   1     -10.061  -3.126 125.536  0.00  0.00    -0.506 OA
ATOM     15  H   LIG A   1     -10.712  -2.419 125.425  0.00  0.00    +0.292 HD
ENDBRANCH   4  14
TORSDOF 1
ENDMDL
