MODEL 1
REMARK VINA RESULT:      -8.6      0.000      0.000
REMARK  Name = NuBBE_1410
REMARK  6 active torsions:
REMARK  status: ('A' for Active; 'I' for Inactive)
REMARK    1  A    between atoms: C_15  and  C_18
REMARK    2  A    between atoms: C_15  and  C_19
REMARK    3  A    between atoms: C_25  and  O_30
REMARK    4  A    between atoms: C_26  and  O_28
REMARK    5  A    between atoms: O_28  and  C_29
REMARK    6  A    between atoms: O_30  and  C_31
REMARK                            x       y       z     vdW  Elec       q    Type
REMARK                         _______ _______ _______ _____ _____    ______ ____
ROOT
ATOM      1  O   LIG A   1      -4.941   6.951 129.936  0.00  0.00    -0.283 OA
ATOM      2  C   LIG A   1      -5.239   6.476 131.030  0.00  0.00    +0.254 C 
ATOM      3  C   LIG A   1      -6.555   5.755 131.328  0.00  0.00    +0.355 C 
ATOM      4  O   LIG A   1      -7.532   6.228 130.404  0.00  0.00    -0.441 OA
ATOM      5  C   LIG A   1      -8.632   5.420 130.336  0.00  0.00    +0.150 A 
ATOM      6  C   LIG A   1      -9.855   5.983 129.944  0.00  0.00    +0.059 A 
ATOM      7  C   LIG A   1     -10.997   5.174 129.909  0.00  0.00    +0.132 A 
ATOM      8  C   LIG A   1     -10.915   3.814 130.211  0.00  0.00    +0.047 A 
ATOM      9  C   LIG A   1      -9.693   3.256 130.583  0.00  0.00    +0.022 A 
ATOM     10  C   LIG A   1      -8.555   4.067 130.654  0.00  0.00    +0.102 A 
ATOM     11  C   LIG A   1      -7.263   3.482 131.050  0.00  0.00    +0.346 C 
ATOM     12  O   LIG A   1      -7.121   2.280 131.207  0.00  0.00    -0.245 OA
ATOM     13  O   LIG A   1      -6.254   4.357 131.225  0.00  0.00    -0.408 OA
ATOM     14  O   LIG A   1     -12.239   5.636 129.567  0.00  0.00    -0.481 OA
ATOM     15  C   LIG A   1     -12.458   7.064 129.623  0.00  0.00    +0.123 C 
ATOM     16  C   LIG A   1     -11.210   7.895 129.438  0.00  0.00    +0.020 C 
ATOM     17  C   LIG A   1      -9.980   7.391 129.579  0.00  0.00    +0.015 C 
ATOM     18  C   LIG A   1     -13.451   7.378 128.498  0.00  0.00    +0.060 C 
ATOM     19  C   LIG A   1     -13.101   7.382 130.979  0.00  0.00    +0.060 C 
ATOM     20  C   LIG A   1      -6.943   6.153 132.761  0.00  0.00    +0.331 C 
ATOM     21  O   LIG A   1      -5.966   5.782 133.739  0.00  0.00    -0.483 OA
ATOM     22  C   LIG A   1      -4.703   6.216 133.436  0.00  0.00    +0.135 A 
ATOM     23  C   LIG A   1      -4.290   6.580 132.159  0.00  0.00    +0.071 A 
ATOM     24  C   LIG A   1      -2.987   7.039 131.953  0.00  0.00    +0.064 A 
ATOM     25  C   LIG A   1      -2.088   7.126 133.024  0.00  0.00    +0.162 A 
ATOM     26  C   LIG A   1      -2.483   6.696 134.303  0.00  0.00    +0.165 A 
ATOM     27  C   LIG A   1      -3.802   6.261 134.499  0.00  0.00    +0.095 A 
ENDROOT
BRANCH  26  28
ATOM     28  O   LIG A   1      -1.571   6.744 135.323  0.00  0.00    -0.491 OA
ATOM     29  C   LIG A   1      -1.876   7.623 136.401  0.00  0.00    +0.277 C 
ENDBRANCH  26  28
BRANCH  25  30
ATOM     30  O   LIG A   1      -0.850   7.584 132.654  0.00  0.00    -0.491 OA
ATOM     31  C   LIG A   1      -0.478   8.875 133.121  0.00  0.00    +0.277 C 
ENDBRANCH  25  30
TORSDOF 2
ENDMDL
MODEL 2
REMARK VINA RESULT:      -8.5      4.990      7.135
REMARK  Name = NuBBE_1410
REMARK  6 active torsions:
REMARK  status: ('A' for Active; 'I' for Inactive)
REMARK    1  A    between atoms: C_15  and  C_18
REMARK    2  A    between atoms: C_15  and  C_19
REMARK    3  A    between atoms: C_25  and  O_30
REMARK    4  A    between atoms: C_26  and  O_28
REMARK    5  A    between atoms: O_28  and  C_29
REMARK    6  A    between atoms: O_30  and  C_31
REMARK                            x       y       z     vdW  Elec       q    Type
REMARK                         _______ _______ _______ _____ _____    ______ ____
ROOT
ATOM      1  O   LIG A   1      -9.737   3.113 129.677  0.00  0.00    -0.283 OA
ATOM      2  C   LIG A   1      -8.605   3.474 129.361  0.00  0.00    +0.254 C 
ATOM      3  C   LIG A   1      -7.996   3.284 127.971  0.00  0.00    +0.355 C 
ATOM      4  O   LIG A   1      -8.650   2.178 127.354  0.00  0.00    -0.441 OA
ATOM      5  C   LIG A   1      -8.449   2.130 126.003  0.00  0.00    +0.150 A 
ATOM      6  C   LIG A   1      -8.526   0.887 125.358  0.00  0.00    +0.059 A 
ATOM      7  C   LIG A   1      -8.282   0.819 123.980  0.00  0.00    +0.132 A 
ATOM      8  C   LIG A   1      -8.015   1.976 123.247  0.00  0.00    +0.047 A 
ATOM      9  C   LIG A   1      -7.955   3.211 123.892  0.00  0.00    +0.022 A 
ATOM     10  C   LIG A   1      -8.163   3.281 125.274  0.00  0.00    +0.102 A 
ATOM     11  C   LIG A   1      -8.099   4.582 125.959  0.00  0.00    +0.346 C 
ATOM     12  O   LIG A   1      -7.985   5.630 125.343  0.00  0.00    -0.245 OA
ATOM     13  O   LIG A   1      -8.174   4.539 127.303  0.00  0.00    -0.408 OA
ATOM     14  O   LIG A   1      -8.308  -0.348 123.267  0.00  0.00    -0.481 OA
ATOM     15  C   LIG A   1      -8.194  -1.585 124.006  0.00  0.00    +0.123 C 
ATOM     16  C   LIG A   1      -8.677  -1.504 125.435  0.00  0.00    +0.020 C 
ATOM     17  C   LIG A   1      -8.845  -0.343 126.076  0.00  0.00    +0.015 C 
ATOM     18  C   LIG A   1      -9.040  -2.608 123.239  0.00  0.00    +0.060 C 
ATOM     19  C   LIG A   1      -6.721  -2.011 123.976  0.00  0.00    +0.060 C 
ATOM     20  C   LIG A   1      -6.509   2.962 128.198  0.00  0.00    +0.331 C 
ATOM     21  O   LIG A   1      -5.803   3.997 128.891  0.00  0.00    -0.483 OA
ATOM     22  C   LIG A   1      -6.405   4.378 130.059  0.00  0.00    +0.135 A 
ATOM     23  C   LIG A   1      -7.743   4.145 130.358  0.00  0.00    +0.071 A 
ATOM     24  C   LIG A   1      -8.261   4.546 131.591  0.00  0.00    +0.064 A 
ATOM     25  C   LIG A   1      -7.444   5.191 132.529  0.00  0.00    +0.162 A 
ATOM     26  C   LIG A   1      -6.108   5.486 132.202  0.00  0.00    +0.165 A 
ATOM     27  C   LIG A   1      -5.596   5.056 130.970  0.00  0.00    +0.095 A 
ENDROOT
BRANCH  26  28
ATOM     28  O   LIG A   1      -5.343   6.162 133.115  0.00  0.00    -0.491 OA
ATOM     29  C   LIG A   1      -4.513   5.366 133.954  0.00  0.00    +0.277 C 
ENDBRANCH  26  28
BRANCH  25  30
ATOM     30  O   LIG A   1      -8.105   5.528 133.681  0.00  0.00    -0.491 OA
ATOM     31  C   LIG A   1      -8.166   4.535 134.699  0.00  0.00    +0.277 C 
ENDBRANCH  25  30
TORSDOF 2
ENDMDL
MODEL 3
REMARK VINA RESULT:      -8.4      4.418      9.097
REMARK  Name = NuBBE_1410
REMARK  6 active torsions:
REMARK  status: ('A' for Active; 'I' for Inactive)
REMARK    1  A    between atoms: C_15  and  C_18
REMARK    2  A    between atoms: C_15  and  C_19
REMARK    3  A    between atoms: C_25  and  O_30
REMARK    4  A    between atoms: C_26  and  O_28
REMARK    5  A    between atoms: O_28  and  C_29
REMARK    6  A    between atoms: O_30  and  C_31
REMARK                            x       y       z     vdW  Elec       q    Type
REMARK                         _______ _______ _______ _____ _____    ______ ____
ROOT
ATOM      1  O   LIG A   1      -7.260   5.220 125.893  0.00  0.00    -0.283 OA
ATOM      2  C   LIG A   1      -7.551   4.216 126.541  0.00  0.00    +0.254 C 
ATOM      3  C   LIG A   1      -7.374   4.085 128.054  0.00  0.00    +0.355 C 
ATOM      4  O   LIG A   1      -6.343   4.985 128.454  0.00  0.00    -0.441 OA
ATOM      5  C   LIG A   1      -6.335   5.217 129.801  0.00  0.00    +0.150 A 
ATOM      6  C   LIG A   1      -5.128   5.591 130.409  0.00  0.00    +0.059 A 
ATOM      7  C   LIG A   1      -5.098   5.792 131.795  0.00  0.00    +0.132 A 
ATOM      8  C   LIG A   1      -6.261   5.672 132.556  0.00  0.00    +0.047 A 
ATOM      9  C   LIG A   1      -7.461   5.316 131.943  0.00  0.00    +0.022 A 
ATOM     10  C   LIG A   1      -7.491   5.080 130.564  0.00  0.00    +0.102 A 
ATOM     11  C   LIG A   1      -8.756   4.701 129.913  0.00  0.00    +0.346 C 
ATOM     12  O   LIG A   1      -9.816   4.700 130.518  0.00  0.00    -0.245 OA
ATOM     13  O   LIG A   1      -8.664   4.359 128.613  0.00  0.00    -0.408 OA
ATOM     14  O   LIG A   1      -3.965   6.132 132.483  0.00  0.00    -0.481 OA
ATOM     15  C   LIG A   1      -2.695   5.895 131.836  0.00  0.00    +0.123 C 
ATOM     16  C   LIG A   1      -2.753   5.904 130.326  0.00  0.00    +0.020 C 
ATOM     17  C   LIG A   1      -3.896   5.770 129.647  0.00  0.00    +0.015 C 
ATOM     18  C   LIG A   1      -1.766   7.017 132.316  0.00  0.00    +0.060 C 
ATOM     19  C   LIG A   1      -2.166   4.543 132.331  0.00  0.00    +0.060 C 
ATOM     20  C   LIG A   1      -6.937   2.632 128.307  0.00  0.00    +0.331 C 
ATOM     21  O   LIG A   1      -7.890   1.665 127.854  0.00  0.00    -0.483 OA
ATOM     22  C   LIG A   1      -8.266   1.843 126.550  0.00  0.00    +0.135 A 
ATOM     23  C   LIG A   1      -8.118   3.036 125.852  0.00  0.00    +0.071 A 
ATOM     24  C   LIG A   1      -8.505   3.113 124.513  0.00  0.00    +0.064 A 
ATOM     25  C   LIG A   1      -9.051   1.995 123.867  0.00  0.00    +0.162 A 
ATOM     26  C   LIG A   1      -9.262   0.808 124.589  0.00  0.00    +0.165 A 
ATOM     27  C   LIG A   1      -8.846   0.739 125.927  0.00  0.00    +0.095 A 
ENDROOT
BRANCH  26  28
ATOM     28  O   LIG A   1      -9.844  -0.255 123.950  0.00  0.00    -0.491 OA
ATOM     29  C   LIG A   1      -8.957  -1.192 123.350  0.00  0.00    +0.277 C 
ENDBRANCH  26  28
BRANCH  25  30
ATOM     30  O   LIG A   1      -9.388   2.237 122.561  0.00  0.00    -0.491 OA
ATOM     31  C   LIG A   1      -8.578   3.167 121.851  0.00  0.00    +0.277 C 
ENDBRANCH  25  30
TORSDOF 2
ENDMDL
MODEL 4
REMARK VINA RESULT:      -8.2      3.610      6.975
REMARK  Name = NuBBE_1410
REMARK  6 active torsions:
REMARK  status: ('A' for Active; 'I' for Inactive)
REMARK    1  A    between atoms: C_15  and  C_18
REMARK    2  A    between atoms: C_15  and  C_19
REMARK    3  A    between atoms: C_25  and  O_30
REMARK    4  A    between atoms: C_26  and  O_28
REMARK    5  A    between atoms: O_28  and  C_29
REMARK    6  A    between atoms: O_30  and  C_31
REMARK                            x       y       z     vdW  Elec       q    Type
REMARK                         _______ _______ _______ _____ _____    ______ ____
ROOT
ATOM      1  O   LIG A   1      -9.056   0.600 131.849  0.00  0.00    -0.283 OA
ATOM      2  C   LIG A   1      -8.177   0.910 131.047  0.00  0.00    +0.254 C 
ATOM      3  C   LIG A   1      -7.844   2.348 130.645  0.00  0.00    +0.355 C 
ATOM      4  O   LIG A   1      -9.011   3.141 130.850  0.00  0.00    -0.441 OA
ATOM      5  C   LIG A   1      -8.745   4.481 130.865  0.00  0.00    +0.150 A 
ATOM      6  C   LIG A   1      -9.766   5.371 130.503  0.00  0.00    +0.059 A 
ATOM      7  C   LIG A   1      -9.494   6.745 130.476  0.00  0.00    +0.132 A 
ATOM      8  C   LIG A   1      -8.240   7.229 130.851  0.00  0.00    +0.047 A 
ATOM      9  C   LIG A   1      -7.234   6.340 131.226  0.00  0.00    +0.022 A 
ATOM     10  C   LIG A   1      -7.489   4.964 131.221  0.00  0.00    +0.102 A 
ATOM     11  C   LIG A   1      -6.428   4.021 131.614  0.00  0.00    +0.346 C 
ATOM     12  O   LIG A   1      -5.359   4.405 132.061  0.00  0.00    -0.245 OA
ATOM     13  O   LIG A   1      -6.716   2.716 131.449  0.00  0.00    -0.408 OA
ATOM     14  O   LIG A   1     -10.415   7.689 130.110  0.00  0.00    -0.481 OA
ATOM     15  C   LIG A   1     -11.567   7.243 129.361  0.00  0.00    +0.123 C 
ATOM     16  C   LIG A   1     -11.945   5.798 129.598  0.00  0.00    +0.020 C 
ATOM     17  C   LIG A   1     -11.105   4.913 130.144  0.00  0.00    +0.015 C 
ATOM     18  C   LIG A   1     -12.725   8.149 129.796  0.00  0.00    +0.060 C 
ATOM     19  C   LIG A   1     -11.269   7.467 127.873  0.00  0.00    +0.060 C 
ATOM     20  C   LIG A   1      -7.490   2.300 129.150  0.00  0.00    +0.331 C 
ATOM     21  O   LIG A   1      -6.374   1.453 128.856  0.00  0.00    -0.483 OA
ATOM     22  C   LIG A   1      -6.501   0.191 129.369  0.00  0.00    +0.135 A 
ATOM     23  C   LIG A   1      -7.359  -0.145 130.411  0.00  0.00    +0.071 A 
ATOM     24  C   LIG A   1      -7.440  -1.469 130.848  0.00  0.00    +0.064 A 
ATOM     25  C   LIG A   1      -6.655  -2.463 130.249  0.00  0.00    +0.162 A 
ATOM     26  C   LIG A   1      -5.739  -2.114 129.240  0.00  0.00    +0.165 A 
ATOM     27  C   LIG A   1      -5.686  -0.785 128.796  0.00  0.00    +0.095 A 
ENDROOT
BRANCH  26  28
ATOM     28  O   LIG A   1      -4.947  -3.095 128.705  0.00  0.00    -0.491 OA
ATOM     29  C   LIG A   1      -3.668  -3.270 129.305  0.00  0.00    +0.277 C 
ENDBRANCH  26  28
BRANCH  25  30
ATOM     30  O   LIG A   1      -6.843  -3.704 130.798  0.00  0.00    -0.491 OA
ATOM     31  C   LIG A   1      -6.183  -3.967 132.031  0.00  0.00    +0.277 C 
ENDBRANCH  25  30
TORSDOF 2
ENDMDL
MODEL 5
REMARK VINA RESULT:      -8.2      4.282      7.199
REMARK  Name = NuBBE_1410
REMARK  6 active torsions:
REMARK  status: ('A' for Active; 'I' for Inactive)
REMARK    1  A    between atoms: C_15  and  C_18
REMARK    2  A    between atoms: C_15  and  C_19
REMARK    3  A    between atoms: C_25  and  O_30
REMARK    4  A    between atoms: C_26  and  O_28
REMARK    5  A    between atoms: O_28  and  C_29
REMARK    6  A    between atoms: O_30  and  C_31
REMARK                            x       y       z     vdW  Elec       q    Type
REMARK                         _______ _______ _______ _____ _____    ______ ____
ROOT
ATOM      1  O   LIG A   1      -8.562  -0.746 132.314  0.00  0.00    -0.283 OA
ATOM      2  C   LIG A   1      -7.479  -0.196 132.121  0.00  0.00    +0.254 C 
ATOM      3  C   LIG A   1      -7.220   1.296 132.336  0.00  0.00    +0.355 C 
ATOM      4  O   LIG A   1      -8.465   1.980 132.204  0.00  0.00    -0.441 OA
ATOM      5  C   LIG A   1      -8.429   3.247 132.714  0.00  0.00    +0.150 A 
ATOM      6  C   LIG A   1      -9.314   4.203 132.195  0.00  0.00    +0.059 A 
ATOM      7  C   LIG A   1      -9.261   5.515 132.681  0.00  0.00    +0.132 A 
ATOM      8  C   LIG A   1      -8.375   5.860 133.703  0.00  0.00    +0.047 A 
ATOM      9  C   LIG A   1      -7.508   4.901 134.226  0.00  0.00    +0.022 A 
ATOM     10  C   LIG A   1      -7.533   3.597 133.720  0.00  0.00    +0.102 A 
ATOM     11  C   LIG A   1      -6.618   2.581 134.268  0.00  0.00    +0.346 C 
ATOM     12  O   LIG A   1      -5.912   2.807 135.238  0.00  0.00    -0.245 OA
ATOM     13  O   LIG A   1      -6.613   1.394 133.630  0.00  0.00    -0.408 OA
ATOM     14  O   LIG A   1     -10.063   6.524 132.220  0.00  0.00    -0.481 OA
ATOM     15  C   LIG A   1     -10.704   6.334 130.939  0.00  0.00    +0.123 C 
ATOM     16  C   LIG A   1     -10.931   4.888 130.563  0.00  0.00    +0.020 C 
ATOM     17  C   LIG A   1     -10.287   3.878 131.156  0.00  0.00    +0.015 C 
ATOM     18  C   LIG A   1     -12.054   7.054 131.037  0.00  0.00    +0.060 C 
ATOM     19  C   LIG A   1      -9.833   7.019 129.878  0.00  0.00    +0.060 C 
ATOM     20  C   LIG A   1      -6.257   1.726 131.218  0.00  0.00    +0.331 C 
ATOM     21  O   LIG A   1      -5.012   1.019 131.236  0.00  0.00    -0.483 OA
ATOM     22  C   LIG A   1      -5.161  -0.342 131.259  0.00  0.00    +0.135 A 
ATOM     23  C   LIG A   1      -6.323  -0.993 131.658  0.00  0.00    +0.071 A 
ATOM     24  C   LIG A   1      -6.390  -2.387 131.618  0.00  0.00    +0.064 A 
ATOM     25  C   LIG A   1      -5.288  -3.137 131.188  0.00  0.00    +0.162 A 
ATOM     26  C   LIG A   1      -4.090  -2.485 130.847  0.00  0.00    +0.165 A 
ATOM     27  C   LIG A   1      -4.046  -1.083 130.868  0.00  0.00    +0.095 A 
ENDROOT
BRANCH  26  28
ATOM     28  O   LIG A   1      -3.011  -3.243 130.477  0.00  0.00    -0.491 OA
ATOM     29  C   LIG A   1      -2.925  -3.588 129.099  0.00  0.00    +0.277 C 
ENDBRANCH  26  28
BRANCH  25  30
ATOM     30  O   LIG A   1      -5.510  -4.490 131.218  0.00  0.00    -0.491 OA
ATOM     31  C   LIG A   1      -5.228  -5.158 132.442  0.00  0.00    +0.277 C 
ENDBRANCH  25  30
TORSDOF 2
ENDMDL
MODEL 6
REMARK VINA RESULT:      -8.2      7.916      9.516
REMARK  Name = NuBBE_1410
REMARK  6 active torsions:
REMARK  status: ('A' for Active; 'I' for Inactive)
REMARK    1  A    between atoms: C_15  and  C_18
REMARK    2  A    between atoms: C_15  and  C_19
REMARK    3  A    between atoms: C_25  and  O_30
REMARK    4  A    between atoms: C_26  and  O_28
REMARK    5  A    between atoms: O_28  and  C_29
REMARK    6  A    between atoms: O_30  and  C_31
REMARK                            x       y       z     vdW  Elec       q    Type
REMARK                         _______ _______ _______ _____ _____    ______ ____
ROOT
ATOM      1  O   LIG A   1      -4.515  -2.910 128.546  0.00  0.00    -0.283 OA
ATOM      2  C   LIG A   1      -5.616  -2.655 129.031  0.00  0.00    +0.254 C 
ATOM      3  C   LIG A   1      -6.722  -1.890 128.302  0.00  0.00    +0.355 C 
ATOM      4  O   LIG A   1      -6.107  -1.064 127.316  0.00  0.00    -0.441 OA
ATOM      5  C   LIG A   1      -6.992  -0.608 126.379  0.00  0.00    +0.150 A 
ATOM      6  C   LIG A   1      -6.704   0.593 125.715  0.00  0.00    +0.059 A 
ATOM      7  C   LIG A   1      -7.623   1.091 124.782  0.00  0.00    +0.132 A 
ATOM      8  C   LIG A   1      -8.785   0.381 124.479  0.00  0.00    +0.047 A 
ATOM      9  C   LIG A   1      -9.057  -0.821 125.131  0.00  0.00    +0.022 A 
ATOM     10  C   LIG A   1      -8.160  -1.306 126.089  0.00  0.00    +0.102 A 
ATOM     11  C   LIG A   1      -8.445  -2.574 126.783  0.00  0.00    +0.346 C 
ATOM     12  O   LIG A   1      -9.385  -3.285 126.465  0.00  0.00    -0.245 OA
ATOM     13  O   LIG A   1      -7.602  -2.895 127.783  0.00  0.00    -0.408 OA
ATOM     14  O   LIG A   1      -7.445   2.266 124.103  0.00  0.00    -0.481 OA
ATOM     15  C   LIG A   1      -6.491   3.210 124.639  0.00  0.00    +0.123 C 
ATOM     16  C   LIG A   1      -5.392   2.583 125.466  0.00  0.00    +0.020 C 
ATOM     17  C   LIG A   1      -5.481   1.348 125.969  0.00  0.00    +0.015 C 
ATOM     18  C   LIG A   1      -5.876   3.916 123.426  0.00  0.00    +0.060 C 
ATOM     19  C   LIG A   1      -7.268   4.225 125.486  0.00  0.00    +0.060 C 
ATOM     20  C   LIG A   1      -7.411  -1.021 129.367  0.00  0.00    +0.331 C 
ATOM     21  O   LIG A   1      -7.983  -1.779 130.438  0.00  0.00    -0.483 OA
ATOM     22  C   LIG A   1      -7.102  -2.654 131.014  0.00  0.00    +0.135 A 
ATOM     23  C   LIG A   1      -5.937  -3.105 130.402  0.00  0.00    +0.071 A 
ATOM     24  C   LIG A   1      -5.085  -3.976 131.083  0.00  0.00    +0.064 A 
ATOM     25  C   LIG A   1      -5.398  -4.408 132.378  0.00  0.00    +0.162 A 
ATOM     26  C   LIG A   1      -6.607  -4.006 132.974  0.00  0.00    +0.165 A 
ATOM     27  C   LIG A   1      -7.441  -3.112 132.287  0.00  0.00    +0.095 A 
ENDROOT
BRANCH  26  28
ATOM     28  O   LIG A   1      -6.915  -4.481 134.221  0.00  0.00    -0.491 OA
ATOM     29  C   LIG A   1      -8.145  -4.033 134.780  0.00  0.00    +0.277 C 
ENDBRANCH  26  28
BRANCH  25  30
ATOM     30  O   LIG A   1      -4.467  -5.266 132.902  0.00  0.00    -0.491 OA
ATOM     31  C   LIG A   1      -3.250  -4.689 133.362  0.00  0.00    +0.277 C 
ENDBRANCH  25  30
TORSDOF 2
ENDMDL
MODEL 7
REMARK VINA RESULT:      -8.1      5.441      9.387
REMARK  Name = NuBBE_1410
REMARK  6 active torsions:
REMARK  status: ('A' for Active; 'I' for Inactive)
REMARK    1  A    between atoms: C_15  and  C_18
REMARK    2  A    between atoms: C_15  and  C_19
REMARK    3  A    between atoms: C_25  and  O_30
REMARK    4  A    between atoms: C_26  and  O_28
REMARK    5  A    between atoms: O_28  and  C_29
REMARK    6  A    between atoms: O_30  and  C_31
REMARK                            x       y       z     vdW  Elec       q    Type
REMARK                         _______ _______ _______ _____ _____    ______ ____
ROOT
ATOM      1  O   LIG A   1     -10.088   0.459 131.848  0.00  0.00    -0.283 OA
ATOM      2  C   LIG A   1      -8.994   0.799 131.401  0.00  0.00    +0.254 C 
ATOM      3  C   LIG A   1      -7.829  -0.160 131.152  0.00  0.00    +0.355 C 
ATOM      4  O   LIG A   1      -7.990  -1.280 132.020  0.00  0.00    -0.441 OA
ATOM      5  C   LIG A   1      -7.226  -2.351 131.651  0.00  0.00    +0.150 A 
ATOM      6  C   LIG A   1      -6.841  -3.271 132.637  0.00  0.00    +0.059 A 
ATOM      7  C   LIG A   1      -6.025  -4.351 132.278  0.00  0.00    +0.132 A 
ATOM      8  C   LIG A   1      -5.638  -4.541 130.951  0.00  0.00    +0.047 A 
ATOM      9  C   LIG A   1      -6.037  -3.631 129.973  0.00  0.00    +0.022 A 
ATOM     10  C   LIG A   1      -6.824  -2.531 130.330  0.00  0.00    +0.102 A 
ATOM     11  C   LIG A   1      -7.245  -1.566 129.301  0.00  0.00    +0.346 C 
ATOM     12  O   LIG A   1      -7.031  -1.756 128.114  0.00  0.00    -0.245 OA
ATOM     13  O   LIG A   1      -7.882  -0.469 129.754  0.00  0.00    -0.408 OA
ATOM     14  O   LIG A   1      -5.575  -5.286 133.171  0.00  0.00    -0.481 OA
ATOM     15  C   LIG A   1      -5.613  -4.941 134.574  0.00  0.00    +0.123 C 
ATOM     16  C   LIG A   1      -6.668  -3.921 134.937  0.00  0.00    +0.020 C 
ATOM     17  C   LIG A   1      -7.257  -3.137 134.029  0.00  0.00    +0.015 C 
ATOM     18  C   LIG A   1      -5.894  -6.252 135.318  0.00  0.00    +0.060 C 
ATOM     19  C   LIG A   1      -4.225  -4.417 134.962  0.00  0.00    +0.060 C 
ATOM     20  C   LIG A   1      -6.553   0.616 131.519  0.00  0.00    +0.331 C 
ATOM     21  O   LIG A   1      -6.367   1.804 130.742  0.00  0.00    -0.483 OA
ATOM     22  C   LIG A   1      -7.459   2.629 130.741  0.00  0.00    +0.135 A 
ATOM     23  C   LIG A   1      -8.748   2.217 131.062  0.00  0.00    +0.071 A 
ATOM     24  C   LIG A   1      -9.795   3.140 131.061  0.00  0.00    +0.064 A 
ATOM     25  C   LIG A   1      -9.558   4.481 130.730  0.00  0.00    +0.162 A 
ATOM     26  C   LIG A   1      -8.269   4.886 130.341  0.00  0.00    +0.165 A 
ATOM     27  C   LIG A   1      -7.223   3.952 130.370  0.00  0.00    +0.095 A 
ENDROOT
BRANCH  26  28
ATOM     28  O   LIG A   1      -8.073   6.190 129.973  0.00  0.00    -0.491 OA
ATOM     29  C   LIG A   1      -7.396   7.016 130.914  0.00  0.00    +0.277 C 
ENDBRANCH  26  28
BRANCH  25  30
ATOM     30  O   LIG A   1     -10.690   5.254 130.765  0.00  0.00    -0.491 OA
ATOM     31  C   LIG A   1     -10.865   6.081 131.910  0.00  0.00    +0.277 C 
ENDBRANCH  25  30
TORSDOF 2
ENDMDL
MODEL 8
REMARK VINA RESULT:      -8.0      5.360      7.201
REMARK  Name = NuBBE_1410
REMARK  6 active torsions:
REMARK  status: ('A' for Active; 'I' for Inactive)
REMARK    1  A    between atoms: C_15  and  C_18
REMARK    2  A    between atoms: C_15  and  C_19
REMARK    3  A    between atoms: C_25  and  O_30
REMARK    4  A    between atoms: C_26  and  O_28
REMARK    5  A    between atoms: O_28  and  C_29
REMARK    6  A    between atoms: O_30  and  C_31
REMARK                            x       y       z     vdW  Elec       q    Type
REMARK                         _______ _______ _______ _____ _____    ______ ____
ROOT
ATOM      1  O   LIG A   1      -7.493   1.919 129.995  0.00  0.00    -0.283 OA
ATOM      2  C   LIG A   1      -6.731   2.447 129.188  0.00  0.00    +0.254 C 
ATOM      3  C   LIG A   1      -6.920   2.409 127.670  0.00  0.00    +0.355 C 
ATOM      4  O   LIG A   1      -7.693   1.253 127.354  0.00  0.00    -0.441 OA
ATOM      5  C   LIG A   1      -8.221   1.296 126.095  0.00  0.00    +0.150 A 
ATOM      6  C   LIG A   1      -8.505   0.087 125.445  0.00  0.00    +0.059 A 
ATOM      7  C   LIG A   1      -9.009   0.118 124.138  0.00  0.00    +0.132 A 
ATOM      8  C   LIG A   1      -9.273   1.333 123.507  0.00  0.00    +0.047 A 
ATOM      9  C   LIG A   1      -9.003   2.533 124.164  0.00  0.00    +0.022 A 
ATOM     10  C   LIG A   1      -8.467   2.509 125.456  0.00  0.00    +0.102 A 
ATOM     11  C   LIG A   1      -8.178   3.773 126.153  0.00  0.00    +0.346 C 
ATOM     12  O   LIG A   1      -8.502   4.854 125.687  0.00  0.00    -0.245 OA
ATOM     13  O   LIG A   1      -7.538   3.657 127.332  0.00  0.00    -0.408 OA
ATOM     14  O   LIG A   1      -9.292  -1.007 123.413  0.00  0.00    -0.481 OA
ATOM     15  C   LIG A   1      -8.693  -2.250 123.846  0.00  0.00    +0.123 C 
ATOM     16  C   LIG A   1      -8.367  -2.303 125.321  0.00  0.00    +0.020 C 
ATOM     17  C   LIG A   1      -8.285  -1.208 126.083  0.00  0.00    +0.015 C 
ATOM     18  C   LIG A   1      -9.714  -3.344 123.511  0.00  0.00    +0.060 C 
ATOM     19  C   LIG A   1      -7.419  -2.465 123.021  0.00  0.00    +0.060 C 
ATOM     20  C   LIG A   1      -5.511   2.287 127.069  0.00  0.00    +0.331 C 
ATOM     21  O   LIG A   1      -4.648   3.376 127.414  0.00  0.00    -0.483 OA
ATOM     22  C   LIG A   1      -4.587   3.615 128.760  0.00  0.00    +0.135 A 
ATOM     23  C   LIG A   1      -5.545   3.185 129.673  0.00  0.00    +0.071 A 
ATOM     24  C   LIG A   1      -5.380   3.451 131.033  0.00  0.00    +0.064 A 
ATOM     25  C   LIG A   1      -4.259   4.159 131.487  0.00  0.00    +0.162 A 
ATOM     26  C   LIG A   1      -3.324   4.652 130.560  0.00  0.00    +0.165 A 
ATOM     27  C   LIG A   1      -3.490   4.355 129.199  0.00  0.00    +0.095 A 
ENDROOT
BRANCH  26  28
ATOM     28  O   LIG A   1      -2.263   5.384 131.023  0.00  0.00    -0.491 OA
ATOM     29  C   LIG A   1      -2.470   6.788 131.142  0.00  0.00    +0.277 C 
ENDBRANCH  26  28
BRANCH  25  30
ATOM     30  O   LIG A   1      -4.252   4.347 132.844  0.00  0.00    -0.491 OA
ATOM     31  C   LIG A   1      -3.673   3.313 133.632  0.00  0.00    +0.277 C 
ENDBRANCH  25  30
TORSDOF 2
ENDMDL
MODEL 9
REMARK VINA RESULT:      -8.0      5.131      7.955
REMARK  Name = NuBBE_1410
REMARK  6 active torsions:
REMARK  status: ('A' for Active; 'I' for Inactive)
REMARK    1  A    between atoms: C_15  and  C_18
REMARK    2  A    between atoms: C_15  and  C_19
REMARK    3  A    between atoms: C_25  and  O_30
REMARK    4  A    between atoms: C_26  and  O_28
REMARK    5  A    between atoms: O_28  and  C_29
REMARK    6  A    between atoms: O_30  and  C_31
REMARK                            x       y       z     vdW  Elec       q    Type
REMARK                         _______ _______ _______ _____ _____    ______ ____
ROOT
ATOM      1  O   LIG A   1      -5.366   2.858 129.302  0.00  0.00    -0.283 OA
ATOM      2  C   LIG A   1      -6.587   2.721 129.359  0.00  0.00    +0.254 C 
ATOM      3  C   LIG A   1      -7.331   1.444 128.966  0.00  0.00    +0.355 C 
ATOM      4  O   LIG A   1      -6.522   0.737 128.029  0.00  0.00    -0.441 OA
ATOM      5  C   LIG A   1      -6.905  -0.566 127.875  0.00  0.00    +0.150 A 
ATOM      6  C   LIG A   1      -6.618  -1.210 126.663  0.00  0.00    +0.059 A 
ATOM      7  C   LIG A   1      -7.041  -2.532 126.478  0.00  0.00    +0.132 A 
ATOM      8  C   LIG A   1      -7.695  -3.219 127.501  0.00  0.00    +0.047 A 
ATOM      9  C   LIG A   1      -7.963  -2.579 128.710  0.00  0.00    +0.022 A 
ATOM     10  C   LIG A   1      -7.574  -1.247 128.888  0.00  0.00    +0.102 A 
ATOM     11  C   LIG A   1      -7.858  -0.565 130.162  0.00  0.00    +0.346 C 
ATOM     12  O   LIG A   1      -8.320  -1.161 131.122  0.00  0.00    -0.245 OA
ATOM     13  O   LIG A   1      -7.574   0.751 130.197  0.00  0.00    -0.408 OA
ATOM     14  O   LIG A   1      -6.832  -3.236 125.323  0.00  0.00    -0.481 OA
ATOM     15  C   LIG A   1      -6.521  -2.483 124.130  0.00  0.00    +0.123 C 
ATOM     16  C   LIG A   1      -5.865  -1.147 124.388  0.00  0.00    +0.020 C 
ATOM     17  C   LIG A   1      -5.898  -0.545 125.581  0.00  0.00    +0.015 C 
ATOM     18  C   LIG A   1      -5.571  -3.368 123.313  0.00  0.00    +0.060 C 
ATOM     19  C   LIG A   1      -7.829  -2.281 123.354  0.00  0.00    +0.060 C 
ATOM     20  C   LIG A   1      -8.639   1.902 128.299  0.00  0.00    +0.331 C 
ATOM     21  O   LIG A   1      -9.469   2.691 129.157  0.00  0.00    -0.483 OA
ATOM     22  C   LIG A   1      -8.812   3.750 129.725  0.00  0.00    +0.135 A 
ATOM     23  C   LIG A   1      -7.429   3.838 129.841  0.00  0.00    +0.071 A 
ATOM     24  C   LIG A   1      -6.848   4.973 130.409  0.00  0.00    +0.064 A 
ATOM     25  C   LIG A   1      -7.651   6.024 130.873  0.00  0.00    +0.162 A 
ATOM     26  C   LIG A   1      -9.051   5.908 130.816  0.00  0.00    +0.165 A 
ATOM     27  C   LIG A   1      -9.619   4.773 130.221  0.00  0.00    +0.095 A 
ENDROOT
BRANCH  26  28
ATOM     28  O   LIG A   1      -9.815   6.927 131.322  0.00  0.00    -0.491 OA
ATOM     29  C   LIG A   1     -11.100   6.565 131.818  0.00  0.00    +0.277 C 
ENDBRANCH  26  28
BRANCH  25  30
ATOM     30  O   LIG A   1      -6.930   7.057 131.411  0.00  0.00    -0.491 OA
ATOM     31  C   LIG A   1      -5.562   7.151 131.032  0.00  0.00    +0.277 C 
ENDBRANCH  25  30
TORSDOF 2
ENDMDL
