MODEL 1
REMARK VINA RESULT:      -8.0      0.000      0.000
REMARK  Name = NuBBE_550
REMARK  5 active torsions:
REMARK  status: ('A' for Active; 'I' for Inactive)
REMARK    1  A    between atoms: C_1  and  O_2
REMARK    2  A    between atoms: O_2  and  C_3
REMARK    3  A    between atoms: C_6  and  C_7
REMARK    4  A    between atoms: C_7  and  C_8
REMARK    5  A    between atoms: C_7  and  O_21
REMARK                            x       y       z     vdW  Elec       q    Type
REMARK                         _______ _______ _______ _____ _____    ______ ____
ROOT
ATOM      1  C   LIG A   1      -8.605   0.984 123.681  0.00  0.00    +0.134 C 
ATOM      2  C   LIG A   1      -7.784  -0.267 123.999  0.00  0.00    -0.014 A 
ATOM      3  C   LIG A   1      -6.957  -0.841 123.015  0.00  0.00    +0.055 A 
ATOM      4  C   LIG A   1      -6.152  -1.900 123.375  0.00  0.00    +0.167 A 
ATOM      5  C   LIG A   1      -6.153  -2.409 124.648  0.00  0.00    +0.167 A 
ATOM      6  C   LIG A   1      -6.989  -1.917 125.629  0.00  0.00    +0.058 A 
ATOM      7  C   LIG A   1      -7.831  -0.845 125.298  0.00  0.00    -0.015 A 
ATOM      8  C   LIG A   1      -8.809  -0.359 126.278  0.00  0.00    +0.023 C 
ATOM      9  C   LIG A   1      -9.708   0.565 125.892  0.00  0.00    +0.068 C 
ATOM     10  N   LIG A   1      -9.718   1.126 124.645  0.00  0.00    -0.340 N 
ATOM     11  O   LIG A   1      -5.268  -3.433 124.796  0.00  0.00    -0.453 OA
ATOM     12  C   LIG A   1      -4.693  -3.487 123.473  0.00  0.00    +0.466 C 
ATOM     13  O   LIG A   1      -5.278  -2.543 122.555  0.00  0.00    -0.453 OA
ATOM     14  H   LIG A   1     -10.346   1.915 124.504  0.00  0.00    +0.146 HD
ENDROOT
BRANCH   1  15
ATOM     15  C   LIG A   1      -7.768   2.318 123.683  0.00  0.00    +0.169 C 
BRANCH  15  19
ATOM     16  C   LIG A   1      -7.294   4.224 119.819  0.00  0.00    +0.120 A 
ATOM     17  C   LIG A   1      -8.562   3.915 120.306  0.00  0.00    +0.046 A 
ATOM     18  C   LIG A   1      -8.713   3.295 121.544  0.00  0.00    +0.010 A 
ATOM     19  C   LIG A   1      -7.599   2.971 122.327  0.00  0.00    -0.017 A 
ATOM     20  C   LIG A   1      -6.323   3.292 121.837  0.00  0.00    +0.010 A 
ATOM     21  C   LIG A   1      -6.174   3.923 120.596  0.00  0.00    +0.046 A 
BRANCH  16  23
ATOM     22  C   LIG A   1      -5.915   5.673 118.567  0.00  0.00    +0.277 C 
ATOM     23  O   LIG A   1      -7.049   4.809 118.604  0.00  0.00    -0.495 OA
ENDBRANCH  16  23
ENDBRANCH  15  19
BRANCH  15  24
ATOM     24  O   LIG A   1      -6.487   2.144 124.317  0.00  0.00    -0.385 OA
ATOM     25  H   LIG A   1      -6.235   3.028 124.637  0.00  0.00    +0.210 HD
ENDBRANCH  15  24
ENDBRANCH   1  15
TORSDOF 4
ENDMDL
MODEL 2
REMARK VINA RESULT:      -7.6     10.062     10.863
REMARK  Name = NuBBE_550
REMARK  5 active torsions:
REMARK  status: ('A' for Active; 'I' for Inactive)
REMARK    1  A    between atoms: C_1  and  O_2
REMARK    2  A    between atoms: O_2  and  C_3
REMARK    3  A    between atoms: C_6  and  C_7
REMARK    4  A    between atoms: C_7  and  C_8
REMARK    5  A    between atoms: C_7  and  O_21
REMARK                            x       y       z     vdW  Elec       q    Type
REMARK                         _______ _______ _______ _____ _____    ______ ____
ROOT
ATOM      1  C   LIG A   1      -9.408   4.738 131.690  0.00  0.00    +0.134 C 
ATOM      2  C   LIG A   1      -7.940   5.145 131.826  0.00  0.00    -0.014 A 
ATOM      3  C   LIG A   1      -7.387   6.103 130.956  0.00  0.00    +0.055 A 
ATOM      4  C   LIG A   1      -6.094   6.523 131.182  0.00  0.00    +0.167 A 
ATOM      5  C   LIG A   1      -5.340   6.019 132.210  0.00  0.00    +0.167 A 
ATOM      6  C   LIG A   1      -5.819   5.036 133.051  0.00  0.00    +0.058 A 
ATOM      7  C   LIG A   1      -7.128   4.577 132.847  0.00  0.00    -0.015 A 
ATOM      8  C   LIG A   1      -7.642   3.461 133.650  0.00  0.00    +0.023 C 
ATOM      9  C   LIG A   1      -8.841   2.936 133.338  0.00  0.00    +0.068 C 
ATOM     10  N   LIG A   1      -9.641   3.432 132.346  0.00  0.00    -0.340 N 
ATOM     11  O   LIG A   1      -4.104   6.585 132.271  0.00  0.00    -0.453 OA
ATOM     12  C   LIG A   1      -4.181   7.522 131.175  0.00  0.00    +0.466 C 
ATOM     13  O   LIG A   1      -5.428   7.459 130.455  0.00  0.00    -0.453 OA
ATOM     14  H   LIG A   1     -10.584   3.054 132.287  0.00  0.00    +0.146 HD
ENDROOT
BRANCH   1  15
ATOM     15  C   LIG A   1     -10.421   5.785 132.287  0.00  0.00    +0.169 C 
BRANCH  15  19
ATOM     16  C   LIG A   1     -12.271   8.385 129.353  0.00  0.00    +0.120 A 
ATOM     17  C   LIG A   1     -10.960   7.945 129.184  0.00  0.00    +0.046 A 
ATOM     18  C   LIG A   1     -10.364   7.117 130.131  0.00  0.00    +0.010 A 
ATOM     19  C   LIG A   1     -11.065   6.705 131.270  0.00  0.00    -0.017 A 
ATOM     20  C   LIG A   1     -12.389   7.143 131.433  0.00  0.00    +0.010 A 
ATOM     21  C   LIG A   1     -12.990   7.969 130.476  0.00  0.00    +0.046 A 
BRANCH  16  23
ATOM     22  C   LIG A   1     -13.541  10.357 129.095  0.00  0.00    +0.277 C 
ATOM     23  O   LIG A   1     -12.929   9.221 128.489  0.00  0.00    -0.495 OA
ENDBRANCH  16  23
ENDBRANCH  15  19
BRANCH  15  24
ATOM     24  O   LIG A   1      -9.832   6.552 133.353  0.00  0.00    -0.385 OA
ATOM     25  H   LIG A   1     -10.567   7.055 133.746  0.00  0.00    +0.210 HD
ENDBRANCH  15  24
ENDBRANCH   1  15
TORSDOF 4
ENDMDL
MODEL 3
REMARK VINA RESULT:      -7.4      7.505      9.390
REMARK  Name = NuBBE_550
REMARK  5 active torsions:
REMARK  status: ('A' for Active; 'I' for Inactive)
REMARK    1  A    between atoms: C_1  and  O_2
REMARK    2  A    between atoms: O_2  and  C_3
REMARK    3  A    between atoms: C_6  and  C_7
REMARK    4  A    between atoms: C_7  and  C_8
REMARK    5  A    between atoms: C_7  and  O_21
REMARK                            x       y       z     vdW  Elec       q    Type
REMARK                         _______ _______ _______ _____ _____    ______ ____
ROOT
ATOM      1  C   LIG A   1      -9.899   4.659 132.319  0.00  0.00    +0.134 C 
ATOM      2  C   LIG A   1      -9.177   3.601 131.482  0.00  0.00    -0.014 A 
ATOM      3  C   LIG A   1      -9.596   3.331 130.166  0.00  0.00    +0.055 A 
ATOM      4  C   LIG A   1      -8.851   2.452 129.410  0.00  0.00    +0.167 A 
ATOM      5  C   LIG A   1      -7.737   1.831 129.913  0.00  0.00    +0.167 A 
ATOM      6  C   LIG A   1      -7.323   2.019 131.216  0.00  0.00    +0.058 A 
ATOM      7  C   LIG A   1      -8.062   2.900 132.019  0.00  0.00    -0.015 A 
ATOM      8  C   LIG A   1      -7.720   3.051 133.438  0.00  0.00    +0.023 C 
ATOM      9  C   LIG A   1      -8.531   3.781 134.226  0.00  0.00    +0.068 C 
ATOM     10  N   LIG A   1      -9.629   4.448 133.758  0.00  0.00    -0.340 N 
ATOM     11  O   LIG A   1      -7.136   1.025 128.996  0.00  0.00    -0.453 OA
ATOM     12  C   LIG A   1      -7.989   1.235 127.850  0.00  0.00    +0.466 C 
ATOM     13  O   LIG A   1      -9.103   2.109 128.119  0.00  0.00    -0.453 OA
ATOM     14  H   LIG A   1     -10.089   5.083 134.407  0.00  0.00    +0.146 HD
ENDROOT
BRANCH   1  15
ATOM     15  C   LIG A   1      -9.514   6.141 131.950  0.00  0.00    +0.169 C 
BRANCH  15  19
ATOM     16  C   LIG A   1     -12.212   8.069 129.159  0.00  0.00    +0.120 A 
ATOM     17  C   LIG A   1     -10.840   8.049 128.920  0.00  0.00    +0.046 A 
ATOM     18  C   LIG A   1      -9.973   7.437 129.821  0.00  0.00    +0.010 A 
ATOM     19  C   LIG A   1     -10.458   6.826 130.983  0.00  0.00    -0.017 A 
ATOM     20  C   LIG A   1     -11.842   6.841 131.217  0.00  0.00    +0.010 A 
ATOM     21  C   LIG A   1     -12.713   7.450 130.306  0.00  0.00    +0.046 A 
BRANCH  16  23
ATOM     22  C   LIG A   1     -13.559   9.966 128.760  0.00  0.00    +0.277 C 
ATOM     23  O   LIG A   1     -13.136   8.669 128.343  0.00  0.00    -0.495 OA
ENDBRANCH  16  23
ENDBRANCH  15  19
BRANCH  15  24
ATOM     24  O   LIG A   1      -8.157   6.239 131.479  0.00  0.00    -0.385 OA
ATOM     25  H   LIG A   1      -7.664   5.556 131.968  0.00  0.00    +0.210 HD
ENDBRANCH  15  24
ENDBRANCH   1  15
TORSDOF 4
ENDMDL
MODEL 4
REMARK VINA RESULT:      -7.4      9.117     10.354
REMARK  Name = NuBBE_550
REMARK  5 active torsions:
REMARK  status: ('A' for Active; 'I' for Inactive)
REMARK    1  A    between atoms: C_1  and  O_2
REMARK    2  A    between atoms: O_2  and  C_3
REMARK    3  A    between atoms: C_6  and  C_7
REMARK    4  A    between atoms: C_7  and  C_8
REMARK    5  A    between atoms: C_7  and  O_21
REMARK                            x       y       z     vdW  Elec       q    Type
REMARK                         _______ _______ _______ _____ _____    ______ ____
ROOT
ATOM      1  C   LIG A   1      -9.137   5.185 133.322  0.00  0.00    +0.134 C 
ATOM      2  C   LIG A   1      -8.633   3.743 133.250  0.00  0.00    -0.014 A 
ATOM      3  C   LIG A   1      -9.302   2.797 132.452  0.00  0.00    +0.055 A 
ATOM      4  C   LIG A   1      -8.752   1.540 132.327  0.00  0.00    +0.167 A 
ATOM      5  C   LIG A   1      -7.592   1.192 132.970  0.00  0.00    +0.167 A 
ATOM      6  C   LIG A   1      -6.933   2.066 133.809  0.00  0.00    +0.058 A 
ATOM      7  C   LIG A   1      -7.468   3.353 133.968  0.00  0.00    -0.015 A 
ATOM      8  C   LIG A   1      -6.859   4.281 134.929  0.00  0.00    +0.023 C 
ATOM      9  C   LIG A   1      -7.475   5.451 135.179  0.00  0.00    +0.068 C 
ATOM     10  N   LIG A   1      -8.611   5.853 134.533  0.00  0.00    -0.340 N 
ATOM     11  O   LIG A   1      -7.210  -0.085 132.692  0.00  0.00    -0.453 OA
ATOM     12  C   LIG A   1      -8.253  -0.487 131.779  0.00  0.00    +0.466 C 
ATOM     13  O   LIG A   1      -9.257   0.526 131.574  0.00  0.00    -0.453 OA
ATOM     14  H   LIG A   1      -8.913   6.812 134.693  0.00  0.00    +0.146 HD
ENDROOT
BRANCH   1  15
ATOM     15  C   LIG A   1      -8.764   6.059 132.067  0.00  0.00    +0.169 C 
BRANCH  15  19
ATOM     16  C   LIG A   1     -12.144   7.576 129.817  0.00  0.00    +0.120 A 
ATOM     17  C   LIG A   1     -12.336   6.932 131.038  0.00  0.00    +0.046 A 
ATOM     18  C   LIG A   1     -11.251   6.438 131.756  0.00  0.00    +0.010 A 
ATOM     19  C   LIG A   1      -9.945   6.577 131.272  0.00  0.00    -0.017 A 
ATOM     20  C   LIG A   1      -9.754   7.234 130.046  0.00  0.00    +0.010 A 
ATOM     21  C   LIG A   1     -10.846   7.738 129.330  0.00  0.00    +0.046 A 
BRANCH  16  23
ATOM     22  C   LIG A   1     -13.164   9.488 128.883  0.00  0.00    +0.277 C 
ATOM     23  O   LIG A   1     -13.152   8.070 129.031  0.00  0.00    -0.495 OA
ENDBRANCH  16  23
ENDBRANCH  15  19
BRANCH  15  24
ATOM     24  O   LIG A   1      -7.837   5.380 131.200  0.00  0.00    -0.385 OA
ATOM     25  H   LIG A   1      -7.411   4.703 131.756  0.00  0.00    +0.210 HD
ENDBRANCH  15  24
ENDBRANCH   1  15
TORSDOF 4
ENDMDL
MODEL 5
REMARK VINA RESULT:      -7.3      3.775      4.622
REMARK  Name = NuBBE_550
REMARK  5 active torsions:
REMARK  status: ('A' for Active; 'I' for Inactive)
REMARK    1  A    between atoms: C_1  and  O_2
REMARK    2  A    between atoms: O_2  and  C_3
REMARK    3  A    between atoms: C_6  and  C_7
REMARK    4  A    between atoms: C_7  and  C_8
REMARK    5  A    between atoms: C_7  and  O_21
REMARK                            x       y       z     vdW  Elec       q    Type
REMARK                         _______ _______ _______ _____ _____    ______ ____
ROOT
ATOM      1  C   LIG A   1      -7.770  -0.790 124.162  0.00  0.00    +0.134 C 
ATOM      2  C   LIG A   1      -7.958  -1.612 125.439  0.00  0.00    -0.014 A 
ATOM      3  C   LIG A   1      -7.352  -1.203 126.641  0.00  0.00    +0.055 A 
ATOM      4  C   LIG A   1      -7.636  -1.909 127.790  0.00  0.00    +0.167 A 
ATOM      5  C   LIG A   1      -8.471  -2.996 127.782  0.00  0.00    +0.167 A 
ATOM      6  C   LIG A   1      -9.040  -3.469 126.618  0.00  0.00    +0.058 A 
ATOM      7  C   LIG A   1      -8.766  -2.782 125.426  0.00  0.00    -0.015 A 
ATOM      8  C   LIG A   1      -9.266  -3.310 124.151  0.00  0.00    +0.023 C 
ATOM      9  C   LIG A   1      -8.867  -2.724 123.007  0.00  0.00    +0.068 C 
ATOM     10  N   LIG A   1      -8.067  -1.616 122.971  0.00  0.00    -0.340 N 
ATOM     11  O   LIG A   1      -8.635  -3.531 129.023  0.00  0.00    -0.453 OA
ATOM     12  C   LIG A   1      -7.827  -2.633 129.814  0.00  0.00    +0.466 C 
ATOM     13  O   LIG A   1      -7.158  -1.625 129.031  0.00  0.00    -0.453 OA
ATOM     14  H   LIG A   1      -7.943  -1.170 122.065  0.00  0.00    +0.146 HD
ENDROOT
BRANCH   1  15
ATOM     15  C   LIG A   1      -8.654   0.512 124.102  0.00  0.00    +0.169 C 
BRANCH  15  19
ATOM     16  C   LIG A   1      -6.679   4.130 125.442  0.00  0.00    +0.120 A 
ATOM     17  C   LIG A   1      -8.064   4.090 125.297  0.00  0.00    +0.046 A 
ATOM     18  C   LIG A   1      -8.697   2.931 124.859  0.00  0.00    +0.010 A 
ATOM     19  C   LIG A   1      -7.960   1.780 124.556  0.00  0.00    -0.017 A 
ATOM     20  C   LIG A   1      -6.565   1.820 124.712  0.00  0.00    +0.010 A 
ATOM     21  C   LIG A   1      -5.932   2.985 125.161  0.00  0.00    +0.046 A 
BRANCH  16  23
ATOM     22  C   LIG A   1      -4.862   4.961 126.698  0.00  0.00    +0.277 C 
ATOM     23  O   LIG A   1      -5.969   5.232 125.842  0.00  0.00    -0.495 OA
ENDBRANCH  16  23
ENDBRANCH  15  19
BRANCH  15  24
ATOM     24  O   LIG A   1      -9.900   0.345 124.804  0.00  0.00    -0.385 OA
ATOM     25  H   LIG A   1      -9.733  -0.353 125.463  0.00  0.00    +0.210 HD
ENDBRANCH  15  24
ENDBRANCH   1  15
TORSDOF 4
ENDMDL
MODEL 6
REMARK VINA RESULT:      -7.3      2.529      3.053
REMARK  Name = NuBBE_550
REMARK  5 active torsions:
REMARK  status: ('A' for Active; 'I' for Inactive)
REMARK    1  A    between atoms: C_1  and  O_2
REMARK    2  A    between atoms: O_2  and  C_3
REMARK    3  A    between atoms: C_6  and  C_7
REMARK    4  A    between atoms: C_7  and  C_8
REMARK    5  A    between atoms: C_7  and  O_21
REMARK                            x       y       z     vdW  Elec       q    Type
REMARK                         _______ _______ _______ _____ _____    ______ ____
ROOT
ATOM      1  C   LIG A   1      -7.789   2.406 126.591  0.00  0.00    +0.134 C 
ATOM      2  C   LIG A   1      -7.655   1.097 125.812  0.00  0.00    -0.014 A 
ATOM      3  C   LIG A   1      -8.803   0.427 125.348  0.00  0.00    +0.055 A 
ATOM      4  C   LIG A   1      -8.635  -0.688 124.556  0.00  0.00    +0.167 A 
ATOM      5  C   LIG A   1      -7.390  -1.163 124.232  0.00  0.00    +0.167 A 
ATOM      6  C   LIG A   1      -6.238  -0.574 124.711  0.00  0.00    +0.058 A 
ATOM      7  C   LIG A   1      -6.369   0.558 125.528  0.00  0.00    -0.015 A 
ATOM      8  C   LIG A   1      -5.178   1.153 126.144  0.00  0.00    +0.023 C 
ATOM      9  C   LIG A   1      -5.338   2.142 127.043  0.00  0.00    +0.068 C 
ATOM     10  N   LIG A   1      -6.557   2.670 127.367  0.00  0.00    -0.340 N 
ATOM     11  O   LIG A   1      -7.448  -2.255 123.422  0.00  0.00    -0.453 OA
ATOM     12  C   LIG A   1      -8.876  -2.394 123.257  0.00  0.00    +0.466 C 
ATOM     13  O   LIG A   1      -9.636  -1.426 124.007  0.00  0.00    -0.453 OA
ATOM     14  H   LIG A   1      -6.554   3.506 127.947  0.00  0.00    +0.146 HD
ENDROOT
BRANCH   1  15
ATOM     15  C   LIG A   1      -8.091   3.661 125.690  0.00  0.00    +0.169 C 
BRANCH  15  19
ATOM     16  C   LIG A   1      -6.140   3.697 121.819  0.00  0.00    +0.120 A 
ATOM     17  C   LIG A   1      -7.423   3.175 121.961  0.00  0.00    +0.046 A 
ATOM     18  C   LIG A   1      -8.046   3.156 123.206  0.00  0.00    +0.010 A 
ATOM     19  C   LIG A   1      -7.401   3.662 124.341  0.00  0.00    -0.017 A 
ATOM     20  C   LIG A   1      -6.111   4.195 124.193  0.00  0.00    +0.010 A 
ATOM     21  C   LIG A   1      -5.490   4.222 122.939  0.00  0.00    +0.046 A 
BRANCH  16  23
ATOM     22  C   LIG A   1      -5.399   5.008 120.002  0.00  0.00    +0.277 C 
ATOM     23  O   LIG A   1      -5.440   3.734 120.641  0.00  0.00    -0.495 OA
ENDBRANCH  16  23
ENDBRANCH  15  19
BRANCH  15  24
ATOM     24  O   LIG A   1      -7.830   4.894 126.385  0.00  0.00    -0.385 OA
ATOM     25  H   LIG A   1      -6.871   4.896 126.557  0.00  0.00    +0.210 HD
ENDBRANCH  15  24
ENDBRANCH   1  15
TORSDOF 4
ENDMDL
MODEL 7
REMARK VINA RESULT:      -7.2      8.987     10.025
REMARK  Name = NuBBE_550
REMARK  5 active torsions:
REMARK  status: ('A' for Active; 'I' for Inactive)
REMARK    1  A    between atoms: C_1  and  O_2
REMARK    2  A    between atoms: O_2  and  C_3
REMARK    3  A    between atoms: C_6  and  C_7
REMARK    4  A    between atoms: C_7  and  C_8
REMARK    5  A    between atoms: C_7  and  O_21
REMARK                            x       y       z     vdW  Elec       q    Type
REMARK                         _______ _______ _______ _____ _____    ______ ____
ROOT
ATOM      1  C   LIG A   1      -9.615   4.384 131.232  0.00  0.00    +0.134 C 
ATOM      2  C   LIG A   1      -8.093   4.300 131.112  0.00  0.00    -0.014 A 
ATOM      3  C   LIG A   1      -7.412   5.079 130.157  0.00  0.00    +0.055 A 
ATOM      4  C   LIG A   1      -6.035   5.057 130.157  0.00  0.00    +0.167 A 
ATOM      5  C   LIG A   1      -5.324   4.288 131.042  0.00  0.00    +0.167 A 
ATOM      6  C   LIG A   1      -5.948   3.464 131.956  0.00  0.00    +0.058 A 
ATOM      7  C   LIG A   1      -7.350   3.452 131.980  0.00  0.00    -0.015 A 
ATOM      8  C   LIG A   1      -8.055   2.516 132.863  0.00  0.00    +0.023 C 
ATOM      9  C   LIG A   1      -9.393   2.413 132.763  0.00  0.00    +0.068 C 
ATOM     10  N   LIG A   1     -10.143   3.186 131.921  0.00  0.00    -0.340 N 
ATOM     11  O   LIG A   1      -3.979   4.431 130.888  0.00  0.00    -0.453 OA
ATOM     12  C   LIG A   1      -3.931   5.401 129.819  0.00  0.00    +0.466 C 
ATOM     13  O   LIG A   1      -5.233   5.772 129.323  0.00  0.00    -0.453 OA
ATOM     14  H   LIG A   1     -11.154   3.129 132.027  0.00  0.00    +0.146 HD
ENDROOT
BRANCH   1  15
ATOM     15  C   LIG A   1     -10.129   5.665 131.990  0.00  0.00    +0.169 C 
BRANCH  15  19
ATOM     16  C   LIG A   1     -12.296   8.479 129.506  0.00  0.00    +0.120 A 
ATOM     17  C   LIG A   1     -10.981   8.134 129.204  0.00  0.00    +0.046 A 
ATOM     18  C   LIG A   1     -10.282   7.236 130.007  0.00  0.00    +0.010 A 
ATOM     19  C   LIG A   1     -10.883   6.659 131.132  0.00  0.00    -0.017 A 
ATOM     20  C   LIG A   1     -12.212   7.003 131.428  0.00  0.00    +0.010 A 
ATOM     21  C   LIG A   1     -12.915   7.899 130.615  0.00  0.00    +0.046 A 
BRANCH  16  23
ATOM     22  C   LIG A   1     -13.445  10.541 129.504  0.00  0.00    +0.277 C 
ATOM     23  O   LIG A   1     -13.050   9.371 128.789  0.00  0.00    -0.495 OA
ENDBRANCH  16  23
ENDBRANCH  15  19
BRANCH  15  24
ATOM     24  O   LIG A   1      -9.067   6.325 132.704  0.00  0.00    -0.385 OA
ATOM     25  H   LIG A   1      -8.288   6.265 132.122  0.00  0.00    +0.210 HD
ENDBRANCH  15  24
ENDBRANCH   1  15
TORSDOF 4
ENDMDL
MODEL 8
REMARK VINA RESULT:      -7.2      2.796      4.042
REMARK  Name = NuBBE_550
REMARK  5 active torsions:
REMARK  status: ('A' for Active; 'I' for Inactive)
REMARK    1  A    between atoms: C_1  and  O_2
REMARK    2  A    between atoms: O_2  and  C_3
REMARK    3  A    between atoms: C_6  and  C_7
REMARK    4  A    between atoms: C_7  and  C_8
REMARK    5  A    between atoms: C_7  and  O_21
REMARK                            x       y       z     vdW  Elec       q    Type
REMARK                         _______ _______ _______ _____ _____    ______ ____
ROOT
ATOM      1  C   LIG A   1      -7.638  -1.029 124.326  0.00  0.00    +0.134 C 
ATOM      2  C   LIG A   1      -7.827  -1.793 125.638  0.00  0.00    -0.014 A 
ATOM      3  C   LIG A   1      -7.144  -1.389 126.799  0.00  0.00    +0.055 A 
ATOM      4  C   LIG A   1      -7.427  -2.035 127.983  0.00  0.00    +0.167 A 
ATOM      5  C   LIG A   1      -8.333  -3.062 128.047  0.00  0.00    +0.167 A 
ATOM      6  C   LIG A   1      -8.982  -3.532 126.925  0.00  0.00    +0.058 A 
ATOM      7  C   LIG A   1      -8.713  -2.905 125.699  0.00  0.00    -0.015 A 
ATOM      8  C   LIG A   1      -9.301  -3.438 124.464  0.00  0.00    +0.023 C 
ATOM      9  C   LIG A   1      -8.912  -2.919 123.285  0.00  0.00    +0.068 C 
ATOM     10  N   LIG A   1      -8.041  -1.870 123.179  0.00  0.00    -0.340 N 
ATOM     11  O   LIG A   1      -8.481  -3.543 129.312  0.00  0.00    -0.453 OA
ATOM     12  C   LIG A   1      -7.580  -2.678 130.037  0.00  0.00    +0.466 C 
ATOM     13  O   LIG A   1      -6.878  -1.745 129.193  0.00  0.00    -0.453 OA
ATOM     14  H   LIG A   1      -7.926  -1.464 122.252  0.00  0.00    +0.146 HD
ENDROOT
BRANCH   1  15
ATOM     15  C   LIG A   1      -8.433   0.328 124.255  0.00  0.00    +0.169 C 
BRANCH  15  19
ATOM     16  C   LIG A   1      -5.993   3.796 123.356  0.00  0.00    +0.120 A 
ATOM     17  C   LIG A   1      -5.880   3.150 124.585  0.00  0.00    +0.046 A 
ATOM     18  C   LIG A   1      -6.671   2.041 124.876  0.00  0.00    +0.010 A 
ATOM     19  C   LIG A   1      -7.591   1.549 123.944  0.00  0.00    -0.017 A 
ATOM     20  C   LIG A   1      -7.696   2.197 122.703  0.00  0.00    +0.010 A 
ATOM     21  C   LIG A   1      -6.894   3.307 122.409  0.00  0.00    +0.046 A 
BRANCH  16  23
ATOM     22  C   LIG A   1      -4.584   4.800 121.751  0.00  0.00    +0.277 C 
ATOM     23  O   LIG A   1      -5.277   4.907 122.992  0.00  0.00    -0.495 OA
ENDBRANCH  16  23
ENDBRANCH  15  19
BRANCH  15  24
ATOM     24  O   LIG A   1      -9.217   0.551 125.442  0.00  0.00    -0.385 OA
ATOM     25  H   LIG A   1      -9.957  -0.080 125.385  0.00  0.00    +0.210 HD
ENDBRANCH  15  24
ENDBRANCH   1  15
TORSDOF 4
ENDMDL
MODEL 9
REMARK VINA RESULT:      -7.0      3.407      8.002
REMARK  Name = NuBBE_550
REMARK  5 active torsions:
REMARK  status: ('A' for Active; 'I' for Inactive)
REMARK    1  A    between atoms: C_1  and  O_2
REMARK    2  A    between atoms: O_2  and  C_3
REMARK    3  A    between atoms: C_6  and  C_7
REMARK    4  A    between atoms: C_7  and  C_8
REMARK    5  A    between atoms: C_7  and  O_21
REMARK                            x       y       z     vdW  Elec       q    Type
REMARK                         _______ _______ _______ _____ _____    ______ ____
ROOT
ATOM      1  C   LIG A   1      -9.078  -2.322 125.763  0.00  0.00    +0.134 C 
ATOM      2  C   LIG A   1      -8.980  -0.909 125.186  0.00  0.00    -0.014 A 
ATOM      3  C   LIG A   1      -8.928   0.205 126.044  0.00  0.00    +0.055 A 
ATOM      4  C   LIG A   1      -8.729   1.450 125.489  0.00  0.00    +0.167 A 
ATOM      5  C   LIG A   1      -8.601   1.625 124.135  0.00  0.00    +0.167 A 
ATOM      6  C   LIG A   1      -8.705   0.572 123.251  0.00  0.00    +0.058 A 
ATOM      7  C   LIG A   1      -8.917  -0.711 123.778  0.00  0.00    -0.015 A 
ATOM      8  C   LIG A   1      -9.136  -1.843 122.872  0.00  0.00    +0.023 C 
ATOM      9  C   LIG A   1      -9.488  -3.032 123.395  0.00  0.00    +0.068 C 
ATOM     10  N   LIG A   1      -9.589  -3.260 124.739  0.00  0.00    -0.340 N 
ATOM     11  O   LIG A   1      -8.387   2.927 123.800  0.00  0.00    -0.453 OA
ATOM     12  C   LIG A   1      -8.368   3.543 125.106  0.00  0.00    +0.466 C 
ATOM     13  O   LIG A   1      -8.625   2.617 126.180  0.00  0.00    -0.453 OA
ATOM     14  H   LIG A   1      -9.721  -4.226 125.031  0.00  0.00    +0.146 HD
ENDROOT
BRANCH   1  15
ATOM     15  C   LIG A   1      -7.716  -2.883 126.319  0.00  0.00    +0.169 C 
BRANCH  15  19
ATOM     16  C   LIG A   1      -6.942  -2.091 130.510  0.00  0.00    +0.120 A 
ATOM     17  C   LIG A   1      -7.917  -3.011 130.130  0.00  0.00    +0.046 A 
ATOM     18  C   LIG A   1      -8.171  -3.258 128.784  0.00  0.00    +0.010 A 
ATOM     19  C   LIG A   1      -7.453  -2.594 127.783  0.00  0.00    -0.017 A 
ATOM     20  C   LIG A   1      -6.465  -1.674 128.168  0.00  0.00    +0.010 A 
ATOM     21  C   LIG A   1      -6.206  -1.433 129.522  0.00  0.00    +0.046 A 
BRANCH  16  23
ATOM     22  C   LIG A   1      -7.769  -1.528 132.647  0.00  0.00    +0.277 C 
ATOM     23  O   LIG A   1      -6.642  -1.764 131.806  0.00  0.00    -0.495 OA
ENDBRANCH  16  23
ENDBRANCH  15  19
BRANCH  15  24
ATOM     24  O   LIG A   1      -6.597  -2.461 125.518  0.00  0.00    -0.385 OA
ATOM     25  H   LIG A   1      -5.818  -2.543 126.097  0.00  0.00    +0.210 HD
ENDBRANCH  15  24
ENDBRANCH   1  15
TORSDOF 4
ENDMDL
