MODEL 1
REMARK VINA RESULT:      -8.1      0.000      0.000
REMARK  Name = NuBBE_1467
REMARK  10 active torsions:
REMARK  status: ('A' for Active; 'I' for Inactive)
REMARK    1  A    between atoms: C_1  and  C_2
REMARK    2  A    between atoms: C_5  and  O_7
REMARK    3  A    between atoms: C_10  and  C_11
REMARK    4  A    between atoms: C_16  and  C_17
REMARK    5  A    between atoms: C_16  and  C_18
REMARK    6  A    between atoms: C_19  and  C_21
REMARK    7  A    between atoms: C_21  and  C_22
REMARK    8  A    between atoms: C_22  and  O_23
REMARK    9  A    between atoms: O_23  and  C_24
REMARK   10  A    between atoms: C_29  and  C_31
REMARK                            x       y       z     vdW  Elec       q    Type
REMARK                         _______ _______ _______ _____ _____    ______ ____
ROOT
ATOM      1  C   LIG A   1      -8.982   6.087 132.845  0.00  0.00    +0.022 C 
ATOM      2  C   LIG A   1      -8.420   6.216 131.408  0.00  0.00    +0.058 C 
ATOM      3  C   LIG A   1      -8.266   4.912 130.624  0.00  0.00    -0.036 C 
ATOM      4  C   LIG A   1      -8.718   4.814 129.364  0.00  0.00    +0.092 C 
ATOM      5  C   LIG A   1      -6.906   6.521 131.528  0.00  0.00    +0.130 C 
ATOM      6  C   LIG A   1      -6.212   5.138 131.771  0.00  0.00    +0.052 C 
ATOM      7  C   LIG A   1      -7.172   4.026 131.245  0.00  0.00    +0.065 C 
ATOM      8  C   LIG A   1      -6.510   2.832 130.384  0.00  0.00    +0.046 C 
ATOM      9  C   LIG A   1      -5.296   2.248 131.199  0.00  0.00    +0.021 C 
ATOM     10  C   LIG A   1      -7.656   1.847 130.525  0.00  0.00    +0.116 C 
ATOM     11  O   LIG A   1      -8.231   1.949 131.778  0.00  0.00    -0.464 OA
ATOM     12  C   LIG A   1      -8.262   1.117 129.599  0.00  0.00    +0.089 C 
ATOM     13  C   LIG A   1      -7.876   1.211 128.197  0.00  0.00    +0.165 C 
ATOM     14  C   LIG A   1      -6.613   1.975 127.782  0.00  0.00    +0.032 C 
ATOM     15  C   LIG A   1      -5.616   0.826 127.459  0.00  0.00    +0.019 C 
ATOM     16  C   LIG A   1      -6.956   2.686 126.452  0.00  0.00    +0.019 C 
ATOM     17  C   LIG A   1      -5.961   2.943 128.883  0.00  0.00    +0.027 C 
ATOM     18  O   LIG A   1      -8.585   0.609 127.388  0.00  0.00    -0.292 OA
ATOM     19  C   LIG A   1      -7.804   3.136 132.351  0.00  0.00    +0.109 C 
ATOM     20  C   LIG A   1      -7.822   3.227 133.686  0.00  0.00    +0.054 C 
ATOM     21  C   LIG A   1      -9.322   7.213 130.607  0.00  0.00    +0.222 C 
ATOM     22  O   LIG A   1      -9.013   7.211 129.214  0.00  0.00    -0.452 OA
ATOM     23  C   LIG A   1      -9.081   6.012 128.577  0.00  0.00    +0.333 C 
ATOM     24  O   LIG A   1      -9.318   5.914 127.384  0.00  0.00    -0.246 OA
ENDROOT
BRANCH  21  25
ATOM     25  C   LIG A   1     -10.835   7.064 130.804  0.00  0.00    +0.031 A 
ATOM     26  C   LIG A   1     -11.480   6.430 131.853  0.00  0.00    +0.202 A 
ATOM     27  O   LIG A   1     -12.827   6.485 131.718  0.00  0.00    -0.471 OA
ATOM     28  C   LIG A   1     -13.082   7.194 130.593  0.00  0.00    +0.195 A 
ATOM     29  C   LIG A   1     -11.905   7.587 130.005  0.00  0.00    +0.048 A 
ENDBRANCH  21  25
BRANCH   5  30
ATOM     30  O   LIG A   1      -6.346   7.087 130.347  0.00  0.00    -0.391 OA
ATOM     31  H   LIG A   1      -5.552   7.596 130.595  0.00  0.00    +0.210 HD
ENDBRANCH   5  30
BRANCH  17  32
ATOM     32  C   LIG A   1      -5.557   4.366 128.414  0.00  0.00    +0.126 C 
BRANCH  32  33
ATOM     33  C   LIG A   1      -4.100   4.706 128.658  0.00  0.00    +0.307 C 
ATOM     34  O   LIG A   1      -3.202   3.868 128.787  0.00  0.00    -0.251 OA
BRANCH  33  35
ATOM     35  O   LIG A   1      -3.928   6.047 128.772  0.00  0.00    -0.468 OA
ATOM     36  C   LIG A   1      -2.607   6.505 128.473  0.00  0.00    +0.280 C 
ENDBRANCH  33  35
ENDBRANCH  32  33
ENDBRANCH  17  32
TORSDOF 5
ENDMDL
MODEL 2
REMARK VINA RESULT:      -8.1      1.886      3.315
REMARK  Name = NuBBE_1467
REMARK  10 active torsions:
REMARK  status: ('A' for Active; 'I' for Inactive)
REMARK    1  A    between atoms: C_1  and  C_2
REMARK    2  A    between atoms: C_5  and  O_7
REMARK    3  A    between atoms: C_10  and  C_11
REMARK    4  A    between atoms: C_16  and  C_17
REMARK    5  A    between atoms: C_16  and  C_18
REMARK    6  A    between atoms: C_19  and  C_21
REMARK    7  A    between atoms: C_21  and  C_22
REMARK    8  A    between atoms: C_22  and  O_23
REMARK    9  A    between atoms: O_23  and  C_24
REMARK   10  A    between atoms: C_29  and  C_31
REMARK                            x       y       z     vdW  Elec       q    Type
REMARK                         _______ _______ _______ _____ _____    ______ ____
ROOT
ATOM      1  C   LIG A   1      -9.464   2.828 132.067  0.00  0.00    +0.022 C 
ATOM      2  C   LIG A   1      -8.340   3.890 132.128  0.00  0.00    +0.058 C 
ATOM      3  C   LIG A   1      -7.469   4.023 130.878  0.00  0.00    -0.036 C 
ATOM      4  C   LIG A   1      -7.208   5.231 130.352  0.00  0.00    +0.092 C 
ATOM      5  C   LIG A   1      -7.227   3.335 133.051  0.00  0.00    +0.130 C 
ATOM      6  C   LIG A   1      -6.382   2.363 132.161  0.00  0.00    +0.052 C 
ATOM      7  C   LIG A   1      -6.614   2.762 130.671  0.00  0.00    +0.065 C 
ATOM      8  C   LIG A   1      -5.314   2.811 129.713  0.00  0.00    +0.046 C 
ATOM      9  C   LIG A   1      -4.537   1.450 129.863  0.00  0.00    +0.021 C 
ATOM     10  C   LIG A   1      -6.058   2.758 128.391  0.00  0.00    +0.116 C 
ATOM     11  O   LIG A   1      -7.169   1.941 128.494  0.00  0.00    -0.464 OA
ATOM     12  C   LIG A   1      -5.910   3.505 127.307  0.00  0.00    +0.089 C 
ATOM     13  C   LIG A   1      -4.938   4.591 127.271  0.00  0.00    +0.165 C 
ATOM     14  C   LIG A   1      -3.903   4.754 128.390  0.00  0.00    +0.032 C 
ATOM     15  C   LIG A   1      -2.600   4.237 127.720  0.00  0.00    +0.019 C 
ATOM     16  C   LIG A   1      -3.745   6.276 128.613  0.00  0.00    +0.019 C 
ATOM     17  C   LIG A   1      -4.165   3.927 129.740  0.00  0.00    +0.027 C 
ATOM     18  O   LIG A   1      -4.968   5.324 126.280  0.00  0.00    -0.292 OA
ATOM     19  C   LIG A   1      -7.423   1.728 129.840  0.00  0.00    +0.109 C 
ATOM     20  C   LIG A   1      -8.109   0.630 130.179  0.00  0.00    +0.054 C 
ATOM     21  C   LIG A   1      -8.980   5.274 132.478  0.00  0.00    +0.222 C 
ATOM     22  O   LIG A   1      -8.051   6.346 132.326  0.00  0.00    -0.452 OA
ATOM     23  C   LIG A   1      -7.464   6.475 131.106  0.00  0.00    +0.333 C 
ATOM     24  O   LIG A   1      -7.058   7.544 130.682  0.00  0.00    -0.246 OA
ENDROOT
BRANCH  21  25
ATOM     25  C   LIG A   1     -10.289   5.616 131.757  0.00  0.00    +0.031 A 
ATOM     26  C   LIG A   1     -11.337   6.377 132.250  0.00  0.00    +0.202 A 
ATOM     27  O   LIG A   1     -12.343   6.486 131.347  0.00  0.00    -0.471 OA
ATOM     28  C   LIG A   1     -11.946   5.828 130.233  0.00  0.00    +0.195 A 
ATOM     29  C   LIG A   1     -10.695   5.293 130.420  0.00  0.00    +0.048 A 
ENDBRANCH  21  25
BRANCH   5  30
ATOM     30  O   LIG A   1      -6.350   4.340 133.550  0.00  0.00    -0.391 OA
ATOM     31  H   LIG A   1      -5.767   3.938 134.219  0.00  0.00    +0.210 HD
ENDBRANCH   5  30
BRANCH  17  32
ATOM     32  C   LIG A   1      -4.001   4.698 131.077  0.00  0.00    +0.126 C 
BRANCH  32  33
ATOM     33  C   LIG A   1      -2.879   4.180 131.955  0.00  0.00    +0.307 C 
ATOM     34  O   LIG A   1      -2.991   3.236 132.742  0.00  0.00    -0.251 OA
BRANCH  33  35
ATOM     35  O   LIG A   1      -1.757   4.928 131.800  0.00  0.00    -0.468 OA
ATOM     36  C   LIG A   1      -1.960   6.337 131.922  0.00  0.00    +0.280 C 
ENDBRANCH  33  35
ENDBRANCH  32  33
ENDBRANCH  17  32
TORSDOF 5
ENDMDL
MODEL 3
REMARK VINA RESULT:      -8.0      2.143      6.391
REMARK  Name = NuBBE_1467
REMARK  10 active torsions:
REMARK  status: ('A' for Active; 'I' for Inactive)
REMARK    1  A    between atoms: C_1  and  C_2
REMARK    2  A    between atoms: C_5  and  O_7
REMARK    3  A    between atoms: C_10  and  C_11
REMARK    4  A    between atoms: C_16  and  C_17
REMARK    5  A    between atoms: C_16  and  C_18
REMARK    6  A    between atoms: C_19  and  C_21
REMARK    7  A    between atoms: C_21  and  C_22
REMARK    8  A    between atoms: C_22  and  O_23
REMARK    9  A    between atoms: O_23  and  C_24
REMARK   10  A    between atoms: C_29  and  C_31
REMARK                            x       y       z     vdW  Elec       q    Type
REMARK                         _______ _______ _______ _____ _____    ______ ____
ROOT
ATOM      1  C   LIG A   1      -3.481   4.053 127.331  0.00  0.00    +0.022 C 
ATOM      2  C   LIG A   1      -4.624   3.284 128.036  0.00  0.00    +0.058 C 
ATOM      3  C   LIG A   1      -5.545   4.115 128.931  0.00  0.00    -0.036 C 
ATOM      4  C   LIG A   1      -6.880   4.001 128.832  0.00  0.00    +0.092 C 
ATOM      5  C   LIG A   1      -3.989   2.451 129.176  0.00  0.00    +0.130 C 
ATOM      6  C   LIG A   1      -3.799   3.443 130.373  0.00  0.00    +0.052 C 
ATOM      7  C   LIG A   1      -4.788   4.631 130.166  0.00  0.00    +0.065 C 
ATOM      8  C   LIG A   1      -5.604   5.141 131.463  0.00  0.00    +0.046 C 
ATOM      9  C   LIG A   1      -4.573   5.405 132.624  0.00  0.00    +0.021 C 
ATOM     10  C   LIG A   1      -6.006   6.494 130.906  0.00  0.00    +0.116 C 
ATOM     11  O   LIG A   1      -4.995   7.013 130.118  0.00  0.00    -0.464 OA
ATOM     12  C   LIG A   1      -7.190   7.090 130.905  0.00  0.00    +0.089 C 
ATOM     13  C   LIG A   1      -8.362   6.431 131.468  0.00  0.00    +0.165 C 
ATOM     14  C   LIG A   1      -8.220   5.140 132.282  0.00  0.00    +0.032 C 
ATOM     15  C   LIG A   1      -8.421   5.639 133.741  0.00  0.00    +0.019 C 
ATOM     16  C   LIG A   1      -9.438   4.262 131.914  0.00  0.00    +0.019 C 
ATOM     17  C   LIG A   1      -6.814   4.373 132.178  0.00  0.00    +0.027 C 
ATOM     18  O   LIG A   1      -9.446   6.993 131.295  0.00  0.00    -0.292 OA
ATOM     19  C   LIG A   1      -4.112   5.987 129.820  0.00  0.00    +0.109 C 
ATOM     20  C   LIG A   1      -2.855   6.318 129.502  0.00  0.00    +0.054 C 
ATOM     21  C   LIG A   1      -5.471   2.541 126.949  0.00  0.00    +0.222 C 
ATOM     22  O   LIG A   1      -6.676   2.000 127.488  0.00  0.00    -0.452 OA
ATOM     23  C   LIG A   1      -7.509   2.873 128.114  0.00  0.00    +0.333 C 
ATOM     24  O   LIG A   1      -8.713   2.694 128.188  0.00  0.00    -0.246 OA
ENDROOT
BRANCH  21  25
ATOM     25  C   LIG A   1      -5.783   3.334 125.675  0.00  0.00    +0.031 A 
ATOM     26  C   LIG A   1      -5.683   4.706 125.503  0.00  0.00    +0.202 A 
ATOM     27  O   LIG A   1      -6.033   5.078 124.247  0.00  0.00    -0.471 OA
ATOM     28  C   LIG A   1      -6.328   3.945 123.568  0.00  0.00    +0.195 A 
ATOM     29  C   LIG A   1      -6.176   2.851 124.384  0.00  0.00    +0.048 A 
ENDBRANCH  21  25
BRANCH   5  30
ATOM     30  O   LIG A   1      -4.815   1.381 129.626  0.00  0.00    -0.391 OA
ATOM     31  H   LIG A   1      -5.687   1.743 129.868  0.00  0.00    +0.210 HD
ENDBRANCH   5  30
BRANCH  17  32
ATOM     32  C   LIG A   1      -6.869   2.838 131.954  0.00  0.00    +0.126 C 
BRANCH  32  33
ATOM     33  C   LIG A   1      -7.037   2.034 133.228  0.00  0.00    +0.307 C 
ATOM     34  O   LIG A   1      -6.426   2.258 134.277  0.00  0.00    -0.251 OA
BRANCH  33  35
ATOM     35  O   LIG A   1      -7.902   1.006 133.042  0.00  0.00    -0.468 OA
ATOM     36  C   LIG A   1      -8.200   0.719 131.674  0.00  0.00    +0.280 C 
ENDBRANCH  33  35
ENDBRANCH  32  33
ENDBRANCH  17  32
TORSDOF 5
ENDMDL
MODEL 4
REMARK VINA RESULT:      -7.9      1.917      6.610
REMARK  Name = NuBBE_1467
REMARK  10 active torsions:
REMARK  status: ('A' for Active; 'I' for Inactive)
REMARK    1  A    between atoms: C_1  and  C_2
REMARK    2  A    between atoms: C_5  and  O_7
REMARK    3  A    between atoms: C_10  and  C_11
REMARK    4  A    between atoms: C_16  and  C_17
REMARK    5  A    between atoms: C_16  and  C_18
REMARK    6  A    between atoms: C_19  and  C_21
REMARK    7  A    between atoms: C_21  and  C_22
REMARK    8  A    between atoms: C_22  and  O_23
REMARK    9  A    between atoms: O_23  and  C_24
REMARK   10  A    between atoms: C_29  and  C_31
REMARK                            x       y       z     vdW  Elec       q    Type
REMARK                         _______ _______ _______ _____ _____    ______ ____
ROOT
ATOM      1  C   LIG A   1      -6.075   1.594 127.039  0.00  0.00    +0.022 C 
ATOM      2  C   LIG A   1      -6.411   2.973 127.657  0.00  0.00    +0.058 C 
ATOM      3  C   LIG A   1      -6.382   3.053 129.184  0.00  0.00    -0.036 C 
ATOM      4  C   LIG A   1      -5.733   4.053 129.804  0.00  0.00    +0.092 C 
ATOM      5  C   LIG A   1      -7.937   3.191 127.506  0.00  0.00    +0.130 C 
ATOM      6  C   LIG A   1      -8.597   2.402 128.686  0.00  0.00    +0.052 C 
ATOM      7  C   LIG A   1      -7.519   2.219 129.797  0.00  0.00    +0.065 C 
ATOM      8  C   LIG A   1      -7.983   2.478 131.322  0.00  0.00    +0.046 C 
ATOM      9  C   LIG A   1      -9.283   1.631 131.594  0.00  0.00    +0.021 C 
ATOM     10  C   LIG A   1      -6.830   1.752 131.991  0.00  0.00    +0.116 C 
ATOM     11  O   LIG A   1      -6.465   0.641 131.254  0.00  0.00    -0.464 OA
ATOM     12  C   LIG A   1      -6.055   2.141 132.994  0.00  0.00    +0.089 C 
ATOM     13  C   LIG A   1      -6.221   3.453 133.606  0.00  0.00    +0.165 C 
ATOM     14  C   LIG A   1      -7.436   4.326 133.272  0.00  0.00    +0.032 C 
ATOM     15  C   LIG A   1      -8.317   4.176 134.543  0.00  0.00    +0.019 C 
ATOM     16  C   LIG A   1      -6.921   5.783 133.226  0.00  0.00    +0.019 C 
ATOM     17  C   LIG A   1      -8.295   3.903 131.984  0.00  0.00    +0.027 C 
ATOM     18  O   LIG A   1      -5.367   3.788 134.430  0.00  0.00    -0.292 OA
ATOM     19  C   LIG A   1      -7.029   0.757 129.993  0.00  0.00    +0.109 C 
ATOM     20  C   LIG A   1      -7.224  -0.366 129.292  0.00  0.00    +0.054 C 
ATOM     21  C   LIG A   1      -5.440   4.041 127.052  0.00  0.00    +0.222 C 
ATOM     22  O   LIG A   1      -5.526   5.290 127.736  0.00  0.00    -0.452 OA
ATOM     23  C   LIG A   1      -5.306   5.266 129.077  0.00  0.00    +0.333 C 
ATOM     24  O   LIG A   1      -4.880   6.231 129.690  0.00  0.00    -0.246 OA
ENDROOT
BRANCH  21  25
ATOM     25  C   LIG A   1      -3.971   3.622 126.919  0.00  0.00    +0.031 A 
ATOM     26  C   LIG A   1      -3.171   3.739 125.794  0.00  0.00    +0.202 A 
ATOM     27  O   LIG A   1      -1.918   3.273 126.023  0.00  0.00    -0.471 OA
ATOM     28  C   LIG A   1      -1.872   2.882 127.318  0.00  0.00    +0.195 A 
ATOM     29  C   LIG A   1      -3.091   3.088 127.916  0.00  0.00    +0.048 A 
ENDBRANCH  21  25
BRANCH   5  30
ATOM     30  O   LIG A   1      -8.330   4.555 127.621  0.00  0.00    -0.391 OA
ATOM     31  H   LIG A   1      -8.331   4.953 126.731  0.00  0.00    +0.210 HD
ENDBRANCH   5  30
BRANCH  17  32
ATOM     32  C   LIG A   1      -8.684   5.037 130.998  0.00  0.00    +0.126 C 
BRANCH  32  33
ATOM     33  C   LIG A   1     -10.177   5.183 130.784  0.00  0.00    +0.307 C 
ATOM     34  O   LIG A   1     -10.774   4.813 129.768  0.00  0.00    -0.251 OA
BRANCH  33  35
ATOM     35  O   LIG A   1     -10.756   5.825 131.830  0.00  0.00    -0.468 OA
ATOM     36  C   LIG A   1     -11.948   6.542 131.501  0.00  0.00    +0.280 C 
ENDBRANCH  33  35
ENDBRANCH  32  33
ENDBRANCH  17  32
TORSDOF 5
ENDMDL
MODEL 5
REMARK VINA RESULT:      -7.8      2.401      5.840
REMARK  Name = NuBBE_1467
REMARK  10 active torsions:
REMARK  status: ('A' for Active; 'I' for Inactive)
REMARK    1  A    between atoms: C_1  and  C_2
REMARK    2  A    between atoms: C_5  and  O_7
REMARK    3  A    between atoms: C_10  and  C_11
REMARK    4  A    between atoms: C_16  and  C_17
REMARK    5  A    between atoms: C_16  and  C_18
REMARK    6  A    between atoms: C_19  and  C_21
REMARK    7  A    between atoms: C_21  and  C_22
REMARK    8  A    between atoms: C_22  and  O_23
REMARK    9  A    between atoms: O_23  and  C_24
REMARK   10  A    between atoms: C_29  and  C_31
REMARK                            x       y       z     vdW  Elec       q    Type
REMARK                         _______ _______ _______ _____ _____    ______ ____
ROOT
ATOM      1  C   LIG A   1      -3.382   2.924 132.736  0.00  0.00    +0.022 C 
ATOM      2  C   LIG A   1      -4.023   3.741 131.588  0.00  0.00    +0.058 C 
ATOM      3  C   LIG A   1      -5.485   4.144 131.781  0.00  0.00    -0.036 C 
ATOM      4  C   LIG A   1      -5.882   5.407 131.556  0.00  0.00    +0.092 C 
ATOM      5  C   LIG A   1      -4.270   2.768 130.408  0.00  0.00    +0.130 C 
ATOM      6  C   LIG A   1      -5.607   2.025 130.744  0.00  0.00    +0.052 C 
ATOM      7  C   LIG A   1      -6.401   2.909 131.754  0.00  0.00    +0.065 C 
ATOM      8  C   LIG A   1      -7.985   3.080 131.492  0.00  0.00    +0.046 C 
ATOM      9  C   LIG A   1      -8.615   1.647 131.315  0.00  0.00    +0.021 C 
ATOM     10  C   LIG A   1      -8.351   3.558 132.885  0.00  0.00    +0.116 C 
ATOM     11  O   LIG A   1      -7.578   2.917 133.835  0.00  0.00    -0.464 OA
ATOM     12  C   LIG A   1      -9.102   4.586 133.255  0.00  0.00    +0.089 C 
ATOM     13  C   LIG A   1      -9.695   5.477 132.267  0.00  0.00    +0.165 C 
ATOM     14  C   LIG A   1      -9.664   5.125 130.775  0.00  0.00    +0.032 C 
ATOM     15  C   LIG A   1     -11.126   4.671 130.506  0.00  0.00    +0.019 C 
ATOM     16  C   LIG A   1      -9.439   6.456 130.022  0.00  0.00    +0.019 C 
ATOM     17  C   LIG A   1      -8.661   3.953 130.332  0.00  0.00    +0.027 C 
ATOM     18  O   LIG A   1     -10.255   6.486 132.701  0.00  0.00    -0.292 OA
ATOM     19  C   LIG A   1      -6.507   2.322 133.189  0.00  0.00    +0.109 C 
ATOM     20  C   LIG A   1      -5.917   1.281 133.788  0.00  0.00    +0.054 C 
ATOM     21  C   LIG A   1      -3.151   5.016 131.335  0.00  0.00    +0.222 C 
ATOM     22  O   LIG A   1      -3.794   5.937 130.456  0.00  0.00    -0.452 OA
ATOM     23  C   LIG A   1      -5.030   6.367 130.823  0.00  0.00    +0.333 C 
ATOM     24  O   LIG A   1      -5.480   7.447 130.477  0.00  0.00    -0.246 OA
ENDROOT
BRANCH  21  25
ATOM     25  C   LIG A   1      -2.650   5.752 132.583  0.00  0.00    +0.031 A 
ATOM     26  C   LIG A   1      -1.332   5.957 132.957  0.00  0.00    +0.202 A 
ATOM     27  O   LIG A   1      -1.244   6.651 134.118  0.00  0.00    -0.471 OA
ATOM     28  C   LIG A   1      -2.509   6.945 134.499  0.00  0.00    +0.195 A 
ATOM     29  C   LIG A   1      -3.406   6.436 133.591  0.00  0.00    +0.048 A 
ENDBRANCH  21  25
BRANCH   5  30
ATOM     30  O   LIG A   1      -4.441   3.426 129.156  0.00  0.00    -0.391 OA
ATOM     31  H   LIG A   1      -5.170   2.992 128.676  0.00  0.00    +0.210 HD
ENDBRANCH   5  30
BRANCH  17  32
ATOM     32  C   LIG A   1      -7.777   4.223 129.085  0.00  0.00    +0.126 C 
BRANCH  32  33
ATOM     33  C   LIG A   1      -7.853   3.140 128.028  0.00  0.00    +0.307 C 
ATOM     34  O   LIG A   1      -8.825   2.397 127.861  0.00  0.00    -0.251 OA
BRANCH  33  35
ATOM     35  O   LIG A   1      -6.691   3.059 127.332  0.00  0.00    -0.468 OA
ATOM     36  C   LIG A   1      -6.563   4.012 126.274  0.00  0.00    +0.280 C 
ENDBRANCH  33  35
ENDBRANCH  32  33
ENDBRANCH  17  32
TORSDOF 5
ENDMDL
MODEL 6
REMARK VINA RESULT:      -7.8      2.625      6.532
REMARK  Name = NuBBE_1467
REMARK  10 active torsions:
REMARK  status: ('A' for Active; 'I' for Inactive)
REMARK    1  A    between atoms: C_1  and  C_2
REMARK    2  A    between atoms: C_5  and  O_7
REMARK    3  A    between atoms: C_10  and  C_11
REMARK    4  A    between atoms: C_16  and  C_17
REMARK    5  A    between atoms: C_16  and  C_18
REMARK    6  A    between atoms: C_19  and  C_21
REMARK    7  A    between atoms: C_21  and  C_22
REMARK    8  A    between atoms: C_22  and  O_23
REMARK    9  A    between atoms: O_23  and  C_24
REMARK   10  A    between atoms: C_29  and  C_31
REMARK                            x       y       z     vdW  Elec       q    Type
REMARK                         _______ _______ _______ _____ _____    ______ ____
ROOT
ATOM      1  C   LIG A   1      -3.955   4.665 134.793  0.00  0.00    +0.022 C 
ATOM      2  C   LIG A   1      -4.355   3.746 133.613  0.00  0.00    +0.058 C 
ATOM      3  C   LIG A   1      -5.582   4.178 132.808  0.00  0.00    -0.036 C 
ATOM      4  C   LIG A   1      -5.544   4.205 131.466  0.00  0.00    +0.092 C 
ATOM      5  C   LIG A   1      -4.988   2.467 134.214  0.00  0.00    +0.130 C 
ATOM      6  C   LIG A   1      -6.473   2.842 134.541  0.00  0.00    +0.052 C 
ATOM      7  C   LIG A   1      -6.859   4.068 133.658  0.00  0.00    +0.065 C 
ATOM      8  C   LIG A   1      -8.307   4.032 132.944  0.00  0.00    +0.046 C 
ATOM      9  C   LIG A   1      -9.391   3.709 134.040  0.00  0.00    +0.021 C 
ATOM     10  C   LIG A   1      -8.402   5.517 132.646  0.00  0.00    +0.116 C 
ATOM     11  O   LIG A   1      -7.832   6.253 133.668  0.00  0.00    -0.464 OA
ATOM     12  C   LIG A   1      -8.740   6.133 131.522  0.00  0.00    +0.089 C 
ATOM     13  C   LIG A   1      -9.060   5.377 130.318  0.00  0.00    +0.165 C 
ATOM     14  C   LIG A   1      -9.243   3.856 130.373  0.00  0.00    +0.032 C 
ATOM     15  C   LIG A   1     -10.787   3.699 130.276  0.00  0.00    +0.019 C 
ATOM     16  C   LIG A   1      -8.632   3.300 129.066  0.00  0.00    +0.019 C 
ATOM     17  C   LIG A   1      -8.721   3.114 131.698  0.00  0.00    +0.027 C 
ATOM     18  O   LIG A   1      -9.220   6.030 129.284  0.00  0.00    -0.292 OA
ATOM     19  C   LIG A   1      -7.066   5.395 134.440  0.00  0.00    +0.109 C 
ATOM     20  C   LIG A   1      -6.823   5.745 135.709  0.00  0.00    +0.054 C 
ATOM     21  C   LIG A   1      -3.123   3.593 132.660  0.00  0.00    +0.222 C 
ATOM     22  O   LIG A   1      -3.473   2.956 131.432  0.00  0.00    -0.452 OA
ATOM     23  C   LIG A   1      -4.468   3.533 130.708  0.00  0.00    +0.333 C 
ATOM     24  O   LIG A   1      -4.550   3.420 129.496  0.00  0.00    -0.246 OA
ENDROOT
BRANCH  21  25
ATOM     25  C   LIG A   1      -2.327   4.872 132.372  0.00  0.00    +0.031 A 
ATOM     26  C   LIG A   1      -0.965   5.060 132.541  0.00  0.00    +0.202 A 
ATOM     27  O   LIG A   1      -0.587   6.313 132.187  0.00  0.00    -0.471 OA
ATOM     28  C   LIG A   1      -1.695   6.949 131.741  0.00  0.00    +0.195 A 
ATOM     29  C   LIG A   1      -2.782   6.112 131.815  0.00  0.00    +0.048 A 
ENDBRANCH  21  25
BRANCH   5  30
ATOM     30  O   LIG A   1      -5.007   1.365 133.312  0.00  0.00    -0.391 OA
ATOM     31  H   LIG A   1      -5.821   0.851 133.468  0.00  0.00    +0.210 HD
ENDBRANCH   5  30
BRANCH  17  32
ATOM     32  C   LIG A   1      -7.878   1.828 131.493  0.00  0.00    +0.126 C 
BRANCH  32  33
ATOM     33  C   LIG A   1      -8.502   0.580 132.087  0.00  0.00    +0.307 C 
ATOM     34  O   LIG A   1      -9.652   0.198 131.851  0.00  0.00    -0.251 OA
BRANCH  33  35
ATOM     35  O   LIG A   1      -7.650  -0.023 132.953  0.00  0.00    -0.468 OA
ATOM     36  C   LIG A   1      -7.579  -1.445 132.824  0.00  0.00    +0.280 C 
ENDBRANCH  33  35
ENDBRANCH  32  33
ENDBRANCH  17  32
TORSDOF 5
ENDMDL
MODEL 7
REMARK VINA RESULT:      -7.7      3.982      7.507
REMARK  Name = NuBBE_1467
REMARK  10 active torsions:
REMARK  status: ('A' for Active; 'I' for Inactive)
REMARK    1  A    between atoms: C_1  and  C_2
REMARK    2  A    between atoms: C_5  and  O_7
REMARK    3  A    between atoms: C_10  and  C_11
REMARK    4  A    between atoms: C_16  and  C_17
REMARK    5  A    between atoms: C_16  and  C_18
REMARK    6  A    between atoms: C_19  and  C_21
REMARK    7  A    between atoms: C_21  and  C_22
REMARK    8  A    between atoms: C_22  and  O_23
REMARK    9  A    between atoms: O_23  and  C_24
REMARK   10  A    between atoms: C_29  and  C_31
REMARK                            x       y       z     vdW  Elec       q    Type
REMARK                         _______ _______ _______ _____ _____    ______ ____
ROOT
ATOM      1  C   LIG A   1      -7.285   2.671 129.609  0.00  0.00    +0.022 C 
ATOM      2  C   LIG A   1      -6.766   1.890 130.840  0.00  0.00    +0.058 C 
ATOM      3  C   LIG A   1      -6.108   0.539 130.555  0.00  0.00    -0.036 C 
ATOM      4  C   LIG A   1      -4.927   0.223 131.110  0.00  0.00    +0.092 C 
ATOM      5  C   LIG A   1      -8.000   1.323 131.584  0.00  0.00    +0.130 C 
ATOM      6  C   LIG A   1      -8.398   0.019 130.814  0.00  0.00    +0.052 C 
ATOM      7  C   LIG A   1      -7.141  -0.472 130.031  0.00  0.00    +0.065 C 
ATOM      8  C   LIG A   1      -6.821  -2.054 130.075  0.00  0.00    +0.046 C 
ATOM      9  C   LIG A   1      -8.129  -2.835 129.673  0.00  0.00    +0.021 C 
ATOM     10  C   LIG A   1      -5.895  -2.087 128.873  0.00  0.00    +0.116 C 
ATOM     11  O   LIG A   1      -6.328  -1.202 127.904  0.00  0.00    -0.464 OA
ATOM     12  C   LIG A   1      -4.703  -2.652 128.739  0.00  0.00    +0.089 C 
ATOM     13  C   LIG A   1      -4.073  -3.347 129.854  0.00  0.00    +0.165 C 
ATOM     14  C   LIG A   1      -4.860  -3.649 131.135  0.00  0.00    +0.032 C 
ATOM     15  C   LIG A   1      -5.147  -5.171 131.002  0.00  0.00    +0.019 C 
ATOM     16  C   LIG A   1      -3.867  -3.459 132.306  0.00  0.00    +0.019 C 
ATOM     17  C   LIG A   1      -6.247  -2.866 131.330  0.00  0.00    +0.027 C 
ATOM     18  O   LIG A   1      -2.908  -3.714 129.687  0.00  0.00    -0.292 OA
ATOM     19  C   LIG A   1      -7.245  -0.341 128.486  0.00  0.00    +0.109 C 
ATOM     20  C   LIG A   1      -8.133   0.260 127.685  0.00  0.00    +0.054 C 
ATOM     21  C   LIG A   1      -5.773   2.807 131.630  0.00  0.00    +0.222 C 
ATOM     22  O   LIG A   1      -5.074   2.087 132.645  0.00  0.00    -0.452 OA
ATOM     23  C   LIG A   1      -4.373   0.994 132.243  0.00  0.00    +0.333 C 
ATOM     24  O   LIG A   1      -3.393   0.585 132.842  0.00  0.00    -0.246 OA
ENDROOT
BRANCH  21  25
ATOM     25  C   LIG A   1      -4.779   3.613 130.787  0.00  0.00    +0.031 A 
ATOM     26  C   LIG A   1      -4.494   4.964 130.901  0.00  0.00    +0.202 A 
ATOM     27  O   LIG A   1      -3.561   5.355 129.998  0.00  0.00    -0.471 OA
ATOM     28  C   LIG A   1      -3.192   4.251 129.307  0.00  0.00    +0.195 A 
ATOM     29  C   LIG A   1      -3.890   3.157 129.758  0.00  0.00    +0.048 A 
ENDBRANCH  21  25
BRANCH   5  30
ATOM     30  O   LIG A   1      -7.733   0.964 132.936  0.00  0.00    -0.391 OA
ATOM     31  H   LIG A   1      -6.781   0.776 133.024  0.00  0.00    +0.210 HD
ENDBRANCH   5  30
BRANCH  17  32
ATOM     32  C   LIG A   1      -6.502  -2.230 132.723  0.00  0.00    +0.126 C 
BRANCH  32  33
ATOM     33  C   LIG A   1      -7.485  -2.999 133.582  0.00  0.00    +0.307 C 
ATOM     34  O   LIG A   1      -8.561  -2.546 133.984  0.00  0.00    -0.251 OA
BRANCH  33  35
ATOM     35  O   LIG A   1      -6.998  -4.226 133.895  0.00  0.00    -0.468 OA
ATOM     36  C   LIG A   1      -7.548  -4.799 135.084  0.00  0.00    +0.280 C 
ENDBRANCH  33  35
ENDBRANCH  32  33
ENDBRANCH  17  32
TORSDOF 5
ENDMDL
MODEL 8
REMARK VINA RESULT:      -7.6      5.372      8.379
REMARK  Name = NuBBE_1467
REMARK  10 active torsions:
REMARK  status: ('A' for Active; 'I' for Inactive)
REMARK    1  A    between atoms: C_1  and  C_2
REMARK    2  A    between atoms: C_5  and  O_7
REMARK    3  A    between atoms: C_10  and  C_11
REMARK    4  A    between atoms: C_16  and  C_17
REMARK    5  A    between atoms: C_16  and  C_18
REMARK    6  A    between atoms: C_19  and  C_21
REMARK    7  A    between atoms: C_21  and  C_22
REMARK    8  A    between atoms: C_22  and  O_23
REMARK    9  A    between atoms: O_23  and  C_24
REMARK   10  A    between atoms: C_29  and  C_31
REMARK                            x       y       z     vdW  Elec       q    Type
REMARK                         _______ _______ _______ _____ _____    ______ ____
ROOT
ATOM      1  C   LIG A   1      -7.574   0.119 129.064  0.00  0.00    +0.022 C 
ATOM      2  C   LIG A   1      -6.243  -0.607 129.377  0.00  0.00    +0.058 C 
ATOM      3  C   LIG A   1      -6.240  -1.507 130.613  0.00  0.00    -0.036 C 
ATOM      4  C   LIG A   1      -5.744  -2.753 130.551  0.00  0.00    +0.092 C 
ATOM      5  C   LIG A   1      -5.258   0.450 129.935  0.00  0.00    +0.130 C 
ATOM      6  C   LIG A   1      -5.626   0.617 131.448  0.00  0.00    +0.052 C 
ATOM      7  C   LIG A   1      -6.380  -0.672 131.898  0.00  0.00    +0.065 C 
ATOM      8  C   LIG A   1      -5.968  -1.304 133.325  0.00  0.00    +0.046 C 
ATOM      9  C   LIG A   1      -6.023  -0.161 134.407  0.00  0.00    +0.021 C 
ATOM     10  C   LIG A   1      -7.209  -2.157 133.514  0.00  0.00    +0.116 C 
ATOM     11  O   LIG A   1      -8.323  -1.507 133.015  0.00  0.00    -0.464 OA
ATOM     12  C   LIG A   1      -7.314  -3.430 133.869  0.00  0.00    +0.089 C 
ATOM     13  C   LIG A   1      -6.128  -4.241 134.113  0.00  0.00    +0.165 C 
ATOM     14  C   LIG A   1      -4.740  -3.596 134.194  0.00  0.00    +0.032 C 
ATOM     15  C   LIG A   1      -4.451  -3.612 135.722  0.00  0.00    +0.019 C 
ATOM     16  C   LIG A   1      -3.763  -4.588 133.521  0.00  0.00    +0.019 C 
ATOM     17  C   LIG A   1      -4.611  -2.091 133.651  0.00  0.00    +0.027 C 
ATOM     18  O   LIG A   1      -6.314  -5.447 134.296  0.00  0.00    -0.292 OA
ATOM     19  C   LIG A   1      -7.889  -0.467 132.209  0.00  0.00    +0.109 C 
ATOM     20  C   LIG A   1      -8.722   0.562 132.016  0.00  0.00    +0.054 C 
ATOM     21  C   LIG A   1      -5.817  -1.434 128.118  0.00  0.00    +0.222 C 
ATOM     22  O   LIG A   1      -4.729  -2.313 128.400  0.00  0.00    -0.452 OA
ATOM     23  C   LIG A   1      -4.908  -3.197 129.416  0.00  0.00    +0.333 C 
ATOM     24  O   LIG A   1      -4.326  -4.269 129.465  0.00  0.00    -0.246 OA
ENDROOT
BRANCH  21  25
ATOM     25  C   LIG A   1      -6.934  -2.204 127.405  0.00  0.00    +0.031 A 
ATOM     26  C   LIG A   1      -7.076  -2.389 126.039  0.00  0.00    +0.202 A 
ATOM     27  O   LIG A   1      -8.178  -3.124 125.747  0.00  0.00    -0.471 OA
ATOM     28  C   LIG A   1      -8.750  -3.463 126.926  0.00  0.00    +0.195 A 
ATOM     29  C   LIG A   1      -8.024  -2.944 127.970  0.00  0.00    +0.048 A 
ENDBRANCH  21  25
BRANCH   5  30
ATOM     30  O   LIG A   1      -3.893   0.050 129.861  0.00  0.00    -0.391 OA
ATOM     31  H   LIG A   1      -3.448   0.589 129.183  0.00  0.00    +0.210 HD
ENDBRANCH   5  30
BRANCH  17  32
ATOM     32  C   LIG A   1      -3.409  -1.784 132.720  0.00  0.00    +0.126 C 
BRANCH  32  33
ATOM     33  C   LIG A   1      -2.360  -0.883 133.342  0.00  0.00    +0.307 C 
ATOM     34  O   LIG A   1      -2.531   0.314 133.592  0.00  0.00    -0.251 OA
BRANCH  33  35
ATOM     35  O   LIG A   1      -1.197  -1.554 133.532  0.00  0.00    -0.468 OA
ATOM     36  C   LIG A   1      -0.982  -2.005 134.872  0.00  0.00    +0.280 C 
ENDBRANCH  33  35
ENDBRANCH  32  33
ENDBRANCH  17  32
TORSDOF 5
ENDMDL
MODEL 9
REMARK VINA RESULT:      -7.5      2.075      6.048
REMARK  Name = NuBBE_1467
REMARK  10 active torsions:
REMARK  status: ('A' for Active; 'I' for Inactive)
REMARK    1  A    between atoms: C_1  and  C_2
REMARK    2  A    between atoms: C_5  and  O_7
REMARK    3  A    between atoms: C_10  and  C_11
REMARK    4  A    between atoms: C_16  and  C_17
REMARK    5  A    between atoms: C_16  and  C_18
REMARK    6  A    between atoms: C_19  and  C_21
REMARK    7  A    between atoms: C_21  and  C_22
REMARK    8  A    between atoms: C_22  and  O_23
REMARK    9  A    between atoms: O_23  and  C_24
REMARK   10  A    between atoms: C_29  and  C_31
REMARK                            x       y       z     vdW  Elec       q    Type
REMARK                         _______ _______ _______ _____ _____    ______ ____
ROOT
ATOM      1  C   LIG A   1      -7.826  -0.176 129.996  0.00  0.00    +0.022 C 
ATOM      2  C   LIG A   1      -8.142   1.340 129.980  0.00  0.00    +0.058 C 
ATOM      3  C   LIG A   1      -7.003   2.271 130.397  0.00  0.00    -0.036 C 
ATOM      4  C   LIG A   1      -6.693   3.347 129.655  0.00  0.00    +0.092 C 
ATOM      5  C   LIG A   1      -9.055   1.636 131.196  0.00  0.00    +0.130 C 
ATOM      6  C   LIG A   1      -8.096   1.758 132.428  0.00  0.00    +0.052 C 
ATOM      7  C   LIG A   1      -6.672   2.097 131.889  0.00  0.00    +0.065 C 
ATOM      8  C   LIG A   1      -5.843   3.239 132.674  0.00  0.00    +0.046 C 
ATOM      9  C   LIG A   1      -5.842   2.883 134.208  0.00  0.00    +0.021 C 
ATOM     10  C   LIG A   1      -4.473   2.876 132.131  0.00  0.00    +0.116 C 
ATOM     11  O   LIG A   1      -4.357   1.506 131.986  0.00  0.00    -0.464 OA
ATOM     12  C   LIG A   1      -3.533   3.658 131.618  0.00  0.00    +0.089 C 
ATOM     13  C   LIG A   1      -3.745   5.093 131.476  0.00  0.00    +0.165 C 
ATOM     14  C   LIG A   1      -4.956   5.774 132.123  0.00  0.00    +0.032 C 
ATOM     15  C   LIG A   1      -4.322   6.496 133.345  0.00  0.00    +0.019 C 
ATOM     16  C   LIG A   1      -5.424   6.859 131.126  0.00  0.00    +0.019 C 
ATOM     17  C   LIG A   1      -6.136   4.813 132.634  0.00  0.00    +0.027 C 
ATOM     18  O   LIG A   1      -2.881   5.718 130.858  0.00  0.00    -0.292 OA
ATOM     19  C   LIG A   1      -5.628   0.958 132.050  0.00  0.00    +0.109 C 
ATOM     20  C   LIG A   1      -5.736  -0.326 132.413  0.00  0.00    +0.054 C 
ATOM     21  C   LIG A   1      -8.649   1.729 128.552  0.00  0.00    +0.222 C 
ATOM     22  O   LIG A   1      -8.741   3.143 128.384  0.00  0.00    -0.452 OA
ATOM     23  C   LIG A   1      -7.608   3.858 128.614  0.00  0.00    +0.333 C 
ATOM     24  O   LIG A   1      -7.390   4.932 128.078  0.00  0.00    -0.246 OA
ENDROOT
BRANCH  21  25
ATOM     25  C   LIG A   1      -7.886   1.115 127.372  0.00  0.00    +0.031 A 
ATOM     26  C   LIG A   1      -8.399   0.279 126.393  0.00  0.00    +0.202 A 
ATOM     27  O   LIG A   1      -7.449  -0.079 125.495  0.00  0.00    -0.471 OA
ATOM     28  C   LIG A   1      -6.307   0.554 125.854  0.00  0.00    +0.195 A 
ATOM     29  C   LIG A   1      -6.521   1.309 126.981  0.00  0.00    +0.048 A 
ENDBRANCH  21  25
BRANCH   5  30
ATOM     30  O   LIG A   1      -9.774   2.860 131.081  0.00  0.00    -0.391 OA
ATOM     31  H   LIG A   1     -10.606   2.687 130.605  0.00  0.00    +0.210 HD
ENDBRANCH   5  30
BRANCH  17  32
ATOM     32  C   LIG A   1      -7.585   5.223 132.259  0.00  0.00    +0.126 C 
BRANCH  32  33
ATOM     33  C   LIG A   1      -8.375   5.816 133.409  0.00  0.00    +0.307 C 
ATOM     34  O   LIG A   1      -8.031   5.759 134.593  0.00  0.00    -0.251 OA
BRANCH  33  35
ATOM     35  O   LIG A   1      -9.536   6.364 132.967  0.00  0.00    -0.468 OA
ATOM     36  C   LIG A   1      -9.701   6.343 131.547  0.00  0.00    +0.280 C 
ENDBRANCH  33  35
ENDBRANCH  32  33
ENDBRANCH  17  32
TORSDOF 5
ENDMDL
