MODEL 1
REMARK VINA RESULT:      -5.3      0.000      0.000
REMARK  Name = NuBBE_1381
REMARK  7 active torsions:
REMARK  status: ('A' for Active; 'I' for Inactive)
REMARK    1  A    between atoms: C_1  and  C_2
REMARK    2  A    between atoms: C_2  and  C_3
REMARK    3  A    between atoms: C_4  and  C_5
REMARK    4  A    between atoms: C_5  and  C_6
REMARK    5  A    between atoms: C_6  and  C_7
REMARK    6  A    between atoms: C_7  and  C_8
REMARK    7  A    between atoms: C_9  and  C_10
REMARK                            x       y       z     vdW  Elec       q    Type
REMARK                         _______ _______ _______ _____ _____    ______ ____
ROOT
ATOM      1  C   LIG A   1      -7.316  -3.670 124.216  0.00  0.00    +0.034 C 
ENDROOT
BRANCH   1   2
ATOM      2  C   LIG A   1      -6.121  -2.832 123.807  0.00  0.00    -0.069 C 
ATOM      3  C   LIG A   1      -6.415  -1.369 123.590  0.00  0.00    +0.039 C 
ATOM      4  C   LIG A   1      -4.863  -3.289 123.656  0.00  0.00    +0.041 C 
BRANCH   4   5
ATOM      5  C   LIG A   1      -4.436  -4.696 123.819  0.00  0.00    +0.251 C 
ATOM      6  O   LIG A   1      -4.162  -5.389 122.846  0.00  0.00    -0.296 OA
ENDBRANCH   4   5
ENDBRANCH   1   2
BRANCH   1   7
ATOM      7  C   LIG A   1      -8.432  -2.829 124.850  0.00  0.00    +0.031 C 
BRANCH   7  11
ATOM      8  C   LIG A   1      -8.574  -3.521 128.716  0.00  0.00    +0.038 C 
ATOM      9  C   LIG A   1      -8.110  -2.960 127.394  0.00  0.00    -0.080 C 
ATOM     10  C   LIG A   1      -6.929  -2.037 127.507  0.00  0.00    +0.038 C 
ATOM     11  C   LIG A   1      -8.741  -3.291 126.250  0.00  0.00    -0.028 C 
ENDBRANCH   7  11
ENDBRANCH   1   7
TORSDOF 4
ENDMDL
MODEL 2
REMARK VINA RESULT:      -5.3     12.992     14.466
REMARK  Name = NuBBE_1381
REMARK  7 active torsions:
REMARK  status: ('A' for Active; 'I' for Inactive)
REMARK    1  A    between atoms: C_1  and  C_2
REMARK    2  A    between atoms: C_2  and  C_3
REMARK    3  A    between atoms: C_4  and  C_5
REMARK    4  A    between atoms: C_5  and  C_6
REMARK    5  A    between atoms: C_6  and  C_7
REMARK    6  A    between atoms: C_7  and  C_8
REMARK    7  A    between atoms: C_9  and  C_10
REMARK                            x       y       z     vdW  Elec       q    Type
REMARK                         _______ _______ _______ _____ _____    ______ ____
ROOT
ATOM      1  C   LIG A   1     -12.826   8.299 130.770  0.00  0.00    +0.034 C 
ENDROOT
BRANCH   1   2
ATOM      2  C   LIG A   1     -12.866   9.053 129.456  0.00  0.00    -0.069 C 
ATOM      3  C   LIG A   1     -12.508   8.234 128.242  0.00  0.00    +0.039 C 
ATOM      4  C   LIG A   1     -13.213  10.346 129.309  0.00  0.00    +0.041 C 
BRANCH   4   5
ATOM      5  C   LIG A   1     -13.571  11.269 130.410  0.00  0.00    +0.251 C 
ATOM      6  O   LIG A   1     -13.543  12.484 130.248  0.00  0.00    -0.296 OA
ENDBRANCH   4   5
ENDBRANCH   1   2
BRANCH   1   7
ATOM      7  C   LIG A   1     -12.467   6.818 130.585  0.00  0.00    +0.031 C 
BRANCH   7  11
ATOM      8  C   LIG A   1      -9.241   5.965 132.660  0.00  0.00    +0.038 C 
ATOM      9  C   LIG A   1     -10.105   6.465 131.529  0.00  0.00    -0.080 C 
ATOM     10  C   LIG A   1      -9.328   7.053 130.384  0.00  0.00    +0.038 C 
ATOM     11  C   LIG A   1     -11.448   6.369 131.599  0.00  0.00    -0.028 C 
ENDBRANCH   7  11
ENDBRANCH   1   7
TORSDOF 4
ENDMDL
MODEL 3
REMARK VINA RESULT:      -5.2     11.208     12.525
REMARK  Name = NuBBE_1381
REMARK  7 active torsions:
REMARK  status: ('A' for Active; 'I' for Inactive)
REMARK    1  A    between atoms: C_1  and  C_2
REMARK    2  A    between atoms: C_2  and  C_3
REMARK    3  A    between atoms: C_4  and  C_5
REMARK    4  A    between atoms: C_5  and  C_6
REMARK    5  A    between atoms: C_6  and  C_7
REMARK    6  A    between atoms: C_7  and  C_8
REMARK    7  A    between atoms: C_9  and  C_10
REMARK                            x       y       z     vdW  Elec       q    Type
REMARK                         _______ _______ _______ _____ _____    ______ ____
ROOT
ATOM      1  C   LIG A   1     -13.122   7.136 129.115  0.00  0.00    +0.034 C 
ENDROOT
BRANCH   1   2
ATOM      2  C   LIG A   1     -12.496   8.396 128.553  0.00  0.00    -0.069 C 
ATOM      3  C   LIG A   1     -13.214   9.674 128.903  0.00  0.00    +0.039 C 
ATOM      4  C   LIG A   1     -11.372   8.444 127.812  0.00  0.00    +0.041 C 
BRANCH   4   5
ATOM      5  C   LIG A   1     -10.578   7.273 127.381  0.00  0.00    +0.251 C 
ATOM      6  O   LIG A   1     -10.773   6.743 126.293  0.00  0.00    -0.296 OA
ENDBRANCH   4   5
ENDBRANCH   1   2
BRANCH   1   7
ATOM      7  C   LIG A   1     -13.031   7.069 130.647  0.00  0.00    +0.031 C 
BRANCH   7  11
ATOM      8  C   LIG A   1      -9.280   6.348 131.569  0.00  0.00    +0.038 C 
ATOM      9  C   LIG A   1     -10.680   6.120 131.057  0.00  0.00    -0.080 C 
ATOM     10  C   LIG A   1     -10.908   4.741 130.503  0.00  0.00    +0.038 C 
ATOM     11  C   LIG A   1     -11.599   7.105 131.113  0.00  0.00    -0.028 C 
ENDBRANCH   7  11
ENDBRANCH   1   7
TORSDOF 4
ENDMDL
MODEL 4
REMARK VINA RESULT:      -4.9      2.625      4.599
REMARK  Name = NuBBE_1381
REMARK  7 active torsions:
REMARK  status: ('A' for Active; 'I' for Inactive)
REMARK    1  A    between atoms: C_1  and  C_2
REMARK    2  A    between atoms: C_2  and  C_3
REMARK    3  A    between atoms: C_4  and  C_5
REMARK    4  A    between atoms: C_5  and  C_6
REMARK    5  A    between atoms: C_6  and  C_7
REMARK    6  A    between atoms: C_7  and  C_8
REMARK    7  A    between atoms: C_9  and  C_10
REMARK                            x       y       z     vdW  Elec       q    Type
REMARK                         _______ _______ _______ _____ _____    ______ ____
ROOT
ATOM      1  C   LIG A   1      -9.412  -2.986 125.667  0.00  0.00    +0.034 C 
ENDROOT
BRANCH   1   2
ATOM      2  C   LIG A   1      -8.716  -1.784 126.273  0.00  0.00    -0.069 C 
ATOM      3  C   LIG A   1      -8.883  -0.498 125.505  0.00  0.00    +0.039 C 
ATOM      4  C   LIG A   1      -8.007  -1.790 127.419  0.00  0.00    +0.041 C 
BRANCH   4   5
ATOM      5  C   LIG A   1      -7.749  -2.978 128.262  0.00  0.00    +0.251 C 
ATOM      6  O   LIG A   1      -8.568  -3.351 129.094  0.00  0.00    -0.296 OA
ENDBRANCH   4   5
ENDBRANCH   1   2
BRANCH   1   7
ATOM      7  C   LIG A   1      -8.856  -3.350 124.283  0.00  0.00    +0.031 C 
BRANCH   7  11
ATOM      8  C   LIG A   1      -4.948  -3.654 124.004  0.00  0.00    +0.038 C 
ATOM      9  C   LIG A   1      -6.344  -3.117 123.805  0.00  0.00    -0.080 C 
ATOM     10  C   LIG A   1      -6.401  -1.872 122.965  0.00  0.00    +0.038 C 
ATOM     11  C   LIG A   1      -7.403  -3.739 124.360  0.00  0.00    -0.028 C 
ENDBRANCH   7  11
ENDBRANCH   1   7
TORSDOF 4
ENDMDL
MODEL 5
REMARK VINA RESULT:      -4.9      2.943      4.934
REMARK  Name = NuBBE_1381
REMARK  7 active torsions:
REMARK  status: ('A' for Active; 'I' for Inactive)
REMARK    1  A    between atoms: C_1  and  C_2
REMARK    2  A    between atoms: C_2  and  C_3
REMARK    3  A    between atoms: C_4  and  C_5
REMARK    4  A    between atoms: C_5  and  C_6
REMARK    5  A    between atoms: C_6  and  C_7
REMARK    6  A    between atoms: C_7  and  C_8
REMARK    7  A    between atoms: C_9  and  C_10
REMARK                            x       y       z     vdW  Elec       q    Type
REMARK                         _______ _______ _______ _____ _____    ______ ____
ROOT
ATOM      1  C   LIG A   1      -9.417  -3.061 125.737  0.00  0.00    +0.034 C 
ENDROOT
BRANCH   1   2
ATOM      2  C   LIG A   1      -8.565  -2.113 126.557  0.00  0.00    -0.069 C 
ATOM      3  C   LIG A   1      -7.795  -2.760 127.680  0.00  0.00    +0.039 C 
ATOM      4  C   LIG A   1      -8.440  -0.790 126.337  0.00  0.00    +0.041 C 
BRANCH   4   5
ATOM      5  C   LIG A   1      -9.145  -0.024 125.287  0.00  0.00    +0.251 C 
ATOM      6  O   LIG A   1     -10.292   0.374 125.458  0.00  0.00    -0.296 OA
ENDBRANCH   4   5
ENDBRANCH   1   2
BRANCH   1   7
ATOM      7  C   LIG A   1      -8.863  -3.270 124.320  0.00  0.00    +0.031 C 
BRANCH   7  11
ATOM      8  C   LIG A   1      -4.968  -3.687 124.009  0.00  0.00    +0.038 C 
ATOM      9  C   LIG A   1      -6.342  -3.079 123.872  0.00  0.00    -0.080 C 
ATOM     10  C   LIG A   1      -6.349  -1.745 123.179  0.00  0.00    +0.038 C 
ATOM     11  C   LIG A   1      -7.426  -3.719 124.353  0.00  0.00    -0.028 C 
ENDBRANCH   7  11
ENDBRANCH   1   7
TORSDOF 4
ENDMDL
MODEL 6
REMARK VINA RESULT:      -4.8      1.848      4.432
REMARK  Name = NuBBE_1381
REMARK  7 active torsions:
REMARK  status: ('A' for Active; 'I' for Inactive)
REMARK    1  A    between atoms: C_1  and  C_2
REMARK    2  A    between atoms: C_2  and  C_3
REMARK    3  A    between atoms: C_4  and  C_5
REMARK    4  A    between atoms: C_5  and  C_6
REMARK    5  A    between atoms: C_6  and  C_7
REMARK    6  A    between atoms: C_7  and  C_8
REMARK    7  A    between atoms: C_9  and  C_10
REMARK                            x       y       z     vdW  Elec       q    Type
REMARK                         _______ _______ _______ _____ _____    ______ ____
ROOT
ATOM      1  C   LIG A   1      -8.885  -2.339 125.827  0.00  0.00    +0.034 C 
ENDROOT
BRANCH   1   2
ATOM      2  C   LIG A   1      -8.283  -2.868 127.113  0.00  0.00    -0.069 C 
ATOM      3  C   LIG A   1      -9.013  -4.037 127.723  0.00  0.00    +0.039 C 
ATOM      4  C   LIG A   1      -7.170  -2.394 127.705  0.00  0.00    +0.041 C 
BRANCH   4   5
ATOM      5  C   LIG A   1      -6.366  -1.246 127.229  0.00  0.00    +0.251 C 
ATOM      6  O   LIG A   1      -5.263  -1.415 126.723  0.00  0.00    -0.296 OA
ENDBRANCH   4   5
ENDBRANCH   1   2
BRANCH   1   7
ATOM      7  C   LIG A   1      -8.720  -3.318 124.656  0.00  0.00    +0.031 C 
BRANCH   7  11
ATOM      8  C   LIG A   1      -4.924  -3.452 123.651  0.00  0.00    +0.038 C 
ATOM      9  C   LIG A   1      -6.340  -2.945 123.768  0.00  0.00    -0.080 C 
ATOM     10  C   LIG A   1      -6.566  -1.616 123.103  0.00  0.00    +0.038 C 
ATOM     11  C   LIG A   1      -7.272  -3.662 124.427  0.00  0.00    -0.028 C 
ENDBRANCH   7  11
ENDBRANCH   1   7
TORSDOF 4
ENDMDL
MODEL 7
REMARK VINA RESULT:      -4.8      2.257      4.561
REMARK  Name = NuBBE_1381
REMARK  7 active torsions:
REMARK  status: ('A' for Active; 'I' for Inactive)
REMARK    1  A    between atoms: C_1  and  C_2
REMARK    2  A    between atoms: C_2  and  C_3
REMARK    3  A    between atoms: C_4  and  C_5
REMARK    4  A    between atoms: C_5  and  C_6
REMARK    5  A    between atoms: C_6  and  C_7
REMARK    6  A    between atoms: C_7  and  C_8
REMARK    7  A    between atoms: C_9  and  C_10
REMARK                            x       y       z     vdW  Elec       q    Type
REMARK                         _______ _______ _______ _____ _____    ______ ____
ROOT
ATOM      1  C   LIG A   1      -7.641  -1.213 125.402  0.00  0.00    +0.034 C 
ENDROOT
BRANCH   1   2
ATOM      2  C   LIG A   1      -8.227  -2.454 126.044  0.00  0.00    -0.069 C 
ATOM      3  C   LIG A   1      -8.091  -2.519 127.544  0.00  0.00    +0.039 C 
ATOM      4  C   LIG A   1      -8.856  -3.448 125.388  0.00  0.00    +0.041 C 
BRANCH   4   5
ATOM      5  C   LIG A   1      -9.046  -3.524 123.922  0.00  0.00    +0.251 C 
ATOM      6  O   LIG A   1      -9.937  -2.889 123.368  0.00  0.00    -0.296 OA
ENDBRANCH   4   5
ENDBRANCH   1   2
BRANCH   1   7
ATOM      7  C   LIG A   1      -6.112  -1.155 125.525  0.00  0.00    +0.031 C 
BRANCH   7  11
ATOM      8  C   LIG A   1      -4.629  -4.219 123.563  0.00  0.00    +0.038 C 
ATOM      9  C   LIG A   1      -5.306  -2.895 123.818  0.00  0.00    -0.080 C 
ATOM     10  C   LIG A   1      -5.736  -2.182 122.567  0.00  0.00    +0.038 C 
ATOM     11  C   LIG A   1      -5.475  -2.444 125.077  0.00  0.00    -0.028 C 
ENDBRANCH   7  11
ENDBRANCH   1   7
TORSDOF 4
ENDMDL
MODEL 8
REMARK VINA RESULT:      -4.6      2.456      3.225
REMARK  Name = NuBBE_1381
REMARK  7 active torsions:
REMARK  status: ('A' for Active; 'I' for Inactive)
REMARK    1  A    between atoms: C_1  and  C_2
REMARK    2  A    between atoms: C_2  and  C_3
REMARK    3  A    between atoms: C_4  and  C_5
REMARK    4  A    between atoms: C_5  and  C_6
REMARK    5  A    between atoms: C_6  and  C_7
REMARK    6  A    between atoms: C_7  and  C_8
REMARK    7  A    between atoms: C_9  and  C_10
REMARK                            x       y       z     vdW  Elec       q    Type
REMARK                         _______ _______ _______ _____ _____    ______ ____
ROOT
ATOM      1  C   LIG A   1      -8.754  -3.609 124.564  0.00  0.00    +0.034 C 
ENDROOT
BRANCH   1   2
ATOM      2  C   LIG A   1      -7.619  -2.698 124.144  0.00  0.00    -0.069 C 
ATOM      3  C   LIG A   1      -6.243  -3.303 124.257  0.00  0.00    +0.039 C 
ATOM      4  C   LIG A   1      -7.760  -1.444 123.673  0.00  0.00    +0.041 C 
BRANCH   4   5
ATOM      5  C   LIG A   1      -9.042  -0.721 123.525  0.00  0.00    +0.251 C 
ATOM      6  O   LIG A   1      -9.817  -0.990 122.614  0.00  0.00    -0.296 OA
ENDBRANCH   4   5
ENDBRANCH   1   2
BRANCH   1   7
ATOM      7  C   LIG A   1      -9.517  -3.072 125.783  0.00  0.00    +0.031 C 
BRANCH   7  11
ATOM      8  C   LIG A   1      -7.582  -3.497 129.177  0.00  0.00    +0.038 C 
ATOM      9  C   LIG A   1      -8.106  -2.852 127.917  0.00  0.00    -0.080 C 
ATOM     10  C   LIG A   1      -7.666  -1.426 127.736  0.00  0.00    +0.038 C 
ATOM     11  C   LIG A   1      -8.896  -3.543 127.072  0.00  0.00    -0.028 C 
ENDBRANCH   7  11
ENDBRANCH   1   7
TORSDOF 4
ENDMDL
MODEL 9
REMARK VINA RESULT:      -4.5      3.012      4.587
REMARK  Name = NuBBE_1381
REMARK  7 active torsions:
REMARK  status: ('A' for Active; 'I' for Inactive)
REMARK    1  A    between atoms: C_1  and  C_2
REMARK    2  A    between atoms: C_2  and  C_3
REMARK    3  A    between atoms: C_4  and  C_5
REMARK    4  A    between atoms: C_5  and  C_6
REMARK    5  A    between atoms: C_6  and  C_7
REMARK    6  A    between atoms: C_7  and  C_8
REMARK    7  A    between atoms: C_9  and  C_10
REMARK                            x       y       z     vdW  Elec       q    Type
REMARK                         _______ _______ _______ _____ _____    ______ ____
ROOT
ATOM      1  C   LIG A   1      -7.059  -2.351 126.721  0.00  0.00    +0.034 C 
ENDROOT
BRANCH   1   2
ATOM      2  C   LIG A   1      -8.352  -3.142 126.744  0.00  0.00    -0.069 C 
ATOM      3  C   LIG A   1      -8.735  -3.696 128.092  0.00  0.00    +0.039 C 
ATOM      4  C   LIG A   1      -9.158  -3.349 125.684  0.00  0.00    +0.041 C 
BRANCH   4   5
ATOM      5  C   LIG A   1      -8.899  -2.881 124.305  0.00  0.00    +0.251 C 
ATOM      6  O   LIG A   1      -9.786  -2.360 123.639  0.00  0.00    -0.296 OA
ENDBRANCH   4   5
ENDBRANCH   1   2
BRANCH   1   7
ATOM      7  C   LIG A   1      -6.575  -1.980 128.129  0.00  0.00    +0.031 C 
BRANCH   7  11
ATOM      8  C   LIG A   1      -3.192  -3.608 129.290  0.00  0.00    +0.038 C 
ATOM      9  C   LIG A   1      -4.669  -3.309 129.223  0.00  0.00    -0.080 C 
ATOM     10  C   LIG A   1      -5.495  -4.105 130.195  0.00  0.00    +0.038 C 
ATOM     11  C   LIG A   1      -5.145  -2.401 128.347  0.00  0.00    -0.028 C 
ENDBRANCH   7  11
ENDBRANCH   1   7
TORSDOF 4
ENDMDL
