MODEL 1
REMARK VINA RESULT:      -7.7      0.000      0.000
REMARK  Name = NuBBE_1657
REMARK  11 active torsions:
REMARK  status: ('A' for Active; 'I' for Inactive)
REMARK    1  A    between atoms: C_1  and  C_2
REMARK    2  A    between atoms: C_4  and  C_20
REMARK    3  A    between atoms: C_9  and  C_11
REMARK    4  A    between atoms: C_13  and  O_18
REMARK    5  A    between atoms: C_14  and  O_16
REMARK    6  A    between atoms: O_16  and  C_17
REMARK    7  A    between atoms: O_18  and  C_19
REMARK    8  A    between atoms: C_22  and  O_23
REMARK    9  A    between atoms: O_23  and  C_24
REMARK   10  A    between atoms: C_25  and  O_28
REMARK   11  A    between atoms: O_28  and  C_29
REMARK                            x       y       z     vdW  Elec       q    Type
REMARK                         _______ _______ _______ _____ _____    ______ ____
ROOT
ATOM      1  C   LIG A   1      -5.705  -3.644 124.099  0.00  0.00    +0.009 C 
ATOM      2  C   LIG A   1      -6.940  -2.741 123.842  0.00  0.00    +0.001 C 
ATOM      3  C   LIG A   1      -6.699  -1.372 124.580  0.00  0.00    +0.053 C 
ATOM      4  C   LIG A   1      -6.985  -1.500 126.063  0.00  0.00    -0.033 A 
ATOM      5  C   LIG A   1      -7.867  -2.433 126.574  0.00  0.00    -0.040 A 
ATOM      6  C   LIG A   1      -8.543  -3.499 125.754  0.00  0.00    +0.039 C 
ATOM      7  C   LIG A   1      -8.200  -3.564 124.260  0.00  0.00    -0.006 C 
ATOM      8  C   LIG A   1      -9.469  -3.347 123.430  0.00  0.00    +0.008 C 
ATOM      9  C   LIG A   1      -8.092  -2.450 127.964  0.00  0.00    +0.053 A 
ATOM     10  C   LIG A   1      -7.420  -1.616 128.889  0.00  0.00    +0.162 A 
ATOM     11  C   LIG A   1      -6.466  -0.732 128.379  0.00  0.00    +0.162 A 
ATOM     12  C   LIG A   1      -6.289  -0.677 126.972  0.00  0.00    +0.053 A 
ENDROOT
BRANCH   3  13
ATOM     13  C   LIG A   1      -7.318  -0.112 123.957  0.00  0.00    -0.036 A 
ATOM     14  C   LIG A   1      -6.556   0.962 123.585  0.00  0.00    +0.053 A 
ATOM     15  C   LIG A   1      -7.025   2.156 123.048  0.00  0.00    +0.162 A 
ATOM     16  C   LIG A   1      -8.418   2.275 122.840  0.00  0.00    +0.162 A 
ATOM     17  C   LIG A   1      -9.227   1.189 123.165  0.00  0.00    +0.050 A 
ATOM     18  C   LIG A   1      -8.706   0.014 123.727  0.00  0.00    +0.008 A 
BRANCH  15  19
ATOM     19  O   LIG A   1      -6.190   3.195 122.717  0.00  0.00    -0.491 OA
ATOM     20  C   LIG A   1      -5.763   4.006 123.820  0.00  0.00    +0.277 C 
ENDBRANCH  15  19
BRANCH  16  21
ATOM     21  O   LIG A   1      -8.889   3.456 122.333  0.00  0.00    -0.491 OA
ATOM     22  C   LIG A   1      -8.888   3.551 120.907  0.00  0.00    +0.277 C 
ENDBRANCH  16  21
ENDBRANCH   3  13
BRANCH  11  23
ATOM     23  O   LIG A   1      -5.597   0.145 128.964  0.00  0.00    -0.491 OA
ATOM     24  C   LIG A   1      -4.634  -0.399 129.828  0.00  0.00    +0.277 C 
ENDBRANCH  11  23
BRANCH  10  25
ATOM     25  O   LIG A   1      -7.887  -1.961 130.128  0.00  0.00    -0.491 OA
ATOM     26  C   LIG A   1      -7.383  -2.919 131.025  0.00  0.00    +0.277 C 
ENDBRANCH  10  25
TORSDOF 5
ENDMDL
MODEL 2
REMARK VINA RESULT:      -7.4      1.575      6.600
REMARK  Name = NuBBE_1657
REMARK  11 active torsions:
REMARK  status: ('A' for Active; 'I' for Inactive)
REMARK    1  A    between atoms: C_1  and  C_2
REMARK    2  A    between atoms: C_4  and  C_20
REMARK    3  A    between atoms: C_9  and  C_11
REMARK    4  A    between atoms: C_13  and  O_18
REMARK    5  A    between atoms: C_14  and  O_16
REMARK    6  A    between atoms: O_16  and  C_17
REMARK    7  A    between atoms: O_18  and  C_19
REMARK    8  A    between atoms: C_22  and  O_23
REMARK    9  A    between atoms: O_23  and  C_24
REMARK   10  A    between atoms: C_25  and  O_28
REMARK   11  A    between atoms: O_28  and  C_29
REMARK                            x       y       z     vdW  Elec       q    Type
REMARK                         _______ _______ _______ _____ _____    ______ ____
ROOT
ATOM      1  C   LIG A   1      -9.182  -3.287 123.913  0.00  0.00    +0.009 C 
ATOM      2  C   LIG A   1      -7.835  -3.188 124.675  0.00  0.00    +0.001 C 
ATOM      3  C   LIG A   1      -7.916  -1.945 125.638  0.00  0.00    +0.053 C 
ATOM      4  C   LIG A   1      -7.688  -0.655 124.877  0.00  0.00    -0.033 A 
ATOM      5  C   LIG A   1      -6.947  -0.598 123.711  0.00  0.00    -0.040 A 
ATOM      6  C   LIG A   1      -6.394  -1.803 122.999  0.00  0.00    +0.039 C 
ATOM      7  C   LIG A   1      -6.703  -3.181 123.598  0.00  0.00    -0.006 C 
ATOM      8  C   LIG A   1      -5.395  -3.887 123.973  0.00  0.00    +0.008 C 
ATOM      9  C   LIG A   1      -6.763   0.654 123.096  0.00  0.00    +0.053 A 
ATOM     10  C   LIG A   1      -7.345   1.860 123.554  0.00  0.00    +0.162 A 
ATOM     11  C   LIG A   1      -8.164   1.787 124.685  0.00  0.00    +0.162 A 
ATOM     12  C   LIG A   1      -8.295   0.532 125.335  0.00  0.00    +0.053 A 
ENDROOT
BRANCH   3  13
ATOM     13  C   LIG A   1      -7.124  -2.014 126.952  0.00  0.00    -0.036 A 
ATOM     14  C   LIG A   1      -7.741  -1.990 128.173  0.00  0.00    +0.053 A 
ATOM     15  C   LIG A   1      -7.112  -2.012 129.413  0.00  0.00    +0.162 A 
ATOM     16  C   LIG A   1      -5.700  -2.089 129.426  0.00  0.00    +0.162 A 
ATOM     17  C   LIG A   1      -5.033  -2.159 128.206  0.00  0.00    +0.050 A 
ATOM     18  C   LIG A   1      -5.714  -2.110 126.981  0.00  0.00    +0.008 A 
BRANCH  15  19
ATOM     19  O   LIG A   1      -7.808  -1.967 130.596  0.00  0.00    -0.491 OA
ATOM     20  C   LIG A   1      -8.256  -0.662 130.987  0.00  0.00    +0.277 C 
ENDBRANCH  15  19
BRANCH  16  21
ATOM     21  O   LIG A   1      -5.072  -2.088 130.643  0.00  0.00    -0.491 OA
ATOM     22  C   LIG A   1      -3.664  -1.850 130.604  0.00  0.00    +0.277 C 
ENDBRANCH  16  21
ENDBRANCH   3  13
BRANCH  11  23
ATOM     23  O   LIG A   1      -8.926   2.705 125.347  0.00  0.00    -0.491 OA
ATOM     24  C   LIG A   1      -8.300   3.909 125.705  0.00  0.00    +0.277 C 
ENDBRANCH  11  23
BRANCH  10  25
ATOM     25  O   LIG A   1      -6.958   2.833 122.674  0.00  0.00    -0.491 OA
ATOM     26  C   LIG A   1      -5.989   3.838 122.841  0.00  0.00    +0.277 C 
ENDBRANCH  10  25
TORSDOF 5
ENDMDL
MODEL 3
REMARK VINA RESULT:      -7.4      1.643      6.458
REMARK  Name = NuBBE_1657
REMARK  11 active torsions:
REMARK  status: ('A' for Active; 'I' for Inactive)
REMARK    1  A    between atoms: C_1  and  C_2
REMARK    2  A    between atoms: C_4  and  C_20
REMARK    3  A    between atoms: C_9  and  C_11
REMARK    4  A    between atoms: C_13  and  O_18
REMARK    5  A    between atoms: C_14  and  O_16
REMARK    6  A    between atoms: O_16  and  C_17
REMARK    7  A    between atoms: O_18  and  C_19
REMARK    8  A    between atoms: C_22  and  O_23
REMARK    9  A    between atoms: O_23  and  C_24
REMARK   10  A    between atoms: C_25  and  O_28
REMARK   11  A    between atoms: O_28  and  C_29
REMARK                            x       y       z     vdW  Elec       q    Type
REMARK                         _______ _______ _______ _____ _____    ______ ____
ROOT
ATOM      1  C   LIG A   1      -9.370  -3.030 123.368  0.00  0.00    +0.009 C 
ATOM      2  C   LIG A   1      -8.190  -3.191 124.362  0.00  0.00    +0.001 C 
ATOM      3  C   LIG A   1      -8.350  -2.097 125.482  0.00  0.00    +0.053 C 
ATOM      4  C   LIG A   1      -7.873  -0.745 124.990  0.00  0.00    -0.033 A 
ATOM      5  C   LIG A   1      -6.920  -0.607 123.998  0.00  0.00    -0.040 A 
ATOM      6  C   LIG A   1      -6.343  -1.753 123.212  0.00  0.00    +0.039 C 
ATOM      7  C   LIG A   1      -6.876  -3.158 123.518  0.00  0.00    -0.006 C 
ATOM      8  C   LIG A   1      -5.728  -4.052 124.000  0.00  0.00    +0.008 C 
ATOM      9  C   LIG A   1      -6.517   0.692 123.634  0.00  0.00    +0.053 A 
ATOM     10  C   LIG A   1      -7.074   1.878 124.170  0.00  0.00    +0.162 A 
ATOM     11  C   LIG A   1      -8.097   1.737 125.111  0.00  0.00    +0.162 A 
ATOM     12  C   LIG A   1      -8.456   0.426 125.518  0.00  0.00    +0.053 A 
ENDROOT
BRANCH   3  13
ATOM     13  C   LIG A   1      -7.834  -2.439 126.887  0.00  0.00    -0.036 A 
ATOM     14  C   LIG A   1      -6.628  -1.984 127.348  0.00  0.00    +0.053 A 
ATOM     15  C   LIG A   1      -6.061  -2.268 128.585  0.00  0.00    +0.162 A 
ATOM     16  C   LIG A   1      -6.801  -3.085 129.470  0.00  0.00    +0.162 A 
ATOM     17  C   LIG A   1      -8.053  -3.535 129.059  0.00  0.00    +0.050 A 
ATOM     18  C   LIG A   1      -8.571  -3.240 127.789  0.00  0.00    +0.008 A 
BRANCH  15  19
ATOM     19  O   LIG A   1      -4.833  -1.782 128.964  0.00  0.00    -0.491 OA
ATOM     20  C   LIG A   1      -4.848  -0.462 129.523  0.00  0.00    +0.277 C 
ENDBRANCH  15  19
BRANCH  16  21
ATOM     21  O   LIG A   1      -6.239  -3.387 130.681  0.00  0.00    -0.491 OA
ATOM     22  C   LIG A   1      -5.603  -4.664 130.759  0.00  0.00    +0.277 C 
ENDBRANCH  16  21
ENDBRANCH   3  13
BRANCH  11  23
ATOM     23  O   LIG A   1      -8.893   2.632 125.766  0.00  0.00    -0.491 OA
ATOM     24  C   LIG A   1      -8.291   3.828 126.184  0.00  0.00    +0.277 C 
ENDBRANCH  11  23
BRANCH  10  25
ATOM     25  O   LIG A   1      -6.445   2.917 123.540  0.00  0.00    -0.491 OA
ATOM     26  C   LIG A   1      -6.619   3.386 122.226  0.00  0.00    +0.277 C 
ENDBRANCH  10  25
TORSDOF 5
ENDMDL
MODEL 4
REMARK VINA RESULT:      -7.3      2.054      6.754
REMARK  Name = NuBBE_1657
REMARK  11 active torsions:
REMARK  status: ('A' for Active; 'I' for Inactive)
REMARK    1  A    between atoms: C_1  and  C_2
REMARK    2  A    between atoms: C_4  and  C_20
REMARK    3  A    between atoms: C_9  and  C_11
REMARK    4  A    between atoms: C_13  and  O_18
REMARK    5  A    between atoms: C_14  and  O_16
REMARK    6  A    between atoms: O_16  and  C_17
REMARK    7  A    between atoms: O_18  and  C_19
REMARK    8  A    between atoms: C_22  and  O_23
REMARK    9  A    between atoms: O_23  and  C_24
REMARK   10  A    between atoms: C_25  and  O_28
REMARK   11  A    between atoms: O_28  and  C_29
REMARK                            x       y       z     vdW  Elec       q    Type
REMARK                         _______ _______ _______ _____ _____    ______ ____
ROOT
ATOM      1  C   LIG A   1      -9.083  -3.251 124.519  0.00  0.00    +0.009 C 
ATOM      2  C   LIG A   1      -7.659  -3.225 125.134  0.00  0.00    +0.001 C 
ATOM      3  C   LIG A   1      -7.674  -2.217 126.343  0.00  0.00    +0.053 C 
ATOM      4  C   LIG A   1      -7.591  -0.785 125.855  0.00  0.00    -0.033 A 
ATOM      5  C   LIG A   1      -6.997  -0.440 124.654  0.00  0.00    -0.040 A 
ATOM      6  C   LIG A   1      -6.485  -1.434 123.646  0.00  0.00    +0.039 C 
ATOM      7  C   LIG A   1      -6.666  -2.923 123.967  0.00  0.00    -0.006 C 
ATOM      8  C   LIG A   1      -5.295  -3.605 124.038  0.00  0.00    +0.008 C 
ATOM      9  C   LIG A   1      -6.938   0.921 124.304  0.00  0.00    +0.053 A 
ATOM     10  C   LIG A   1      -7.509   1.966 125.070  0.00  0.00    +0.162 A 
ATOM     11  C   LIG A   1      -8.183   1.608 126.240  0.00  0.00    +0.162 A 
ATOM     12  C   LIG A   1      -8.186   0.240 126.618  0.00  0.00    +0.053 A 
ENDROOT
BRANCH   3  13
ATOM     13  C   LIG A   1      -6.728  -2.506 127.518  0.00  0.00    -0.036 A 
ATOM     14  C   LIG A   1      -7.192  -2.919 128.738  0.00  0.00    +0.053 A 
ATOM     15  C   LIG A   1      -6.422  -3.170 129.867  0.00  0.00    +0.162 A 
ATOM     16  C   LIG A   1      -5.022  -3.009 129.752  0.00  0.00    +0.162 A 
ATOM     17  C   LIG A   1      -4.503  -2.631 128.516  0.00  0.00    +0.050 A 
ATOM     18  C   LIG A   1      -5.326  -2.367 127.412  0.00  0.00    +0.008 A 
BRANCH  15  19
ATOM     19  O   LIG A   1      -6.971  -3.567 131.063  0.00  0.00    -0.491 OA
ATOM     20  C   LIG A   1      -7.494  -2.505 131.872  0.00  0.00    +0.277 C 
ENDBRANCH  15  19
BRANCH  16  21
ATOM     21  O   LIG A   1      -4.259  -3.233 130.866  0.00  0.00    -0.491 OA
ATOM     22  C   LIG A   1      -3.752  -2.060 131.506  0.00  0.00    +0.277 C 
ENDBRANCH  16  21
ENDBRANCH   3  13
BRANCH  11  23
ATOM     23  O   LIG A   1      -8.897   2.318 127.162  0.00  0.00    -0.491 OA
ATOM     24  C   LIG A   1      -8.544   2.142 128.509  0.00  0.00    +0.277 C 
ENDBRANCH  11  23
BRANCH  10  25
ATOM     25  O   LIG A   1      -7.270   3.123 124.381  0.00  0.00    -0.491 OA
ATOM     26  C   LIG A   1      -6.096   3.531 123.723  0.00  0.00    +0.277 C 
ENDBRANCH  10  25
TORSDOF 5
ENDMDL
MODEL 5
REMARK VINA RESULT:      -7.2      1.397      2.185
REMARK  Name = NuBBE_1657
REMARK  11 active torsions:
REMARK  status: ('A' for Active; 'I' for Inactive)
REMARK    1  A    between atoms: C_1  and  C_2
REMARK    2  A    between atoms: C_4  and  C_20
REMARK    3  A    between atoms: C_9  and  C_11
REMARK    4  A    between atoms: C_13  and  O_18
REMARK    5  A    between atoms: C_14  and  O_16
REMARK    6  A    between atoms: O_16  and  C_17
REMARK    7  A    between atoms: O_18  and  C_19
REMARK    8  A    between atoms: C_22  and  O_23
REMARK    9  A    between atoms: O_23  and  C_24
REMARK   10  A    between atoms: C_25  and  O_28
REMARK   11  A    between atoms: O_28  and  C_29
REMARK                            x       y       z     vdW  Elec       q    Type
REMARK                         _______ _______ _______ _____ _____    ______ ____
ROOT
ATOM      1  C   LIG A   1      -5.641  -3.954 124.206  0.00  0.00    +0.009 C 
ATOM      2  C   LIG A   1      -6.535  -2.687 124.232  0.00  0.00    +0.001 C 
ATOM      3  C   LIG A   1      -5.942  -1.700 125.305  0.00  0.00    +0.053 C 
ATOM      4  C   LIG A   1      -6.338  -2.122 126.706  0.00  0.00    -0.033 A 
ATOM      5  C   LIG A   1      -7.486  -2.845 126.969  0.00  0.00    -0.040 A 
ATOM      6  C   LIG A   1      -8.399  -3.402 125.909  0.00  0.00    +0.039 C 
ATOM      7  C   LIG A   1      -8.005  -3.171 124.445  0.00  0.00    -0.006 C 
ATOM      8  C   LIG A   1      -9.101  -2.370 123.735  0.00  0.00    +0.008 C 
ATOM      9  C   LIG A   1      -7.787  -3.160 128.308  0.00  0.00    +0.053 A 
ATOM     10  C   LIG A   1      -6.953  -2.842 129.406  0.00  0.00    +0.162 A 
ATOM     11  C   LIG A   1      -5.751  -2.186 129.129  0.00  0.00    +0.162 A 
ATOM     12  C   LIG A   1      -5.484  -1.818 127.785  0.00  0.00    +0.053 A 
ENDROOT
BRANCH   3  13
ATOM     13  C   LIG A   1      -6.121  -0.195 125.059  0.00  0.00    -0.036 A 
ATOM     14  C   LIG A   1      -6.942   0.287 124.076  0.00  0.00    +0.053 A 
ATOM     15  C   LIG A   1      -7.142   1.625 123.754  0.00  0.00    +0.162 A 
ATOM     16  C   LIG A   1      -6.454   2.591 124.525  0.00  0.00    +0.162 A 
ATOM     17  C   LIG A   1      -5.642   2.146 125.564  0.00  0.00    +0.050 A 
ATOM     18  C   LIG A   1      -5.455   0.782 125.833  0.00  0.00    +0.008 A 
BRANCH  15  19
ATOM     19  O   LIG A   1      -7.974   2.024 122.736  0.00  0.00    -0.491 OA
ATOM     20  C   LIG A   1      -9.375   1.913 123.019  0.00  0.00    +0.277 C 
ENDBRANCH  15  19
BRANCH  16  21
ATOM     21  O   LIG A   1      -6.629   3.909 124.199  0.00  0.00    -0.491 OA
ATOM     22  C   LIG A   1      -5.550   4.509 123.479  0.00  0.00    +0.277 C 
ENDBRANCH  16  21
ENDBRANCH   3  13
BRANCH  11  23
ATOM     23  O   LIG A   1      -4.697  -1.798 129.906  0.00  0.00    -0.491 OA
ATOM     24  C   LIG A   1      -3.587  -2.656 129.942  0.00  0.00    +0.277 C 
ENDBRANCH  11  23
BRANCH  10  25
ATOM     25  O   LIG A   1      -7.573  -3.344 130.518  0.00  0.00    -0.491 OA
ATOM     26  C   LIG A   1      -7.328  -3.051 131.871  0.00  0.00    +0.277 C 
ENDBRANCH  10  25
TORSDOF 5
ENDMDL
MODEL 6
REMARK VINA RESULT:      -7.1      3.586      5.505
REMARK  Name = NuBBE_1657
REMARK  11 active torsions:
REMARK  status: ('A' for Active; 'I' for Inactive)
REMARK    1  A    between atoms: C_1  and  C_2
REMARK    2  A    between atoms: C_4  and  C_20
REMARK    3  A    between atoms: C_9  and  C_11
REMARK    4  A    between atoms: C_13  and  O_18
REMARK    5  A    between atoms: C_14  and  O_16
REMARK    6  A    between atoms: O_16  and  C_17
REMARK    7  A    between atoms: O_18  and  C_19
REMARK    8  A    between atoms: C_22  and  O_23
REMARK    9  A    between atoms: O_23  and  C_24
REMARK   10  A    between atoms: C_25  and  O_28
REMARK   11  A    between atoms: O_28  and  C_29
REMARK                            x       y       z     vdW  Elec       q    Type
REMARK                         _______ _______ _______ _____ _____    ______ ____
ROOT
ATOM      1  C   LIG A   1      -3.923  -1.365 130.115  0.00  0.00    +0.009 C 
ATOM      2  C   LIG A   1      -5.019  -2.310 129.557  0.00  0.00    +0.001 C 
ATOM      3  C   LIG A   1      -5.997  -1.447 128.676  0.00  0.00    +0.053 C 
ATOM      4  C   LIG A   1      -6.972  -0.677 129.544  0.00  0.00    -0.033 A 
ATOM      5  C   LIG A   1      -7.348  -1.107 130.804  0.00  0.00    -0.040 A 
ATOM      6  C   LIG A   1      -6.753  -2.298 131.505  0.00  0.00    +0.039 C 
ATOM      7  C   LIG A   1      -5.637  -3.061 130.780  0.00  0.00    -0.006 C 
ATOM      8  C   LIG A   1      -6.071  -4.512 130.546  0.00  0.00    +0.008 C 
ATOM      9  C   LIG A   1      -8.286  -0.340 131.520  0.00  0.00    +0.053 A 
ATOM     10  C   LIG A   1      -8.825   0.887 131.064  0.00  0.00    +0.162 A 
ATOM     11  C   LIG A   1      -8.379   1.363 129.828  0.00  0.00    +0.162 A 
ATOM     12  C   LIG A   1      -7.480   0.555 129.085  0.00  0.00    +0.053 A 
ENDROOT
BRANCH   3  13
ATOM     13  C   LIG A   1      -6.675  -2.139 127.484  0.00  0.00    -0.036 A 
ATOM     14  C   LIG A   1      -6.100  -2.173 126.242  0.00  0.00    +0.053 A 
ATOM     15  C   LIG A   1      -6.648  -2.741 125.098  0.00  0.00    +0.162 A 
ATOM     16  C   LIG A   1      -7.910  -3.367 125.221  0.00  0.00    +0.162 A 
ATOM     17  C   LIG A   1      -8.511  -3.395 126.476  0.00  0.00    +0.050 A 
ATOM     18  C   LIG A   1      -7.927  -2.785 127.596  0.00  0.00    +0.008 A 
BRANCH  15  19
ATOM     19  O   LIG A   1      -6.010  -2.716 123.882  0.00  0.00    -0.491 OA
ATOM     20  C   LIG A   1      -4.947  -3.666 123.734  0.00  0.00    +0.277 C 
ENDBRANCH  15  19
BRANCH  16  21
ATOM     21  O   LIG A   1      -8.466  -3.910 124.094  0.00  0.00    -0.491 OA
ATOM     22  C   LIG A   1      -9.477  -3.116 123.468  0.00  0.00    +0.277 C 
ENDBRANCH  16  21
ENDBRANCH   3  13
BRANCH  11  23
ATOM     23  O   LIG A   1      -8.618   2.511 129.127  0.00  0.00    -0.491 OA
ATOM     24  C   LIG A   1      -7.977   3.674 129.580  0.00  0.00    +0.277 C 
ENDBRANCH  11  23
BRANCH  10  25
ATOM     25  O   LIG A   1      -9.661   1.330 132.051  0.00  0.00    -0.491 OA
ATOM     26  C   LIG A   1      -9.586   2.515 132.804  0.00  0.00    +0.277 C 
ENDBRANCH  10  25
TORSDOF 5
ENDMDL
MODEL 7
REMARK VINA RESULT:      -6.8      3.380      6.611
REMARK  Name = NuBBE_1657
REMARK  11 active torsions:
REMARK  status: ('A' for Active; 'I' for Inactive)
REMARK    1  A    between atoms: C_1  and  C_2
REMARK    2  A    between atoms: C_4  and  C_20
REMARK    3  A    between atoms: C_9  and  C_11
REMARK    4  A    between atoms: C_13  and  O_18
REMARK    5  A    between atoms: C_14  and  O_16
REMARK    6  A    between atoms: O_16  and  C_17
REMARK    7  A    between atoms: O_18  and  C_19
REMARK    8  A    between atoms: C_22  and  O_23
REMARK    9  A    between atoms: O_23  and  C_24
REMARK   10  A    between atoms: C_25  and  O_28
REMARK   11  A    between atoms: O_28  and  C_29
REMARK                            x       y       z     vdW  Elec       q    Type
REMARK                         _______ _______ _______ _____ _____    ______ ____
ROOT
ATOM      1  C   LIG A   1      -6.227  -4.414 130.270  0.00  0.00    +0.009 C 
ATOM      2  C   LIG A   1      -6.128  -2.871 130.388  0.00  0.00    +0.001 C 
ATOM      3  C   LIG A   1      -7.356  -2.248 129.625  0.00  0.00    +0.053 C 
ATOM      4  C   LIG A   1      -7.117  -2.242 128.129  0.00  0.00    -0.033 A 
ATOM      5  C   LIG A   1      -5.850  -2.206 127.577  0.00  0.00    -0.040 A 
ATOM      6  C   LIG A   1      -4.576  -2.295 128.373  0.00  0.00    +0.039 C 
ATOM      7  C   LIG A   1      -4.702  -2.467 129.892  0.00  0.00    -0.006 C 
ATOM      8  C   LIG A   1      -4.038  -1.283 130.603  0.00  0.00    +0.008 C 
ATOM      9  C   LIG A   1      -5.732  -2.168 126.175  0.00  0.00    +0.053 A 
ATOM     10  C   LIG A   1      -6.828  -2.233 125.282  0.00  0.00    +0.162 A 
ATOM     11  C   LIG A   1      -8.103  -2.356 125.840  0.00  0.00    +0.162 A 
ATOM     12  C   LIG A   1      -8.219  -2.332 127.254  0.00  0.00    +0.053 A 
ENDROOT
BRANCH   3  13
ATOM     13  C   LIG A   1      -7.915  -0.917 130.148  0.00  0.00    -0.036 A 
ATOM     14  C   LIG A   1      -7.837   0.239 129.419  0.00  0.00    +0.053 A 
ATOM     15  C   LIG A   1      -8.280   1.494 129.819  0.00  0.00    +0.162 A 
ATOM     16  C   LIG A   1      -8.891   1.596 131.090  0.00  0.00    +0.162 A 
ATOM     17  C   LIG A   1      -9.030   0.436 131.848  0.00  0.00    +0.050 A 
ATOM     18  C   LIG A   1      -8.544  -0.804 131.408  0.00  0.00    +0.008 A 
BRANCH  15  19
ATOM     19  O   LIG A   1      -8.148   2.611 129.029  0.00  0.00    -0.491 OA
ATOM     20  C   LIG A   1      -7.590   2.373 127.730  0.00  0.00    +0.277 C 
ENDBRANCH  15  19
BRANCH  16  21
ATOM     21  O   LIG A   1      -9.310   2.833 131.500  0.00  0.00    -0.491 OA
ATOM     22  C   LIG A   1      -9.260   3.059 132.910  0.00  0.00    +0.277 C 
ENDBRANCH  16  21
ENDBRANCH   3  13
BRANCH  11  23
ATOM     23  O   LIG A   1      -9.348  -2.514 125.301  0.00  0.00    -0.491 OA
ATOM     24  C   LIG A   1      -9.439  -3.289 124.135  0.00  0.00    +0.277 C 
ENDBRANCH  11  23
BRANCH  10  25
ATOM     25  O   LIG A   1      -6.299  -2.204 124.021  0.00  0.00    -0.491 OA
ATOM     26  C   LIG A   1      -5.227  -2.949 123.497  0.00  0.00    +0.277 C 
ENDBRANCH  10  25
TORSDOF 5
ENDMDL
MODEL 8
REMARK VINA RESULT:      -6.6      3.258      7.532
REMARK  Name = NuBBE_1657
REMARK  11 active torsions:
REMARK  status: ('A' for Active; 'I' for Inactive)
REMARK    1  A    between atoms: C_1  and  C_2
REMARK    2  A    between atoms: C_4  and  C_20
REMARK    3  A    between atoms: C_9  and  C_11
REMARK    4  A    between atoms: C_13  and  O_18
REMARK    5  A    between atoms: C_14  and  O_16
REMARK    6  A    between atoms: O_16  and  C_17
REMARK    7  A    between atoms: O_18  and  C_19
REMARK    8  A    between atoms: C_22  and  O_23
REMARK    9  A    between atoms: O_23  and  C_24
REMARK   10  A    between atoms: C_25  and  O_28
REMARK   11  A    between atoms: O_28  and  C_29
REMARK                            x       y       z     vdW  Elec       q    Type
REMARK                         _______ _______ _______ _____ _____    ______ ____
ROOT
ATOM      1  C   LIG A   1      -4.953   1.338 126.710  0.00  0.00    +0.009 C 
ATOM      2  C   LIG A   1      -5.722   0.492 127.760  0.00  0.00    +0.001 C 
ATOM      3  C   LIG A   1      -5.402  -1.024 127.485  0.00  0.00    +0.053 C 
ATOM      4  C   LIG A   1      -6.223  -1.549 126.324  0.00  0.00    -0.033 A 
ATOM      5  C   LIG A   1      -7.447  -1.009 125.973  0.00  0.00    -0.040 A 
ATOM      6  C   LIG A   1      -8.044   0.220 126.605  0.00  0.00    +0.039 C 
ATOM      7  C   LIG A   1      -7.220   0.929 127.687  0.00  0.00    -0.006 C 
ATOM      8  C   LIG A   1      -7.998   0.936 129.007  0.00  0.00    +0.008 C 
ATOM      9  C   LIG A   1      -8.151  -1.588 124.901  0.00  0.00    +0.053 A 
ATOM     10  C   LIG A   1      -7.657  -2.651 124.106  0.00  0.00    +0.162 A 
ATOM     11  C   LIG A   1      -6.383  -3.139 124.409  0.00  0.00    +0.162 A 
ATOM     12  C   LIG A   1      -5.705  -2.591 125.529  0.00  0.00    +0.053 A 
ENDROOT
BRANCH   3  13
ATOM     13  C   LIG A   1      -5.392  -1.976 128.690  0.00  0.00    -0.036 A 
ATOM     14  C   LIG A   1      -4.344  -2.023 129.569  0.00  0.00    +0.053 A 
ATOM     15  C   LIG A   1      -4.227  -2.871 130.665  0.00  0.00    +0.162 A 
ATOM     16  C   LIG A   1      -5.297  -3.759 130.919  0.00  0.00    +0.162 A 
ATOM     17  C   LIG A   1      -6.404  -3.715 130.075  0.00  0.00    +0.050 A 
ATOM     18  C   LIG A   1      -6.463  -2.856 128.968  0.00  0.00    +0.008 A 
BRANCH  15  19
ATOM     19  O   LIG A   1      -3.128  -2.865 131.489  0.00  0.00    -0.491 OA
ATOM     20  C   LIG A   1      -3.060  -1.761 132.402  0.00  0.00    +0.277 C 
ENDBRANCH  15  19
BRANCH  16  21
ATOM     21  O   LIG A   1      -5.179  -4.613 131.983  0.00  0.00    -0.491 OA
ATOM     22  C   LIG A   1      -5.975  -4.282 133.123  0.00  0.00    +0.277 C 
ENDBRANCH  16  21
ENDBRANCH   3  13
BRANCH  11  23
ATOM     23  O   LIG A   1      -5.580  -4.078 123.828  0.00  0.00    -0.491 OA
ATOM     24  C   LIG A   1      -4.254  -3.703 123.565  0.00  0.00    +0.277 C 
ENDBRANCH  11  23
BRANCH  10  25
ATOM     25  O   LIG A   1      -8.611  -2.898 123.158  0.00  0.00    -0.491 OA
ATOM     26  C   LIG A   1      -9.869  -3.507 123.312  0.00  0.00    +0.277 C 
ENDBRANCH  10  25
TORSDOF 5
ENDMDL
MODEL 9
REMARK VINA RESULT:      -6.5      3.164      6.243
REMARK  Name = NuBBE_1657
REMARK  11 active torsions:
REMARK  status: ('A' for Active; 'I' for Inactive)
REMARK    1  A    between atoms: C_1  and  C_2
REMARK    2  A    between atoms: C_4  and  C_20
REMARK    3  A    between atoms: C_9  and  C_11
REMARK    4  A    between atoms: C_13  and  O_18
REMARK    5  A    between atoms: C_14  and  O_16
REMARK    6  A    between atoms: O_16  and  C_17
REMARK    7  A    between atoms: O_18  and  C_19
REMARK    8  A    between atoms: C_22  and  O_23
REMARK    9  A    between atoms: O_23  and  C_24
REMARK   10  A    between atoms: C_25  and  O_28
REMARK   11  A    between atoms: O_28  and  C_29
REMARK                            x       y       z     vdW  Elec       q    Type
REMARK                         _______ _______ _______ _____ _____    ______ ____
ROOT
ATOM      1  C   LIG A   1      -8.753  -0.118 131.968  0.00  0.00    +0.009 C 
ATOM      2  C   LIG A   1      -8.280  -0.236 130.496  0.00  0.00    +0.001 C 
ATOM      3  C   LIG A   1      -7.710  -1.688 130.287  0.00  0.00    +0.053 C 
ATOM      4  C   LIG A   1      -6.306  -1.805 130.845  0.00  0.00    -0.033 A 
ATOM      5  C   LIG A   1      -5.455  -0.720 130.953  0.00  0.00    -0.040 A 
ATOM      6  C   LIG A   1      -5.851   0.701 130.656  0.00  0.00    +0.039 C 
ATOM      7  C   LIG A   1      -7.304   0.956 130.235  0.00  0.00    -0.006 C 
ATOM      8  C   LIG A   1      -7.334   1.574 128.833  0.00  0.00    +0.008 C 
ATOM      9  C   LIG A   1      -4.157  -0.936 131.453  0.00  0.00    +0.053 A 
ATOM     10  C   LIG A   1      -3.681  -2.185 131.919  0.00  0.00    +0.162 A 
ATOM     11  C   LIG A   1      -4.570  -3.262 131.889  0.00  0.00    +0.162 A 
ATOM     12  C   LIG A   1      -5.857  -3.051 131.328  0.00  0.00    +0.053 A 
ENDROOT
BRANCH   3  13
ATOM     13  C   LIG A   1      -7.853  -2.312 128.890  0.00  0.00    -0.036 A 
ATOM     14  C   LIG A   1      -7.128  -1.865 127.819  0.00  0.00    +0.053 A 
ATOM     15  C   LIG A   1      -7.213  -2.339 126.515  0.00  0.00    +0.162 A 
ATOM     16  C   LIG A   1      -8.114  -3.399 126.263  0.00  0.00    +0.162 A 
ATOM     17  C   LIG A   1      -8.840  -3.914 127.333  0.00  0.00    +0.050 A 
ATOM     18  C   LIG A   1      -8.735  -3.384 128.628  0.00  0.00    +0.008 A 
BRANCH  15  19
ATOM     19  O   LIG A   1      -6.459  -1.820 125.490  0.00  0.00    -0.491 OA
ATOM     20  C   LIG A   1      -6.788  -0.476 125.114  0.00  0.00    +0.277 C 
ENDBRANCH  15  19
BRANCH  16  21
ATOM     21  O   LIG A   1      -8.218  -3.856 124.977  0.00  0.00    -0.491 OA
ATOM     22  C   LIG A   1      -9.314  -3.326 124.227  0.00  0.00    +0.277 C 
ENDBRANCH  16  21
ENDBRANCH   3  13
BRANCH  11  23
ATOM     23  O   LIG A   1      -4.485  -4.557 132.313  0.00  0.00    -0.491 OA
ATOM     24  C   LIG A   1      -4.056  -4.764 133.633  0.00  0.00    +0.277 C 
ENDBRANCH  11  23
BRANCH  10  25
ATOM     25  O   LIG A   1      -2.400  -1.972 132.350  0.00  0.00    -0.491 OA
ATOM     26  C   LIG A   1      -1.958  -1.429 133.569  0.00  0.00    +0.277 C 
ENDBRANCH  10  25
TORSDOF 5
ENDMDL
