MODEL 1
REMARK VINA RESULT:      -8.4      0.000      0.000
REMARK  Name = NuBBE_410
REMARK  7 active torsions:
REMARK  status: ('A' for Active; 'I' for Inactive)
REMARK    1  A    between atoms: O_1  and  C_2
REMARK    2  A    between atoms: C_2  and  C_3
REMARK    3  A    between atoms: C_3  and  C_4
REMARK    4  A    between atoms: C_4  and  C_5
REMARK    5  A    between atoms: C_10  and  C_11
REMARK    6  A    between atoms: C_21  and  O_22
REMARK    7  A    between atoms: O_22  and  C_23
REMARK                            x       y       z     vdW  Elec       q    Type
REMARK                         _______ _______ _______ _____ _____    ______ ____
ROOT
ATOM      1  C   LIG A   1     -12.580   8.922 129.249  0.00  0.00    -0.043 A 
ATOM      2  C   LIG A   1     -12.509   8.267 130.494  0.00  0.00    +0.015 A 
ATOM      3  C   LIG A   1     -11.680   7.136 130.640  0.00  0.00    +0.025 A 
ATOM      4  C   LIG A   1     -10.937   6.711 129.545  0.00  0.00    +0.177 A 
ATOM      5  O   LIG A   1     -10.208   5.616 129.890  0.00  0.00    -0.451 OA
ATOM      6  C   LIG A   1     -10.470   5.313 131.193  0.00  0.00    +0.137 A 
ATOM      7  C   LIG A   1     -11.373   6.227 131.693  0.00  0.00    +0.058 A 
ATOM      8  C   LIG A   1     -10.967   7.333 128.291  0.00  0.00    +0.163 A 
ATOM      9  C   LIG A   1     -11.806   8.452 128.172  0.00  0.00    +0.053 A 
ENDROOT
BRANCH   6  10
ATOM     10  C   LIG A   1      -9.763   4.144 131.716  0.00  0.00    +0.021 A 
ATOM     11  C   LIG A   1      -9.683   2.962 130.963  0.00  0.00    +0.061 A 
ATOM     12  C   LIG A   1      -9.009   1.885 131.507  0.00  0.00    +0.167 A 
ATOM     13  C   LIG A   1      -8.423   1.939 132.749  0.00  0.00    +0.166 A 
ATOM     14  O   LIG A   1      -7.817   0.773 133.091  0.00  0.00    -0.453 OA
ATOM     15  C   LIG A   1      -8.089  -0.026 131.923  0.00  0.00    +0.466 C 
ATOM     16  O   LIG A   1      -8.845   0.673 130.910  0.00  0.00    -0.453 OA
ATOM     17  C   LIG A   1      -8.473   3.077 133.521  0.00  0.00    +0.050 A 
ATOM     18  C   LIG A   1      -9.149   4.182 132.996  0.00  0.00    +0.015 A 
ENDBRANCH   6  10
BRANCH   8  19
ATOM     19  O   LIG A   1     -10.269   6.970 127.150  0.00  0.00    -0.491 OA
ATOM     20  C   LIG A   1     -10.680   7.613 125.946  0.00  0.00    +0.277 C 
ENDBRANCH   8  19
BRANCH   1  21
ATOM     21  C   LIG A   1     -13.489  10.122 129.075  0.00  0.00    +0.037 C 
BRANCH  21  22
ATOM     22  C   LIG A   1     -13.535  11.022 130.310  0.00  0.00    +0.032 C 
BRANCH  22  23
ATOM     23  C   LIG A   1     -13.885  12.463 129.953  0.00  0.00    +0.156 C 
BRANCH  23  24
ATOM     24  O   LIG A   1     -13.474  13.312 131.018  0.00  0.00    -0.395 OA
ATOM     25  H   LIG A   1     -14.273  13.739 131.374  0.00  0.00    +0.209 HD
ENDBRANCH  23  24
ENDBRANCH  22  23
ENDBRANCH  21  22
ENDBRANCH   1  21
TORSDOF 6
ENDMDL
MODEL 2
REMARK VINA RESULT:      -7.8      4.289      8.441
REMARK  Name = NuBBE_410
REMARK  7 active torsions:
REMARK  status: ('A' for Active; 'I' for Inactive)
REMARK    1  A    between atoms: O_1  and  C_2
REMARK    2  A    between atoms: C_2  and  C_3
REMARK    3  A    between atoms: C_3  and  C_4
REMARK    4  A    between atoms: C_4  and  C_5
REMARK    5  A    between atoms: C_10  and  C_11
REMARK    6  A    between atoms: C_21  and  O_22
REMARK    7  A    between atoms: O_22  and  C_23
REMARK                            x       y       z     vdW  Elec       q    Type
REMARK                         _______ _______ _______ _____ _____    ______ ____
ROOT
ATOM      1  C   LIG A   1      -3.985   6.021 132.674  0.00  0.00    -0.043 A 
ATOM      2  C   LIG A   1      -5.288   5.665 133.072  0.00  0.00    +0.015 A 
ATOM      3  C   LIG A   1      -6.393   6.098 132.312  0.00  0.00    +0.025 A 
ATOM      4  C   LIG A   1      -6.157   6.855 131.168  0.00  0.00    +0.177 A 
ATOM      5  O   LIG A   1      -7.342   7.169 130.580  0.00  0.00    -0.451 OA
ATOM      6  C   LIG A   1      -8.351   6.636 131.326  0.00  0.00    +0.137 A 
ATOM      7  C   LIG A   1      -7.809   5.967 132.403  0.00  0.00    +0.058 A 
ATOM      8  C   LIG A   1      -4.881   7.226 130.726  0.00  0.00    +0.163 A 
ATOM      9  C   LIG A   1      -3.800   6.787 131.508  0.00  0.00    +0.053 A 
ENDROOT
BRANCH   6  10
ATOM     10  C   LIG A   1      -9.701   6.895 130.825  0.00  0.00    +0.021 A 
ATOM     11  C   LIG A   1      -9.895   7.620 129.639  0.00  0.00    +0.061 A 
ATOM     12  C   LIG A   1     -11.191   7.842 129.214  0.00  0.00    +0.167 A 
ATOM     13  C   LIG A   1     -12.281   7.378 129.912  0.00  0.00    +0.166 A 
ATOM     14  O   LIG A   1     -13.458   7.710 129.321  0.00  0.00    -0.453 OA
ATOM     15  C   LIG A   1     -12.988   8.437 128.169  0.00  0.00    +0.466 C 
ATOM     16  O   LIG A   1     -11.547   8.526 128.092  0.00  0.00    -0.453 OA
ATOM     17  C   LIG A   1     -12.139   6.661 131.077  0.00  0.00    +0.050 A 
ATOM     18  C   LIG A   1     -10.838   6.421 131.531  0.00  0.00    +0.015 A 
ENDBRANCH   6  10
BRANCH   8  19
ATOM     19  O   LIG A   1      -4.559   7.981 129.611  0.00  0.00    -0.491 OA
ATOM     20  C   LIG A   1      -3.488   7.480 128.814  0.00  0.00    +0.277 C 
ENDBRANCH   8  19
BRANCH   1  21
ATOM     21  C   LIG A   1      -2.794   5.583 133.501  0.00  0.00    +0.037 C 
BRANCH  21  22
ATOM     22  C   LIG A   1      -1.991   4.458 132.846  0.00  0.00    +0.032 C 
BRANCH  22  23
ATOM     23  C   LIG A   1      -2.625   3.091 133.084  0.00  0.00    +0.156 C 
BRANCH  23  24
ATOM     24  O   LIG A   1      -3.023   3.001 134.446  0.00  0.00    -0.395 OA
ATOM     25  H   LIG A   1      -3.530   3.804 134.655  0.00  0.00    +0.209 HD
ENDBRANCH  23  24
ENDBRANCH  22  23
ENDBRANCH  21  22
ENDBRANCH   1  21
TORSDOF 6
ENDMDL
MODEL 3
REMARK VINA RESULT:      -7.3      5.247      8.462
REMARK  Name = NuBBE_410
REMARK  7 active torsions:
REMARK  status: ('A' for Active; 'I' for Inactive)
REMARK    1  A    between atoms: O_1  and  C_2
REMARK    2  A    between atoms: C_2  and  C_3
REMARK    3  A    between atoms: C_3  and  C_4
REMARK    4  A    between atoms: C_4  and  C_5
REMARK    5  A    between atoms: C_10  and  C_11
REMARK    6  A    between atoms: C_21  and  O_22
REMARK    7  A    between atoms: O_22  and  C_23
REMARK                            x       y       z     vdW  Elec       q    Type
REMARK                         _______ _______ _______ _____ _____    ______ ____
ROOT
ATOM      1  C   LIG A   1      -3.011   6.060 132.047  0.00  0.00    -0.043 A 
ATOM      2  C   LIG A   1      -4.204   5.843 132.763  0.00  0.00    +0.015 A 
ATOM      3  C   LIG A   1      -5.444   6.132 132.157  0.00  0.00    +0.025 A 
ATOM      4  C   LIG A   1      -5.449   6.610 130.851  0.00  0.00    +0.177 A 
ATOM      5  O   LIG A   1      -6.732   6.824 130.453  0.00  0.00    -0.451 OA
ATOM      6  C   LIG A   1      -7.566   6.501 131.481  0.00  0.00    +0.137 A 
ATOM      7  C   LIG A   1      -6.811   6.070 132.552  0.00  0.00    +0.058 A 
ATOM      8  C   LIG A   1      -4.292   6.834 130.095  0.00  0.00    +0.163 A 
ATOM      9  C   LIG A   1      -3.072   6.544 130.727  0.00  0.00    +0.053 A 
ENDROOT
BRANCH   6  10
ATOM     10  C   LIG A   1      -8.992   6.686 131.211  0.00  0.00    +0.021 A 
ATOM     11  C   LIG A   1      -9.417   7.356 130.054  0.00  0.00    +0.061 A 
ATOM     12  C   LIG A   1     -10.776   7.509 129.849  0.00  0.00    +0.167 A 
ATOM     13  C   LIG A   1     -11.708   7.029 130.738  0.00  0.00    +0.166 A 
ATOM     14  O   LIG A   1     -12.983   7.290 130.348  0.00  0.00    -0.453 OA
ATOM     15  C   LIG A   1     -12.748   7.991 129.110  0.00  0.00    +0.466 C 
ATOM     16  O   LIG A   1     -11.348   8.133 128.785  0.00  0.00    -0.453 OA
ATOM     17  C   LIG A   1     -11.338   6.365 131.884  0.00  0.00    +0.050 A 
ATOM     18  C   LIG A   1      -9.969   6.195 132.116  0.00  0.00    +0.015 A 
ENDBRANCH   6  10
BRANCH   8  19
ATOM     19  O   LIG A   1      -4.208   7.314 128.799  0.00  0.00    -0.491 OA
ATOM     20  C   LIG A   1      -3.739   6.384 127.826  0.00  0.00    +0.277 C 
ENDBRANCH   8  19
BRANCH   1  21
ATOM     21  C   LIG A   1      -1.673   5.778 132.700  0.00  0.00    +0.037 C 
BRANCH  21  22
ATOM     22  C   LIG A   1      -1.500   6.491 134.042  0.00  0.00    +0.032 C 
BRANCH  22  23
ATOM     23  C   LIG A   1      -0.168   7.228 134.129  0.00  0.00    +0.156 C 
BRANCH  23  24
ATOM     24  O   LIG A   1       0.371   7.357 132.819  0.00  0.00    -0.395 OA
ATOM     25  H   LIG A   1      -0.276   6.978 132.199  0.00  0.00    +0.209 HD
ENDBRANCH  23  24
ENDBRANCH  22  23
ENDBRANCH  21  22
ENDBRANCH   1  21
TORSDOF 6
ENDMDL
MODEL 4
REMARK VINA RESULT:      -7.2      9.493     10.464
REMARK  Name = NuBBE_410
REMARK  7 active torsions:
REMARK  status: ('A' for Active; 'I' for Inactive)
REMARK    1  A    between atoms: O_1  and  C_2
REMARK    2  A    between atoms: C_2  and  C_3
REMARK    3  A    between atoms: C_3  and  C_4
REMARK    4  A    between atoms: C_4  and  C_5
REMARK    5  A    between atoms: C_10  and  C_11
REMARK    6  A    between atoms: C_21  and  O_22
REMARK    7  A    between atoms: O_22  and  C_23
REMARK                            x       y       z     vdW  Elec       q    Type
REMARK                         _______ _______ _______ _____ _____    ______ ____
ROOT
ATOM      1  C   LIG A   1      -8.522  -2.660 124.806  0.00  0.00    -0.043 A 
ATOM      2  C   LIG A   1      -9.076  -3.217 125.975  0.00  0.00    +0.015 A 
ATOM      3  C   LIG A   1      -8.346  -3.179 127.180  0.00  0.00    +0.025 A 
ATOM      4  C   LIG A   1      -7.096  -2.569 127.180  0.00  0.00    +0.177 A 
ATOM      5  O   LIG A   1      -6.560  -2.635 128.428  0.00  0.00    -0.451 OA
ATOM      6  C   LIG A   1      -7.437  -3.287 129.243  0.00  0.00    +0.137 A 
ATOM      7  C   LIG A   1      -8.552  -3.639 128.513  0.00  0.00    +0.058 A 
ATOM      8  C   LIG A   1      -6.506  -1.994 126.048  0.00  0.00    +0.163 A 
ATOM      9  C   LIG A   1      -7.254  -2.053 124.860  0.00  0.00    +0.053 A 
ENDROOT
BRANCH   6  10
ATOM     10  C   LIG A   1      -6.999  -3.448 130.630  0.00  0.00    +0.021 A 
ATOM     11  C   LIG A   1      -7.544  -2.650 131.647  0.00  0.00    +0.061 A 
ATOM     12  C   LIG A   1      -7.090  -2.839 132.940  0.00  0.00    +0.167 A 
ATOM     13  C   LIG A   1      -6.133  -3.775 133.250  0.00  0.00    +0.166 A 
ATOM     14  O   LIG A   1      -5.831  -3.792 134.574  0.00  0.00    -0.453 OA
ATOM     15  C   LIG A   1      -6.708  -2.759 135.065  0.00  0.00    +0.466 C 
ATOM     16  O   LIG A   1      -7.513  -2.148 134.033  0.00  0.00    -0.453 OA
ATOM     17  C   LIG A   1      -5.573  -4.581 132.287  0.00  0.00    +0.050 A 
ATOM     18  C   LIG A   1      -6.013  -4.411 130.970  0.00  0.00    +0.015 A 
ENDBRANCH   6  10
BRANCH   8  19
ATOM     19  O   LIG A   1      -5.269  -1.378 125.959  0.00  0.00    -0.491 OA
ATOM     20  C   LIG A   1      -5.262   0.029 126.184  0.00  0.00    +0.277 C 
ENDBRANCH   8  19
BRANCH   1  21
ATOM     21  C   LIG A   1      -9.288  -2.720 123.501  0.00  0.00    +0.037 C 
BRANCH  21  22
ATOM     22  C   LIG A   1      -8.915  -1.595 122.535  0.00  0.00    +0.032 C 
BRANCH  22  23
ATOM     23  C   LIG A   1      -9.443  -0.243 123.002  0.00  0.00    +0.156 C 
BRANCH  23  24
ATOM     24  O   LIG A   1     -10.750  -0.053 122.472  0.00  0.00    -0.395 OA
ATOM     25  H   LIG A   1     -10.673   0.563 121.723  0.00  0.00    +0.209 HD
ENDBRANCH  23  24
ENDBRANCH  22  23
ENDBRANCH  21  22
ENDBRANCH   1  21
TORSDOF 6
ENDMDL
MODEL 5
REMARK VINA RESULT:      -7.2      8.557      9.385
REMARK  Name = NuBBE_410
REMARK  7 active torsions:
REMARK  status: ('A' for Active; 'I' for Inactive)
REMARK    1  A    between atoms: O_1  and  C_2
REMARK    2  A    between atoms: C_2  and  C_3
REMARK    3  A    between atoms: C_3  and  C_4
REMARK    4  A    between atoms: C_4  and  C_5
REMARK    5  A    between atoms: C_10  and  C_11
REMARK    6  A    between atoms: C_21  and  O_22
REMARK    7  A    between atoms: O_22  and  C_23
REMARK                            x       y       z     vdW  Elec       q    Type
REMARK                         _______ _______ _______ _____ _____    ______ ____
ROOT
ATOM      1  C   LIG A   1      -6.530   3.056 122.745  0.00  0.00    -0.043 A 
ATOM      2  C   LIG A   1      -7.008   1.741 122.910  0.00  0.00    +0.015 A 
ATOM      3  C   LIG A   1      -6.832   1.085 124.144  0.00  0.00    +0.025 A 
ATOM      4  C   LIG A   1      -6.203   1.770 125.178  0.00  0.00    +0.177 A 
ATOM      5  O   LIG A   1      -6.133   0.970 126.275  0.00  0.00    -0.451 OA
ATOM      6  C   LIG A   1      -6.700  -0.232 125.973  0.00  0.00    +0.137 A 
ATOM      7  C   LIG A   1      -7.144  -0.203 124.669  0.00  0.00    +0.058 A 
ATOM      8  C   LIG A   1      -5.719   3.079 125.067  0.00  0.00    +0.163 A 
ATOM      9  C   LIG A   1      -5.902   3.706 123.823  0.00  0.00    +0.053 A 
ENDROOT
BRANCH   6  10
ATOM     10  C   LIG A   1      -6.695  -1.215 127.058  0.00  0.00    +0.021 A 
ATOM     11  C   LIG A   1      -5.485  -1.656 127.614  0.00  0.00    +0.061 A 
ATOM     12  C   LIG A   1      -5.537  -2.591 128.632  0.00  0.00    +0.167 A 
ATOM     13  C   LIG A   1      -6.726  -3.091 129.106  0.00  0.00    +0.166 A 
ATOM     14  O   LIG A   1      -6.549  -3.997 130.102  0.00  0.00    -0.453 OA
ATOM     15  C   LIG A   1      -5.111  -4.013 130.203  0.00  0.00    +0.466 C 
ATOM     16  O   LIG A   1      -4.459  -3.120 129.272  0.00  0.00    -0.453 OA
ATOM     17  C   LIG A   1      -7.935  -2.685 128.593  0.00  0.00    +0.050 A 
ATOM     18  C   LIG A   1      -7.913  -1.741 127.562  0.00  0.00    +0.015 A 
ENDBRANCH   6  10
BRANCH   8  19
ATOM     19  O   LIG A   1      -5.075   3.829 126.038  0.00  0.00    -0.491 OA
ATOM     20  C   LIG A   1      -3.674   3.599 126.166  0.00  0.00    +0.277 C 
ENDBRANCH   8  19
BRANCH   1  21
ATOM     21  C   LIG A   1      -6.690   3.759 121.413  0.00  0.00    +0.037 C 
BRANCH  21  22
ATOM     22  C   LIG A   1      -5.368   3.932 120.664  0.00  0.00    +0.032 C 
BRANCH  22  23
ATOM     23  C   LIG A   1      -5.338   5.220 119.849  0.00  0.00    +0.156 C 
BRANCH  23  24
ATOM     24  O   LIG A   1      -4.603   6.202 120.569  0.00  0.00    -0.395 OA
ATOM     25  H   LIG A   1      -3.692   6.193 120.226  0.00  0.00    +0.209 HD
ENDBRANCH  23  24
ENDBRANCH  22  23
ENDBRANCH  21  22
ENDBRANCH   1  21
TORSDOF 6
ENDMDL
MODEL 6
REMARK VINA RESULT:      -7.2      8.446      9.652
REMARK  Name = NuBBE_410
REMARK  7 active torsions:
REMARK  status: ('A' for Active; 'I' for Inactive)
REMARK    1  A    between atoms: O_1  and  C_2
REMARK    2  A    between atoms: C_2  and  C_3
REMARK    3  A    between atoms: C_3  and  C_4
REMARK    4  A    between atoms: C_4  and  C_5
REMARK    5  A    between atoms: C_10  and  C_11
REMARK    6  A    between atoms: C_21  and  O_22
REMARK    7  A    between atoms: O_22  and  C_23
REMARK                            x       y       z     vdW  Elec       q    Type
REMARK                         _______ _______ _______ _____ _____    ______ ____
ROOT
ATOM      1  C   LIG A   1      -5.839   3.775 122.200  0.00  0.00    -0.043 A 
ATOM      2  C   LIG A   1      -6.458   2.525 122.005  0.00  0.00    +0.015 A 
ATOM      3  C   LIG A   1      -6.776   1.723 123.119  0.00  0.00    +0.025 A 
ATOM      4  C   LIG A   1      -6.483   2.205 124.391  0.00  0.00    +0.177 A 
ATOM      5  O   LIG A   1      -6.865   1.290 125.321  0.00  0.00    -0.451 OA
ATOM      6  C   LIG A   1      -7.397   0.213 124.678  0.00  0.00    +0.137 A 
ATOM      7  C   LIG A   1      -7.362   0.439 123.318  0.00  0.00    +0.058 A 
ATOM      8  C   LIG A   1      -5.877   3.443 124.637  0.00  0.00    +0.163 A 
ATOM      9  C   LIG A   1      -5.565   4.217 123.508  0.00  0.00    +0.053 A 
ENDROOT
BRANCH   6  10
ATOM     10  C   LIG A   1      -7.853  -0.872 125.548  0.00  0.00    +0.021 A 
ATOM     11  C   LIG A   1      -7.356  -0.994 126.855  0.00  0.00    +0.061 A 
ATOM     12  C   LIG A   1      -7.815  -2.040 127.633  0.00  0.00    +0.167 A 
ATOM     13  C   LIG A   1      -8.731  -2.953 127.167  0.00  0.00    +0.166 A 
ATOM     14  O   LIG A   1      -9.041  -3.899 128.091  0.00  0.00    -0.453 OA
ATOM     15  C   LIG A   1      -8.215  -3.480 129.195  0.00  0.00    +0.466 C 
ATOM     16  O   LIG A   1      -7.432  -2.298 128.913  0.00  0.00    -0.453 OA
ATOM     17  C   LIG A   1      -9.247  -2.871 125.894  0.00  0.00    +0.050 A 
ATOM     18  C   LIG A   1      -8.800  -1.822 125.085  0.00  0.00    +0.015 A 
ENDBRANCH   6  10
BRANCH   8  19
ATOM     19  O   LIG A   1      -5.542   3.993 125.864  0.00  0.00    -0.491 OA
ATOM     20  C   LIG A   1      -4.284   3.589 126.398  0.00  0.00    +0.277 C 
ENDBRANCH   8  19
BRANCH   1  21
ATOM     21  C   LIG A   1      -5.469   4.632 121.007  0.00  0.00    +0.037 C 
BRANCH  21  22
ATOM     22  C   LIG A   1      -6.366   4.388 119.793  0.00  0.00    +0.032 C 
BRANCH  22  23
ATOM     23  C   LIG A   1      -6.121   5.409 118.687  0.00  0.00    +0.156 C 
BRANCH  23  24
ATOM     24  O   LIG A   1      -5.270   6.432 119.188  0.00  0.00    -0.395 OA
ATOM     25  H   LIG A   1      -5.190   7.109 118.494  0.00  0.00    +0.209 HD
ENDBRANCH  23  24
ENDBRANCH  22  23
ENDBRANCH  21  22
ENDBRANCH   1  21
TORSDOF 6
ENDMDL
MODEL 7
REMARK VINA RESULT:      -7.2      8.173     10.441
REMARK  Name = NuBBE_410
REMARK  7 active torsions:
REMARK  status: ('A' for Active; 'I' for Inactive)
REMARK    1  A    between atoms: O_1  and  C_2
REMARK    2  A    between atoms: C_2  and  C_3
REMARK    3  A    between atoms: C_3  and  C_4
REMARK    4  A    between atoms: C_4  and  C_5
REMARK    5  A    between atoms: C_10  and  C_11
REMARK    6  A    between atoms: C_21  and  O_22
REMARK    7  A    between atoms: O_22  and  C_23
REMARK                            x       y       z     vdW  Elec       q    Type
REMARK                         _______ _______ _______ _____ _____    ______ ____
ROOT
ATOM      1  C   LIG A   1      -8.070  -0.782 123.786  0.00  0.00    -0.043 A 
ATOM      2  C   LIG A   1      -7.032  -0.790 124.738  0.00  0.00    +0.015 A 
ATOM      3  C   LIG A   1      -6.425   0.423 125.119  0.00  0.00    +0.025 A 
ATOM      4  C   LIG A   1      -6.887   1.605 124.551  0.00  0.00    +0.177 A 
ATOM      5  O   LIG A   1      -6.177   2.653 125.046  0.00  0.00    -0.451 OA
ATOM      6  C   LIG A   1      -5.252   2.175 125.925  0.00  0.00    +0.137 A 
ATOM      7  C   LIG A   1      -5.370   0.803 125.999  0.00  0.00    +0.058 A 
ATOM      8  C   LIG A   1      -7.920   1.667 123.608  0.00  0.00    +0.163 A 
ATOM      9  C   LIG A   1      -8.502   0.442 123.242  0.00  0.00    +0.053 A 
ENDROOT
BRANCH   6  10
ATOM     10  C   LIG A   1      -4.395   3.188 126.544  0.00  0.00    +0.021 A 
ATOM     11  C   LIG A   1      -4.928   4.423 126.943  0.00  0.00    +0.061 A 
ATOM     12  C   LIG A   1      -4.074   5.347 127.517  0.00  0.00    +0.167 A 
ATOM     13  C   LIG A   1      -2.737   5.091 127.703  0.00  0.00    +0.166 A 
ATOM     14  O   LIG A   1      -2.082   6.133 128.279  0.00  0.00    -0.453 OA
ATOM     15  C   LIG A   1      -3.159   7.077 128.434  0.00  0.00    +0.466 C 
ATOM     16  O   LIG A   1      -4.430   6.586 127.953  0.00  0.00    -0.453 OA
ATOM     17  C   LIG A   1      -2.172   3.894 127.330  0.00  0.00    +0.050 A 
ATOM     18  C   LIG A   1      -3.013   2.940 126.747  0.00  0.00    +0.015 A 
ENDBRANCH   6  10
BRANCH   8  19
ATOM     19  O   LIG A   1      -8.433   2.795 122.988  0.00  0.00    -0.491 OA
ATOM     20  C   LIG A   1      -7.662   3.308 121.904  0.00  0.00    +0.277 C 
ENDBRANCH   8  19
BRANCH   1  21
ATOM     21  C   LIG A   1      -8.710  -2.083 123.350  0.00  0.00    +0.037 C 
BRANCH  21  22
ATOM     22  C   LIG A   1      -8.106  -3.308 124.038  0.00  0.00    +0.032 C 
BRANCH  22  23
ATOM     23  C   LIG A   1      -8.774  -3.599 125.378  0.00  0.00    +0.156 C 
BRANCH  23  24
ATOM     24  O   LIG A   1     -10.033  -2.937 125.415  0.00  0.00    -0.395 OA
ATOM     25  H   LIG A   1     -10.718  -3.621 125.519  0.00  0.00    +0.209 HD
ENDBRANCH  23  24
ENDBRANCH  22  23
ENDBRANCH  21  22
ENDBRANCH   1  21
TORSDOF 6
ENDMDL
MODEL 8
REMARK VINA RESULT:      -7.2      5.382      8.261
REMARK  Name = NuBBE_410
REMARK  7 active torsions:
REMARK  status: ('A' for Active; 'I' for Inactive)
REMARK    1  A    between atoms: O_1  and  C_2
REMARK    2  A    between atoms: C_2  and  C_3
REMARK    3  A    between atoms: C_3  and  C_4
REMARK    4  A    between atoms: C_4  and  C_5
REMARK    5  A    between atoms: C_10  and  C_11
REMARK    6  A    between atoms: C_21  and  O_22
REMARK    7  A    between atoms: O_22  and  C_23
REMARK                            x       y       z     vdW  Elec       q    Type
REMARK                         _______ _______ _______ _____ _____    ______ ____
ROOT
ATOM      1  C   LIG A   1      -6.212   3.675 122.611  0.00  0.00    -0.043 A 
ATOM      2  C   LIG A   1      -5.706   4.122 123.848  0.00  0.00    +0.015 A 
ATOM      3  C   LIG A   1      -6.489   3.990 125.011  0.00  0.00    +0.025 A 
ATOM      4  C   LIG A   1      -7.744   3.399 124.904  0.00  0.00    +0.177 A 
ATOM      5  O   LIG A   1      -8.334   3.365 126.129  0.00  0.00    -0.451 OA
ATOM      6  C   LIG A   1      -7.489   3.932 127.034  0.00  0.00    +0.137 A 
ATOM      7  C   LIG A   1      -6.339   4.331 126.387  0.00  0.00    +0.058 A 
ATOM      8  C   LIG A   1      -8.287   2.931 123.702  0.00  0.00    +0.163 A 
ATOM      9  C   LIG A   1      -7.487   3.082 122.558  0.00  0.00    +0.053 A 
ENDROOT
BRANCH   6  10
ATOM     10  C   LIG A   1      -7.987   3.979 128.410  0.00  0.00    +0.021 A 
ATOM     11  C   LIG A   1      -8.678   5.107 128.879  0.00  0.00    +0.061 A 
ATOM     12  C   LIG A   1      -9.122   5.103 130.188  0.00  0.00    +0.167 A 
ATOM     13  C   LIG A   1      -8.907   4.039 131.031  0.00  0.00    +0.166 A 
ATOM     14  O   LIG A   1      -9.421   4.243 132.271  0.00  0.00    -0.453 OA
ATOM     15  C   LIG A   1      -9.987   5.560 132.115  0.00  0.00    +0.466 C 
ATOM     16  O   LIG A   1      -9.802   6.114 130.794  0.00  0.00    -0.453 OA
ATOM     17  C   LIG A   1      -8.237   2.912 130.614  0.00  0.00    +0.050 A 
ATOM     18  C   LIG A   1      -7.777   2.889 129.294  0.00  0.00    +0.015 A 
ENDBRANCH   6  10
BRANCH   8  19
ATOM     19  O   LIG A   1      -9.525   2.341 123.506  0.00  0.00    -0.491 OA
ATOM     20  C   LIG A   1      -9.698   1.057 124.099  0.00  0.00    +0.277 C 
ENDBRANCH   8  19
BRANCH   1  21
ATOM     21  C   LIG A   1      -5.388   3.837 121.351  0.00  0.00    +0.037 C 
BRANCH  21  22
ATOM     22  C   LIG A   1      -6.212   4.311 120.154  0.00  0.00    +0.032 C 
BRANCH  22  23
ATOM     23  C   LIG A   1      -5.526   5.447 119.402  0.00  0.00    +0.156 C 
BRANCH  23  24
ATOM     24  O   LIG A   1      -4.707   6.171 120.312  0.00  0.00    -0.395 OA
ATOM     25  H   LIG A   1      -3.852   5.708 120.364  0.00  0.00    +0.209 HD
ENDBRANCH  23  24
ENDBRANCH  22  23
ENDBRANCH  21  22
ENDBRANCH   1  21
TORSDOF 6
ENDMDL
MODEL 9
REMARK VINA RESULT:      -7.0      2.582      3.823
REMARK  Name = NuBBE_410
REMARK  7 active torsions:
REMARK  status: ('A' for Active; 'I' for Inactive)
REMARK    1  A    between atoms: O_1  and  C_2
REMARK    2  A    between atoms: C_2  and  C_3
REMARK    3  A    between atoms: C_3  and  C_4
REMARK    4  A    between atoms: C_4  and  C_5
REMARK    5  A    between atoms: C_10  and  C_11
REMARK    6  A    between atoms: C_21  and  O_22
REMARK    7  A    between atoms: O_22  and  C_23
REMARK                            x       y       z     vdW  Elec       q    Type
REMARK                         _______ _______ _______ _____ _____    ______ ____
ROOT
ATOM      1  C   LIG A   1     -11.253   6.990 130.156  0.00  0.00    -0.043 A 
ATOM      2  C   LIG A   1     -11.684   5.658 130.311  0.00  0.00    +0.015 A 
ATOM      3  C   LIG A   1     -10.732   4.624 130.415  0.00  0.00    +0.025 A 
ATOM      4  C   LIG A   1      -9.382   4.958 130.382  0.00  0.00    +0.177 A 
ATOM      5  O   LIG A   1      -8.633   3.829 130.498  0.00  0.00    -0.451 OA
ATOM      6  C   LIG A   1      -9.473   2.760 130.599  0.00  0.00    +0.137 A 
ATOM      7  C   LIG A   1     -10.776   3.207 130.552  0.00  0.00    +0.058 A 
ATOM      8  C   LIG A   1      -8.903   6.266 130.240  0.00  0.00    +0.163 A 
ATOM      9  C   LIG A   1      -9.874   7.275 130.130  0.00  0.00    +0.053 A 
ENDROOT
BRANCH   6  10
ATOM     10  C   LIG A   1      -8.815   1.458 130.723  0.00  0.00    +0.021 A 
ATOM     11  C   LIG A   1      -8.863   0.748 131.932  0.00  0.00    +0.061 A 
ATOM     12  C   LIG A   1      -8.219  -0.474 131.998  0.00  0.00    +0.167 A 
ATOM     13  C   LIG A   1      -7.543  -1.004 130.925  0.00  0.00    +0.166 A 
ATOM     14  O   LIG A   1      -6.982  -2.208 131.206  0.00  0.00    -0.453 OA
ATOM     15  C   LIG A   1      -7.382  -2.379 132.580  0.00  0.00    +0.466 C 
ATOM     16  O   LIG A   1      -8.170  -1.281 133.092  0.00  0.00    -0.453 OA
ATOM     17  C   LIG A   1      -7.472  -0.344 129.720  0.00  0.00    +0.050 A 
ATOM     18  C   LIG A   1      -8.114   0.894 129.625  0.00  0.00    +0.015 A 
ENDBRANCH   6  10
BRANCH   8  19
ATOM     19  O   LIG A   1      -7.583   6.683 130.188  0.00  0.00    -0.491 OA
ATOM     20  C   LIG A   1      -6.885   6.675 131.430  0.00  0.00    +0.277 C 
ENDBRANCH   8  19
BRANCH   1  21
ATOM     21  C   LIG A   1     -12.269   8.105 130.016  0.00  0.00    +0.037 C 
BRANCH  21  22
ATOM     22  C   LIG A   1     -12.470   8.552 128.567  0.00  0.00    +0.032 C 
BRANCH  22  23
ATOM     23  C   LIG A   1     -13.386   7.604 127.799  0.00  0.00    +0.156 C 
BRANCH  23  24
ATOM     24  O   LIG A   1     -12.595   6.816 126.918  0.00  0.00    -0.395 OA
ATOM     25  H   LIG A   1     -11.677   7.130 126.992  0.00  0.00    +0.209 HD
ENDBRANCH  23  24
ENDBRANCH  22  23
ENDBRANCH  21  22
ENDBRANCH   1  21
TORSDOF 6
ENDMDL
