MODEL 1
REMARK VINA RESULT:      -7.0      0.000      0.000
REMARK  Name = NuBBE_2043
REMARK  12 active torsions:
REMARK  status: ('A' for Active; 'I' for Inactive)
REMARK    1  A    between atoms: O_1  and  C_2
REMARK    2  A    between atoms: O_1  and  C_3
REMARK    3  A    between atoms: C_4  and  C_6
REMARK    4  A    between atoms: C_7  and  C_20
REMARK    5  A    between atoms: C_15  and  C_17
REMARK    6  A    between atoms: C_17  and  C_18
REMARK    7  A    between atoms: C_22  and  O_23
REMARK    8  A    between atoms: O_23  and  C_24
REMARK    9  A    between atoms: C_25  and  O_30
REMARK   10  A    between atoms: C_26  and  O_28
REMARK   11  A    between atoms: O_28  and  C_29
REMARK   12  A    between atoms: O_30  and  C_31
REMARK                            x       y       z     vdW  Elec       q    Type
REMARK                         _______ _______ _______ _____ _____    ______ ____
ROOT
ATOM      1  C   LIG A   1     -10.249   4.830 130.586  0.00  0.00    +0.149 C 
ATOM      2  C   LIG A   1      -9.528   5.589 131.738  0.00  0.00    +0.038 C 
ATOM      3  C   LIG A   1     -10.455   6.224 132.784  0.00  0.00    +0.012 C 
ATOM      4  C   LIG A   1      -8.626   6.697 131.060  0.00  0.00    +0.043 C 
ATOM      5  C   LIG A   1      -8.903   6.534 129.540  0.00  0.00    +0.137 C 
ATOM      6  C   LIG A   1      -9.238   5.066 129.475  0.00  0.00    +0.180 C 
ATOM      7  O   LIG A   1      -8.808   4.295 128.652  0.00  0.00    -0.293 OA
ATOM      8  C   LIG A   1     -10.121   7.345 129.162  0.00  0.00    +0.170 C 
ATOM      9  O   LIG A   1     -10.023   8.513 128.781  0.00  0.00    -0.292 OA
ATOM     10  C   LIG A   1     -11.454   6.701 129.367  0.00  0.00    -0.001 C 
ATOM     11  C   LIG A   1     -11.478   5.530 130.038  0.00  0.00    +0.023 C 
ENDROOT
BRANCH   4  12
ATOM     12  C   LIG A   1      -7.148   6.584 131.431  0.00  0.00    -0.036 A 
ATOM     13  C   LIG A   1      -6.132   7.203 130.695  0.00  0.00    +0.053 A 
ATOM     14  C   LIG A   1      -4.782   7.153 131.096  0.00  0.00    +0.165 A 
ATOM     15  C   LIG A   1      -4.416   6.434 132.251  0.00  0.00    +0.203 A 
ATOM     16  C   LIG A   1      -5.427   5.786 132.986  0.00  0.00    +0.165 A 
ATOM     17  C   LIG A   1      -6.750   5.829 132.536  0.00  0.00    +0.053 A 
BRANCH  14  18
ATOM     18  O   LIG A   1      -3.989   7.870 130.234  0.00  0.00    -0.491 OA
ATOM     19  C   LIG A   1      -3.616   7.309 128.987  0.00  0.00    +0.277 C 
ENDBRANCH  14  18
BRANCH  16  20
ATOM     20  O   LIG A   1      -5.118   5.214 134.199  0.00  0.00    -0.491 OA
ATOM     21  C   LIG A   1      -5.630   5.869 135.358  0.00  0.00    +0.277 C 
ENDBRANCH  16  20
BRANCH  15  22
ATOM     22  O   LIG A   1      -3.101   6.451 132.627  0.00  0.00    -0.488 OA
ATOM     23  C   LIG A   1      -2.232   5.444 132.117  0.00  0.00    +0.277 C 
ENDBRANCH  15  22
ENDBRANCH   4  12
BRANCH   1  24
ATOM     24  O   LIG A   1     -10.504   3.460 130.810  0.00  0.00    -0.365 OA
ATOM     25  C   LIG A   1      -9.606   2.791 131.680  0.00  0.00    +0.195 C 
ENDBRANCH   1  24
BRANCH  10  26
ATOM     26  C   LIG A   1     -12.692   7.400 128.889  0.00  0.00    +0.065 C 
BRANCH  26  27
ATOM     27  C   LIG A   1     -13.143   6.917 127.536  0.00  0.00    -0.030 C 
ATOM     28  C   LIG A   1     -12.428   7.104 126.421  0.00  0.00    +0.004 C 
ENDBRANCH  26  27
ENDBRANCH  10  26
TORSDOF 7
ENDMDL
MODEL 2
REMARK VINA RESULT:      -6.9      5.987      8.494
REMARK  Name = NuBBE_2043
REMARK  12 active torsions:
REMARK  status: ('A' for Active; 'I' for Inactive)
REMARK    1  A    between atoms: O_1  and  C_2
REMARK    2  A    between atoms: O_1  and  C_3
REMARK    3  A    between atoms: C_4  and  C_6
REMARK    4  A    between atoms: C_7  and  C_20
REMARK    5  A    between atoms: C_15  and  C_17
REMARK    6  A    between atoms: C_17  and  C_18
REMARK    7  A    between atoms: C_22  and  O_23
REMARK    8  A    between atoms: O_23  and  C_24
REMARK    9  A    between atoms: C_25  and  O_30
REMARK   10  A    between atoms: C_26  and  O_28
REMARK   11  A    between atoms: O_28  and  C_29
REMARK   12  A    between atoms: O_30  and  C_31
REMARK                            x       y       z     vdW  Elec       q    Type
REMARK                         _______ _______ _______ _____ _____    ______ ____
ROOT
ATOM      1  C   LIG A   1      -7.761   0.952 124.936  0.00  0.00    +0.149 C 
ATOM      2  C   LIG A   1      -6.957   1.208 126.245  0.00  0.00    +0.038 C 
ATOM      3  C   LIG A   1      -5.431   1.194 126.087  0.00  0.00    +0.012 C 
ATOM      4  C   LIG A   1      -7.412   0.105 127.282  0.00  0.00    +0.043 C 
ATOM      5  C   LIG A   1      -8.442  -0.754 126.497  0.00  0.00    +0.137 C 
ATOM      6  C   LIG A   1      -8.982   0.272 125.535  0.00  0.00    +0.180 C 
ATOM      7  O   LIG A   1     -10.152   0.438 125.287  0.00  0.00    -0.293 OA
ATOM      8  C   LIG A   1      -7.713  -1.831 125.727  0.00  0.00    +0.170 C 
ATOM      9  O   LIG A   1      -7.508  -2.943 126.215  0.00  0.00    -0.292 OA
ATOM     10  C   LIG A   1      -7.165  -1.453 124.389  0.00  0.00    -0.001 C 
ATOM     11  C   LIG A   1      -7.201  -0.146 124.052  0.00  0.00    +0.023 C 
ENDROOT
BRANCH   4  12
ATOM     12  C   LIG A   1      -7.963   0.689 128.583  0.00  0.00    -0.036 A 
ATOM     13  C   LIG A   1      -8.542   1.959 128.659  0.00  0.00    +0.053 A 
ATOM     14  C   LIG A   1      -9.116   2.450 129.850  0.00  0.00    +0.165 A 
ATOM     15  C   LIG A   1      -9.085   1.666 131.020  0.00  0.00    +0.203 A 
ATOM     16  C   LIG A   1      -8.483   0.396 130.962  0.00  0.00    +0.165 A 
ATOM     17  C   LIG A   1      -7.893  -0.041 129.772  0.00  0.00    +0.053 A 
BRANCH  14  18
ATOM     18  O   LIG A   1      -9.653   3.698 129.656  0.00  0.00    -0.491 OA
ATOM     19  C   LIG A   1      -8.826   4.845 129.756  0.00  0.00    +0.277 C 
ENDBRANCH  14  18
BRANCH  16  20
ATOM     20  O   LIG A   1      -8.581  -0.448 132.045  0.00  0.00    -0.491 OA
ATOM     21  C   LIG A   1      -7.353  -0.838 132.658  0.00  0.00    +0.277 C 
ENDBRANCH  16  20
BRANCH  15  22
ATOM     22  O   LIG A   1      -9.694   2.164 132.140  0.00  0.00    -0.488 OA
ATOM     23  C   LIG A   1      -8.902   2.866 133.093  0.00  0.00    +0.277 C 
ENDBRANCH  15  22
ENDBRANCH   4  12
BRANCH   1  24
ATOM     24  O   LIG A   1      -8.091   2.095 124.177  0.00  0.00    -0.365 OA
ATOM     25  C   LIG A   1      -8.269   3.299 124.904  0.00  0.00    +0.195 C 
ENDBRANCH   1  24
BRANCH  10  26
ATOM     26  C   LIG A   1      -6.549  -2.509 123.520  0.00  0.00    +0.065 C 
BRANCH  26  27
ATOM     27  C   LIG A   1      -5.091  -2.728 123.821  0.00  0.00    -0.030 C 
ATOM     28  C   LIG A   1      -4.479  -3.904 123.642  0.00  0.00    +0.004 C 
ENDBRANCH  26  27
ENDBRANCH  10  26
TORSDOF 7
ENDMDL
MODEL 3
REMARK VINA RESULT:      -6.9      1.955      7.312
REMARK  Name = NuBBE_2043
REMARK  12 active torsions:
REMARK  status: ('A' for Active; 'I' for Inactive)
REMARK    1  A    between atoms: O_1  and  C_2
REMARK    2  A    between atoms: O_1  and  C_3
REMARK    3  A    between atoms: C_4  and  C_6
REMARK    4  A    between atoms: C_7  and  C_20
REMARK    5  A    between atoms: C_15  and  C_17
REMARK    6  A    between atoms: C_17  and  C_18
REMARK    7  A    between atoms: C_22  and  O_23
REMARK    8  A    between atoms: O_23  and  C_24
REMARK    9  A    between atoms: C_25  and  O_30
REMARK   10  A    between atoms: C_26  and  O_28
REMARK   11  A    between atoms: O_28  and  C_29
REMARK   12  A    between atoms: O_30  and  C_31
REMARK                            x       y       z     vdW  Elec       q    Type
REMARK                         _______ _______ _______ _____ _____    ______ ____
ROOT
ATOM      1  C   LIG A   1      -3.845   5.699 129.958  0.00  0.00    +0.149 C 
ATOM      2  C   LIG A   1      -4.842   6.863 130.230  0.00  0.00    +0.038 C 
ATOM      3  C   LIG A   1      -4.225   8.268 130.220  0.00  0.00    +0.012 C 
ATOM      4  C   LIG A   1      -5.515   6.569 131.630  0.00  0.00    +0.043 C 
ATOM      5  C   LIG A   1      -4.840   5.254 132.108  0.00  0.00    +0.137 C 
ATOM      6  C   LIG A   1      -4.516   4.612 130.783  0.00  0.00    +0.180 C 
ATOM      7  O   LIG A   1      -4.717   3.454 130.509  0.00  0.00    -0.293 OA
ATOM      8  C   LIG A   1      -3.556   5.584 132.834  0.00  0.00    +0.170 C 
ATOM      9  O   LIG A   1      -3.535   5.763 134.053  0.00  0.00    -0.292 OA
ATOM     10  C   LIG A   1      -2.336   5.783 131.995  0.00  0.00    -0.001 C 
ATOM     11  C   LIG A   1      -2.506   5.834 130.657  0.00  0.00    +0.023 C 
ENDROOT
BRANCH   4  12
ATOM     12  C   LIG A   1      -7.040   6.489 131.564  0.00  0.00    -0.036 A 
ATOM     13  C   LIG A   1      -7.794   7.157 130.594  0.00  0.00    +0.053 A 
ATOM     14  C   LIG A   1      -9.192   7.008 130.500  0.00  0.00    +0.165 A 
ATOM     15  C   LIG A   1      -9.877   6.194 131.424  0.00  0.00    +0.203 A 
ATOM     16  C   LIG A   1      -9.132   5.536 132.420  0.00  0.00    +0.165 A 
ATOM     17  C   LIG A   1      -7.750   5.737 132.502  0.00  0.00    +0.053 A 
BRANCH  14  18
ATOM     18  O   LIG A   1      -9.691   7.730 129.445  0.00  0.00    -0.491 OA
ATOM     19  C   LIG A   1     -10.297   7.057 128.353  0.00  0.00    +0.277 C 
ENDBRANCH  14  18
BRANCH  16  20
ATOM     20  O   LIG A   1      -9.755   4.615 133.231  0.00  0.00    -0.491 OA
ATOM     21  C   LIG A   1      -8.902   3.745 133.974  0.00  0.00    +0.277 C 
ENDBRANCH  16  20
BRANCH  15  22
ATOM     22  O   LIG A   1     -11.228   6.044 131.267  0.00  0.00    -0.488 OA
ATOM     23  C   LIG A   1     -12.093   7.033 131.814  0.00  0.00    +0.277 C 
ENDBRANCH  15  22
ENDBRANCH   4  12
BRANCH   1  24
ATOM     24  O   LIG A   1      -3.675   5.330 128.606  0.00  0.00    -0.365 OA
ATOM     25  C   LIG A   1      -2.416   5.633 128.029  0.00  0.00    +0.195 C 
ENDBRANCH   1  24
BRANCH  10  26
ATOM     26  C   LIG A   1      -1.007   5.980 132.663  0.00  0.00    +0.065 C 
BRANCH  26  27
ATOM     27  C   LIG A   1      -0.542   7.411 132.613  0.00  0.00    -0.030 C 
ATOM     28  C   LIG A   1      -1.273   8.431 133.079  0.00  0.00    +0.004 C 
ENDBRANCH  26  27
ENDBRANCH  10  26
TORSDOF 7
ENDMDL
MODEL 4
REMARK VINA RESULT:      -6.8      6.365      8.212
REMARK  Name = NuBBE_2043
REMARK  12 active torsions:
REMARK  status: ('A' for Active; 'I' for Inactive)
REMARK    1  A    between atoms: O_1  and  C_2
REMARK    2  A    between atoms: O_1  and  C_3
REMARK    3  A    between atoms: C_4  and  C_6
REMARK    4  A    between atoms: C_7  and  C_20
REMARK    5  A    between atoms: C_15  and  C_17
REMARK    6  A    between atoms: C_17  and  C_18
REMARK    7  A    between atoms: C_22  and  O_23
REMARK    8  A    between atoms: O_23  and  C_24
REMARK    9  A    between atoms: C_25  and  O_30
REMARK   10  A    between atoms: C_26  and  O_28
REMARK   11  A    between atoms: O_28  and  C_29
REMARK   12  A    between atoms: O_30  and  C_31
REMARK                            x       y       z     vdW  Elec       q    Type
REMARK                         _______ _______ _______ _____ _____    ______ ____
ROOT
ATOM      1  C   LIG A   1      -7.476  -1.221 127.575  0.00  0.00    +0.149 C 
ATOM      2  C   LIG A   1      -7.919   0.165 127.021  0.00  0.00    +0.038 C 
ATOM      3  C   LIG A   1      -9.279   0.181 126.309  0.00  0.00    +0.012 C 
ATOM      4  C   LIG A   1      -6.779   0.647 126.037  0.00  0.00    +0.043 C 
ATOM      5  C   LIG A   1      -5.745  -0.513 126.055  0.00  0.00    +0.137 C 
ATOM      6  C   LIG A   1      -5.970  -1.063 127.440  0.00  0.00    +0.180 C 
ATOM      7  O   LIG A   1      -5.094  -1.354 128.218  0.00  0.00    -0.293 OA
ATOM      8  C   LIG A   1      -6.140  -1.552 125.031  0.00  0.00    +0.170 C 
ATOM      9  O   LIG A   1      -5.720  -1.507 123.873  0.00  0.00    -0.292 OA
ATOM     10  C   LIG A   1      -7.141  -2.577 125.458  0.00  0.00    -0.001 C 
ATOM     11  C   LIG A   1      -7.747  -2.391 126.649  0.00  0.00    +0.023 C 
ENDROOT
BRANCH   4  12
ATOM     12  C   LIG A   1      -6.187   2.004 126.416  0.00  0.00    -0.036 A 
ATOM     13  C   LIG A   1      -6.858   2.926 127.224  0.00  0.00    +0.053 A 
ATOM     14  C   LIG A   1      -6.264   4.139 127.627  0.00  0.00    +0.165 A 
ATOM     15  C   LIG A   1      -4.968   4.469 127.185  0.00  0.00    +0.203 A 
ATOM     16  C   LIG A   1      -4.292   3.561 126.350  0.00  0.00    +0.165 A 
ATOM     17  C   LIG A   1      -4.928   2.384 125.943  0.00  0.00    +0.053 A 
BRANCH  14  18
ATOM     18  O   LIG A   1      -7.106   4.847 128.448  0.00  0.00    -0.491 OA
ATOM     19  C   LIG A   1      -8.300   4.246 128.921  0.00  0.00    +0.277 C 
ENDBRANCH  14  18
BRANCH  16  20
ATOM     20  O   LIG A   1      -2.971   3.787 126.036  0.00  0.00    -0.491 OA
ATOM     21  C   LIG A   1      -2.005   3.092 126.823  0.00  0.00    +0.277 C 
ENDBRANCH  16  20
BRANCH  15  22
ATOM     22  O   LIG A   1      -4.414   5.636 127.638  0.00  0.00    -0.488 OA
ATOM     23  C   LIG A   1      -3.793   5.646 128.919  0.00  0.00    +0.277 C 
ENDBRANCH  15  22
ENDBRANCH   4  12
BRANCH   1  24
ATOM     24  O   LIG A   1      -7.877  -1.517 128.896  0.00  0.00    -0.365 OA
ATOM     25  C   LIG A   1      -8.162  -2.879 129.172  0.00  0.00    +0.195 C 
ENDBRANCH   1  24
BRANCH  10  26
ATOM     26  C   LIG A   1      -7.473  -3.711 124.534  0.00  0.00    +0.065 C 
BRANCH  26  27
ATOM     27  C   LIG A   1      -8.866  -3.610 123.972  0.00  0.00    -0.030 C 
ATOM     28  C   LIG A   1      -9.267  -2.594 123.198  0.00  0.00    +0.004 C 
ENDBRANCH  26  27
ENDBRANCH  10  26
TORSDOF 7
ENDMDL
MODEL 5
REMARK VINA RESULT:      -6.7      6.120      8.737
REMARK  Name = NuBBE_2043
REMARK  12 active torsions:
REMARK  status: ('A' for Active; 'I' for Inactive)
REMARK    1  A    between atoms: O_1  and  C_2
REMARK    2  A    between atoms: O_1  and  C_3
REMARK    3  A    between atoms: C_4  and  C_6
REMARK    4  A    between atoms: C_7  and  C_20
REMARK    5  A    between atoms: C_15  and  C_17
REMARK    6  A    between atoms: C_17  and  C_18
REMARK    7  A    between atoms: C_22  and  O_23
REMARK    8  A    between atoms: O_23  and  C_24
REMARK    9  A    between atoms: C_25  and  O_30
REMARK   10  A    between atoms: C_26  and  O_28
REMARK   11  A    between atoms: O_28  and  C_29
REMARK   12  A    between atoms: O_30  and  C_31
REMARK                            x       y       z     vdW  Elec       q    Type
REMARK                         _______ _______ _______ _____ _____    ______ ____
ROOT
ATOM      1  C   LIG A   1      -7.733   0.936 124.728  0.00  0.00    +0.149 C 
ATOM      2  C   LIG A   1      -6.937   1.169 126.045  0.00  0.00    +0.038 C 
ATOM      3  C   LIG A   1      -5.409   1.161 125.896  0.00  0.00    +0.012 C 
ATOM      4  C   LIG A   1      -7.395   0.046 127.060  0.00  0.00    +0.043 C 
ATOM      5  C   LIG A   1      -8.419  -0.800 126.254  0.00  0.00    +0.137 C 
ATOM      6  C   LIG A   1      -8.956   0.243 125.308  0.00  0.00    +0.180 C 
ATOM      7  O   LIG A   1     -10.126   0.411 125.057  0.00  0.00    -0.293 OA
ATOM      8  C   LIG A   1      -7.684  -1.861 125.467  0.00  0.00    +0.170 C 
ATOM      9  O   LIG A   1      -7.479  -2.982 125.935  0.00  0.00    -0.292 OA
ATOM     10  C   LIG A   1      -7.130  -1.457 124.139  0.00  0.00    -0.001 C 
ATOM     11  C   LIG A   1      -7.167  -0.144 123.827  0.00  0.00    +0.023 C 
ENDROOT
BRANCH   4  12
ATOM     12  C   LIG A   1      -7.954   0.604 128.368  0.00  0.00    -0.036 A 
ATOM     13  C   LIG A   1      -7.882  -0.089 129.581  0.00  0.00    +0.053 A 
ATOM     14  C   LIG A   1      -8.333   0.474 130.792  0.00  0.00    +0.165 A 
ATOM     15  C   LIG A   1      -8.909   1.759 130.799  0.00  0.00    +0.203 A 
ATOM     16  C   LIG A   1      -9.010   2.457 129.581  0.00  0.00    +0.165 A 
ATOM     17  C   LIG A   1      -8.584   1.850 128.395  0.00  0.00    +0.053 A 
BRANCH  14  18
ATOM     18  O   LIG A   1      -8.115  -0.385 131.841  0.00  0.00    -0.491 OA
ATOM     19  C   LIG A   1      -6.802  -0.560 132.348  0.00  0.00    +0.277 C 
ENDBRANCH  14  18
BRANCH  16  20
ATOM     20  O   LIG A   1      -9.421   3.770 129.587  0.00  0.00    -0.491 OA
ATOM     21  C   LIG A   1      -8.406   4.753 129.388  0.00  0.00    +0.277 C 
ENDBRANCH  16  20
BRANCH  15  22
ATOM     22  O   LIG A   1      -9.291   2.283 132.004  0.00  0.00    -0.488 OA
ATOM     23  C   LIG A   1      -8.310   2.925 132.812  0.00  0.00    +0.277 C 
ENDBRANCH  15  22
ENDBRANCH   4  12
BRANCH   1  24
ATOM     24  O   LIG A   1      -8.061   2.092 123.989  0.00  0.00    -0.365 OA
ATOM     25  C   LIG A   1      -8.218   3.288 124.735  0.00  0.00    +0.195 C 
ENDBRANCH   1  24
BRANCH  10  26
ATOM     26  C   LIG A   1      -6.508  -2.495 123.253  0.00  0.00    +0.065 C 
BRANCH  26  27
ATOM     27  C   LIG A   1      -5.062  -2.748 123.586  0.00  0.00    -0.030 C 
ATOM     28  C   LIG A   1      -4.521  -3.972 123.600  0.00  0.00    +0.004 C 
ENDBRANCH  26  27
ENDBRANCH  10  26
TORSDOF 7
ENDMDL
MODEL 6
REMARK VINA RESULT:      -6.6      6.540      8.052
REMARK  Name = NuBBE_2043
REMARK  12 active torsions:
REMARK  status: ('A' for Active; 'I' for Inactive)
REMARK    1  A    between atoms: O_1  and  C_2
REMARK    2  A    between atoms: O_1  and  C_3
REMARK    3  A    between atoms: C_4  and  C_6
REMARK    4  A    between atoms: C_7  and  C_20
REMARK    5  A    between atoms: C_15  and  C_17
REMARK    6  A    between atoms: C_17  and  C_18
REMARK    7  A    between atoms: C_22  and  O_23
REMARK    8  A    between atoms: O_23  and  C_24
REMARK    9  A    between atoms: C_25  and  O_30
REMARK   10  A    between atoms: C_26  and  O_28
REMARK   11  A    between atoms: O_28  and  C_29
REMARK   12  A    between atoms: O_30  and  C_31
REMARK                            x       y       z     vdW  Elec       q    Type
REMARK                         _______ _______ _______ _____ _____    ______ ____
ROOT
ATOM      1  C   LIG A   1      -7.438  -1.582 127.676  0.00  0.00    +0.149 C 
ATOM      2  C   LIG A   1      -7.674  -0.105 127.243  0.00  0.00    +0.038 C 
ATOM      3  C   LIG A   1      -8.974   0.149 126.468  0.00  0.00    +0.012 C 
ATOM      4  C   LIG A   1      -6.424   0.320 126.373  0.00  0.00    +0.043 C 
ATOM      5  C   LIG A   1      -5.541  -0.958 126.326  0.00  0.00    +0.137 C 
ATOM      6  C   LIG A   1      -5.918  -1.603 127.635  0.00  0.00    +0.180 C 
ATOM      7  O   LIG A   1      -5.135  -2.075 128.423  0.00  0.00    -0.293 OA
ATOM      8  C   LIG A   1      -5.992  -1.838 125.183  0.00  0.00    +0.170 C 
ATOM      9  O   LIG A   1      -5.497  -1.738 124.059  0.00  0.00    -0.292 OA
ATOM     10  C   LIG A   1      -7.135  -2.764 125.452  0.00  0.00    -0.001 C 
ATOM     11  C   LIG A   1      -7.789  -2.616 126.623  0.00  0.00    +0.023 C 
ENDROOT
BRANCH   4  12
ATOM     12  C   LIG A   1      -5.697   1.549 126.917  0.00  0.00    -0.036 A 
ATOM     13  C   LIG A   1      -4.511   2.037 126.361  0.00  0.00    +0.053 A 
ATOM     14  C   LIG A   1      -3.896   3.217 126.826  0.00  0.00    +0.165 A 
ATOM     15  C   LIG A   1      -4.458   3.923 127.908  0.00  0.00    +0.203 A 
ATOM     16  C   LIG A   1      -5.638   3.428 128.493  0.00  0.00    +0.165 A 
ATOM     17  C   LIG A   1      -6.198   2.234 128.026  0.00  0.00    +0.053 A 
BRANCH  14  18
ATOM     18  O   LIG A   1      -2.773   3.506 126.092  0.00  0.00    -0.491 OA
ATOM     19  C   LIG A   1      -1.509   3.027 126.518  0.00  0.00    +0.277 C 
ENDBRANCH  14  18
BRANCH  16  20
ATOM     20  O   LIG A   1      -6.290   4.182 129.442  0.00  0.00    -0.491 OA
ATOM     21  C   LIG A   1      -7.660   4.484 129.181  0.00  0.00    +0.277 C 
ENDBRANCH  16  20
BRANCH  15  22
ATOM     22  O   LIG A   1      -3.852   5.087 128.297  0.00  0.00    -0.488 OA
ATOM     23  C   LIG A   1      -2.928   5.048 129.379  0.00  0.00    +0.277 C 
ENDBRANCH  15  22
ENDBRANCH   4  12
BRANCH   1  24
ATOM     24  O   LIG A   1      -7.954  -1.949 128.937  0.00  0.00    -0.365 OA
ATOM     25  C   LIG A   1      -8.407  -3.287 129.062  0.00  0.00    +0.195 C 
ENDBRANCH   1  24
BRANCH  10  26
ATOM     26  C   LIG A   1      -7.542  -3.755 124.402  0.00  0.00    +0.065 C 
BRANCH  26  27
ATOM     27  C   LIG A   1      -8.887  -3.441 123.801  0.00  0.00    -0.030 C 
ATOM     28  C   LIG A   1      -9.159  -2.282 123.192  0.00  0.00    +0.004 C 
ENDBRANCH  26  27
ENDBRANCH  10  26
TORSDOF 7
ENDMDL
MODEL 7
REMARK VINA RESULT:      -6.5      5.420      7.762
REMARK  Name = NuBBE_2043
REMARK  12 active torsions:
REMARK  status: ('A' for Active; 'I' for Inactive)
REMARK    1  A    between atoms: O_1  and  C_2
REMARK    2  A    between atoms: O_1  and  C_3
REMARK    3  A    between atoms: C_4  and  C_6
REMARK    4  A    between atoms: C_7  and  C_20
REMARK    5  A    between atoms: C_15  and  C_17
REMARK    6  A    between atoms: C_17  and  C_18
REMARK    7  A    between atoms: C_22  and  O_23
REMARK    8  A    between atoms: O_23  and  C_24
REMARK    9  A    between atoms: C_25  and  O_30
REMARK   10  A    between atoms: C_26  and  O_28
REMARK   11  A    between atoms: O_28  and  C_29
REMARK   12  A    between atoms: O_30  and  C_31
REMARK                            x       y       z     vdW  Elec       q    Type
REMARK                         _______ _______ _______ _____ _____    ______ ____
ROOT
ATOM      1  C   LIG A   1      -6.941   1.917 124.571  0.00  0.00    +0.149 C 
ATOM      2  C   LIG A   1      -6.408   1.659 126.010  0.00  0.00    +0.038 C 
ATOM      3  C   LIG A   1      -5.337   0.565 126.125  0.00  0.00    +0.012 C 
ATOM      4  C   LIG A   1      -7.662   1.295 126.902  0.00  0.00    +0.043 C 
ATOM      5  C   LIG A   1      -8.858   1.334 125.911  0.00  0.00    +0.137 C 
ATOM      6  C   LIG A   1      -8.358   2.348 124.914  0.00  0.00    +0.180 C 
ATOM      7  O   LIG A   1      -9.013   3.261 124.471  0.00  0.00    -0.293 OA
ATOM      8  C   LIG A   1      -8.994  -0.011 125.235  0.00  0.00    +0.170 C 
ATOM      9  O   LIG A   1      -9.712  -0.896 125.703  0.00  0.00    -0.292 OA
ATOM     10  C   LIG A   1      -8.140  -0.253 124.033  0.00  0.00    -0.001 C 
ATOM     11  C   LIG A   1      -7.191   0.664 123.752  0.00  0.00    +0.023 C 
ENDROOT
BRANCH   4  12
ATOM     12  C   LIG A   1      -7.834   2.217 128.109  0.00  0.00    -0.036 A 
ATOM     13  C   LIG A   1      -8.682   1.915 129.179  0.00  0.00    +0.053 A 
ATOM     14  C   LIG A   1      -8.769   2.739 130.320  0.00  0.00    +0.165 A 
ATOM     15  C   LIG A   1      -8.013   3.925 130.390  0.00  0.00    +0.203 A 
ATOM     16  C   LIG A   1      -7.175   4.253 129.308  0.00  0.00    +0.165 A 
ATOM     17  C   LIG A   1      -7.143   3.428 128.179  0.00  0.00    +0.053 A 
BRANCH  14  18
ATOM     18  O   LIG A   1      -9.635   2.206 131.242  0.00  0.00    -0.491 OA
ATOM     19  C   LIG A   1      -9.351   0.948 131.832  0.00  0.00    +0.277 C 
ENDBRANCH  14  18
BRANCH  16  20
ATOM     20  O   LIG A   1      -6.312   5.319 129.422  0.00  0.00    -0.491 OA
ATOM     21  C   LIG A   1      -4.927   5.002 129.551  0.00  0.00    +0.277 C 
ENDBRANCH  16  20
BRANCH  15  22
ATOM     22  O   LIG A   1      -8.096   4.670 131.535  0.00  0.00    -0.488 OA
ATOM     23  C   LIG A   1      -9.058   5.718 131.601  0.00  0.00    +0.277 C 
ENDBRANCH  15  22
ENDBRANCH   4  12
BRANCH   1  24
ATOM     24  O   LIG A   1      -6.245   2.885 123.815  0.00  0.00    -0.365 OA
ATOM     25  C   LIG A   1      -5.563   3.884 124.555  0.00  0.00    +0.195 C 
ENDBRANCH   1  24
BRANCH  10  26
ATOM     26  C   LIG A   1      -8.324  -1.514 123.241  0.00  0.00    +0.065 C 
BRANCH  26  27
ATOM     27  C   LIG A   1      -7.405  -2.619 123.691  0.00  0.00    -0.030 C 
ATOM     28  C   LIG A   1      -7.816  -3.645 124.445  0.00  0.00    +0.004 C 
ENDBRANCH  26  27
ENDBRANCH  10  26
TORSDOF 7
ENDMDL
MODEL 8
REMARK VINA RESULT:      -6.4      7.177     10.720
REMARK  Name = NuBBE_2043
REMARK  12 active torsions:
REMARK  status: ('A' for Active; 'I' for Inactive)
REMARK    1  A    between atoms: O_1  and  C_2
REMARK    2  A    between atoms: O_1  and  C_3
REMARK    3  A    between atoms: C_4  and  C_6
REMARK    4  A    between atoms: C_7  and  C_20
REMARK    5  A    between atoms: C_15  and  C_17
REMARK    6  A    between atoms: C_17  and  C_18
REMARK    7  A    between atoms: C_22  and  O_23
REMARK    8  A    between atoms: O_23  and  C_24
REMARK    9  A    between atoms: C_25  and  O_30
REMARK   10  A    between atoms: C_26  and  O_28
REMARK   11  A    between atoms: O_28  and  C_29
REMARK   12  A    between atoms: O_30  and  C_31
REMARK                            x       y       z     vdW  Elec       q    Type
REMARK                         _______ _______ _______ _____ _____    ______ ____
ROOT
ATOM      1  C   LIG A   1      -7.370  -1.726 130.063  0.00  0.00    +0.149 C 
ATOM      2  C   LIG A   1      -7.971  -2.298 128.747  0.00  0.00    +0.038 C 
ATOM      3  C   LIG A   1      -8.583  -3.701 128.863  0.00  0.00    +0.012 C 
ATOM      4  C   LIG A   1      -6.809  -2.294 127.675  0.00  0.00    +0.043 C 
ATOM      5  C   LIG A   1      -5.580  -1.741 128.450  0.00  0.00    +0.137 C 
ATOM      6  C   LIG A   1      -6.265  -0.867 129.468  0.00  0.00    +0.180 C 
ATOM      7  O   LIG A   1      -5.927   0.256 129.753  0.00  0.00    -0.293 OA
ATOM      8  C   LIG A   1      -4.877  -2.879 129.154  0.00  0.00    +0.170 C 
ATOM      9  O   LIG A   1      -3.962  -3.503 128.614  0.00  0.00    -0.292 OA
ATOM     10  C   LIG A   1      -5.410  -3.278 130.493  0.00  0.00    -0.001 C 
ATOM     11  C   LIG A   1      -6.576  -2.723 130.885  0.00  0.00    +0.023 C 
ENDROOT
BRANCH   4  12
ATOM     12  C   LIG A   1      -7.149  -1.499 126.416  0.00  0.00    -0.036 A 
ATOM     13  C   LIG A   1      -8.133  -1.901 125.507  0.00  0.00    +0.053 A 
ATOM     14  C   LIG A   1      -8.488  -1.115 124.392  0.00  0.00    +0.165 A 
ATOM     15  C   LIG A   1      -7.819   0.100 124.146  0.00  0.00    +0.203 A 
ATOM     16  C   LIG A   1      -6.809   0.503 125.039  0.00  0.00    +0.165 A 
ATOM     17  C   LIG A   1      -6.461  -0.322 126.114  0.00  0.00    +0.053 A 
BRANCH  14  18
ATOM     18  O   LIG A   1      -9.505  -1.705 123.682  0.00  0.00    -0.491 OA
ATOM     19  C   LIG A   1      -9.457  -3.094 123.404  0.00  0.00    +0.277 C 
ENDBRANCH  14  18
BRANCH  16  20
ATOM     20  O   LIG A   1      -6.254   1.755 124.909  0.00  0.00    -0.491 OA
ATOM     21  C   LIG A   1      -5.386   2.176 125.961  0.00  0.00    +0.277 C 
ENDBRANCH  16  20
BRANCH  15  22
ATOM     22  O   LIG A   1      -8.228   0.851 123.077  0.00  0.00    -0.488 OA
ATOM     23  C   LIG A   1      -9.331   1.735 123.245  0.00  0.00    +0.277 C 
ENDBRANCH  15  22
ENDBRANCH   4  12
BRANCH   1  24
ATOM     24  O   LIG A   1      -8.254  -0.987 130.879  0.00  0.00    -0.365 OA
ATOM     25  C   LIG A   1      -7.995  -1.021 132.273  0.00  0.00    +0.195 C 
ENDBRANCH   1  24
BRANCH  10  26
ATOM     26  C   LIG A   1      -4.677  -4.308 131.300  0.00  0.00    +0.065 C 
BRANCH  26  27
ATOM     27  C   LIG A   1      -5.522  -4.886 132.404  0.00  0.00    -0.030 C 
ATOM     28  C   LIG A   1      -5.003  -5.425 133.512  0.00  0.00    +0.004 C 
ENDBRANCH  26  27
ENDBRANCH  10  26
TORSDOF 7
ENDMDL
MODEL 9
REMARK VINA RESULT:      -6.3      5.448      7.473
REMARK  Name = NuBBE_2043
REMARK  12 active torsions:
REMARK  status: ('A' for Active; 'I' for Inactive)
REMARK    1  A    between atoms: O_1  and  C_2
REMARK    2  A    between atoms: O_1  and  C_3
REMARK    3  A    between atoms: C_4  and  C_6
REMARK    4  A    between atoms: C_7  and  C_20
REMARK    5  A    between atoms: C_15  and  C_17
REMARK    6  A    between atoms: C_17  and  C_18
REMARK    7  A    between atoms: C_22  and  O_23
REMARK    8  A    between atoms: O_23  and  C_24
REMARK    9  A    between atoms: C_25  and  O_30
REMARK   10  A    between atoms: C_26  and  O_28
REMARK   11  A    between atoms: O_28  and  C_29
REMARK   12  A    between atoms: O_30  and  C_31
REMARK                            x       y       z     vdW  Elec       q    Type
REMARK                         _______ _______ _______ _____ _____    ______ ____
ROOT
ATOM      1  C   LIG A   1      -6.857   2.184 124.562  0.00  0.00    +0.149 C 
ATOM      2  C   LIG A   1      -6.267   1.912 125.977  0.00  0.00    +0.038 C 
ATOM      3  C   LIG A   1      -5.187   0.823 126.036  0.00  0.00    +0.012 C 
ATOM      4  C   LIG A   1      -7.483   1.532 126.913  0.00  0.00    +0.043 C 
ATOM      5  C   LIG A   1      -8.717   1.576 125.969  0.00  0.00    +0.137 C 
ATOM      6  C   LIG A   1      -8.262   2.604 124.966  0.00  0.00    +0.180 C 
ATOM      7  O   LIG A   1      -8.937   3.518 124.559  0.00  0.00    -0.293 OA
ATOM      8  C   LIG A   1      -8.873   0.238 125.284  0.00  0.00    +0.170 C 
ATOM      9  O   LIG A   1      -9.567  -0.657 125.768  0.00  0.00    -0.292 OA
ATOM     10  C   LIG A   1      -8.065   0.014 124.046  0.00  0.00    -0.001 C 
ATOM     11  C   LIG A   1      -7.133   0.940 123.739  0.00  0.00    +0.023 C 
ENDROOT
BRANCH   4  12
ATOM     12  C   LIG A   1      -7.612   2.438 128.136  0.00  0.00    -0.036 A 
ATOM     13  C   LIG A   1      -6.735   3.496 128.392  0.00  0.00    +0.053 A 
ATOM     14  C   LIG A   1      -6.915   4.370 129.484  0.00  0.00    +0.165 A 
ATOM     15  C   LIG A   1      -7.986   4.169 130.377  0.00  0.00    +0.203 A 
ATOM     16  C   LIG A   1      -8.861   3.091 130.144  0.00  0.00    +0.165 A 
ATOM     17  C   LIG A   1      -8.628   2.225 129.071  0.00  0.00    +0.053 A 
BRANCH  14  18
ATOM     18  O   LIG A   1      -5.951   5.347 129.493  0.00  0.00    -0.491 OA
ATOM     19  C   LIG A   1      -4.677   5.075 130.052  0.00  0.00    +0.277 C 
ENDBRANCH  14  18
BRANCH  16  20
ATOM     20  O   LIG A   1     -10.000   2.969 130.907  0.00  0.00    -0.491 OA
ATOM     21  C   LIG A   1     -11.169   3.618 130.409  0.00  0.00    +0.277 C 
ENDBRANCH  16  20
BRANCH  15  22
ATOM     22  O   LIG A   1      -8.148   5.068 131.396  0.00  0.00    -0.488 OA
ATOM     23  C   LIG A   1      -8.756   6.323 131.109  0.00  0.00    +0.277 C 
ENDBRANCH  15  22
ENDBRANCH   4  12
BRANCH   1  24
ATOM     24  O   LIG A   1      -6.196   3.165 123.792  0.00  0.00    -0.365 OA
ATOM     25  C   LIG A   1      -6.350   3.064 122.385  0.00  0.00    +0.195 C 
ENDBRANCH   1  24
BRANCH  10  26
ATOM     26  C   LIG A   1      -8.274  -1.238 123.247  0.00  0.00    +0.065 C 
BRANCH  26  27
ATOM     27  C   LIG A   1      -7.323  -2.338 123.637  0.00  0.00    -0.030 C 
ATOM     28  C   LIG A   1      -6.042  -2.365 123.249  0.00  0.00    +0.004 C 
ENDBRANCH  26  27
ENDBRANCH  10  26
TORSDOF 7
ENDMDL
