MODEL 1
REMARK VINA RESULT:      -7.8      0.000      0.000
REMARK  Name = NuBBE_2231
REMARK  4 active torsions:
REMARK  status: ('A' for Active; 'I' for Inactive)
REMARK    1  A    between atoms: C_1  and  C_2
REMARK    2  A    between atoms: C_8  and  O_9
REMARK    3  A    between atoms: C_18  and  C_19
REMARK    4  A    between atoms: C_18  and  C_20
REMARK                            x       y       z     vdW  Elec       q    Type
REMARK                         _______ _______ _______ _____ _____    ______ ____
ROOT
ATOM      1  C   LIG A   1      -7.201  -1.992 123.133  0.00  0.00    +0.014 C 
ATOM      2  C   LIG A   1      -7.863  -1.630 124.504  0.00  0.00    +0.001 C 
ATOM      3  C   LIG A   1      -6.736  -1.812 125.653  0.00  0.00    +0.003 C 
ATOM      4  C   LIG A   1      -5.644  -0.737 125.536  0.00  0.00    +0.005 C 
ATOM      5  C   LIG A   1      -6.145   0.694 125.473  0.00  0.00    +0.010 C 
ATOM      6  C   LIG A   1      -7.288   0.945 124.474  0.00  0.00    +0.004 C 
ATOM      7  C   LIG A   1      -6.710   1.160 123.037  0.00  0.00    +0.040 C 
ATOM      8  C   LIG A   1      -8.441  -0.132 124.450  0.00  0.00    +0.078 C 
ATOM      9  C   LIG A   1      -9.440   0.234 123.303  0.00  0.00    +0.036 C 
ATOM     10  C   LIG A   1      -9.763   1.759 123.293  0.00  0.00    +0.010 C 
ATOM     11  C   LIG A   1      -8.554   2.708 123.483  0.00  0.00    +0.015 C 
ATOM     12  C   LIG A   1      -7.908   2.344 124.810  0.00  0.00    +0.017 C 
ATOM     13  C   LIG A   1      -7.281   2.502 122.674  0.00  0.00    -0.073 C 
ATOM     14  C   LIG A   1      -6.547   3.463 122.151  0.00  0.00    +0.008 C 
ATOM     15  C   LIG A   1      -7.281  -2.076 127.122  0.00  0.00    -0.032 C 
ATOM     16  C   LIG A   1      -6.257  -2.537 128.201  0.00  0.00    +0.011 C 
ATOM     17  C   LIG A   1      -7.888  -0.830 127.802  0.00  0.00    +0.011 C 
ATOM     18  C   LIG A   1      -8.206  -3.310 126.975  0.00  0.00    +0.007 C 
ATOM     19  C   LIG A   1      -9.396  -3.117 126.066  0.00  0.00    +0.001 C 
ATOM     20  C   LIG A   1      -8.988  -2.709 124.657  0.00  0.00    +0.010 C 
ENDROOT
BRANCH   8  21
ATOM     21  O   LIG A   1      -9.288   0.078 125.589  0.00  0.00    -0.388 OA
ATOM     22  H   LIG A   1      -8.864  -0.282 126.380  0.00  0.00    +0.210 HD
ENDBRANCH   8  21
TORSDOF 1
ENDMDL
MODEL 2
REMARK VINA RESULT:      -7.4      2.194      4.340
REMARK  Name = NuBBE_2231
REMARK  4 active torsions:
REMARK  status: ('A' for Active; 'I' for Inactive)
REMARK    1  A    between atoms: C_1  and  C_2
REMARK    2  A    between atoms: C_8  and  O_9
REMARK    3  A    between atoms: C_18  and  C_19
REMARK    4  A    between atoms: C_18  and  C_20
REMARK                            x       y       z     vdW  Elec       q    Type
REMARK                         _______ _______ _______ _____ _____    ______ ____
ROOT
ATOM      1  C   LIG A   1      -9.208  -2.624 125.560  0.00  0.00    +0.014 C 
ATOM      2  C   LIG A   1      -8.401  -1.286 125.624  0.00  0.00    +0.001 C 
ATOM      3  C   LIG A   1      -7.945  -1.062 127.161  0.00  0.00    +0.003 C 
ATOM      4  C   LIG A   1      -6.883  -2.091 127.582  0.00  0.00    +0.005 C 
ATOM      5  C   LIG A   1      -5.684  -2.201 126.659  0.00  0.00    +0.010 C 
ATOM      6  C   LIG A   1      -6.018  -2.320 125.161  0.00  0.00    +0.004 C 
ATOM      7  C   LIG A   1      -6.343  -3.806 124.798  0.00  0.00    +0.040 C 
ATOM      8  C   LIG A   1      -7.147  -1.359 124.621  0.00  0.00    +0.078 C 
ATOM      9  C   LIG A   1      -7.419  -1.706 123.121  0.00  0.00    +0.036 C 
ATOM     10  C   LIG A   1      -6.090  -1.909 122.332  0.00  0.00    +0.010 C 
ATOM     11  C   LIG A   1      -5.000  -2.746 123.046  0.00  0.00    +0.015 C 
ATOM     12  C   LIG A   1      -4.698  -2.050 124.363  0.00  0.00    +0.017 C 
ATOM     13  C   LIG A   1      -5.357  -4.075 123.696  0.00  0.00    -0.073 C 
ATOM     14  C   LIG A   1      -4.613  -5.162 123.667  0.00  0.00    +0.008 C 
ATOM     15  C   LIG A   1      -7.646   0.440 127.585  0.00  0.00    -0.032 C 
ATOM     16  C   LIG A   1      -7.485   0.746 129.103  0.00  0.00    +0.011 C 
ATOM     17  C   LIG A   1      -6.320   1.000 127.027  0.00  0.00    +0.011 C 
ATOM     18  C   LIG A   1      -8.939   1.210 127.214  0.00  0.00    +0.007 C 
ATOM     19  C   LIG A   1      -9.294   1.202 125.746  0.00  0.00    +0.001 C 
ATOM     20  C   LIG A   1      -9.456  -0.209 125.197  0.00  0.00    +0.010 C 
ENDROOT
BRANCH   8  21
ATOM     21  O   LIG A   1      -6.596  -0.043 124.473  0.00  0.00    -0.388 OA
ATOM     22  H   LIG A   1      -6.260   0.267 125.325  0.00  0.00    +0.210 HD
ENDBRANCH   8  21
TORSDOF 1
ENDMDL
MODEL 3
REMARK VINA RESULT:      -7.1      1.319      2.486
REMARK  Name = NuBBE_2231
REMARK  4 active torsions:
REMARK  status: ('A' for Active; 'I' for Inactive)
REMARK    1  A    between atoms: C_1  and  C_2
REMARK    2  A    between atoms: C_8  and  O_9
REMARK    3  A    between atoms: C_18  and  C_19
REMARK    4  A    between atoms: C_18  and  C_20
REMARK                            x       y       z     vdW  Elec       q    Type
REMARK                         _______ _______ _______ _____ _____    ______ ____
ROOT
ATOM      1  C   LIG A   1      -5.281  -0.314 125.654  0.00  0.00    +0.014 C 
ATOM      2  C   LIG A   1      -6.625  -0.957 125.180  0.00  0.00    +0.001 C 
ATOM      3  C   LIG A   1      -7.329  -1.629 126.475  0.00  0.00    +0.003 C 
ATOM      4  C   LIG A   1      -7.822  -0.556 127.459  0.00  0.00    +0.005 C 
ATOM      5  C   LIG A   1      -8.695   0.528 126.855  0.00  0.00    +0.010 C 
ATOM      6  C   LIG A   1      -8.152   1.161 125.561  0.00  0.00    +0.004 C 
ATOM      7  C   LIG A   1      -7.119   2.283 125.902  0.00  0.00    +0.040 C 
ATOM      8  C   LIG A   1      -7.552   0.163 124.496  0.00  0.00    +0.078 C 
ATOM      9  C   LIG A   1      -6.956   0.997 123.315  0.00  0.00    +0.036 C 
ATOM     10  C   LIG A   1      -7.915   2.148 122.887  0.00  0.00    +0.010 C 
ATOM     11  C   LIG A   1      -8.562   2.954 124.041  0.00  0.00    +0.015 C 
ATOM     12  C   LIG A   1      -9.326   1.961 124.901  0.00  0.00    +0.017 C 
ATOM     13  C   LIG A   1      -7.707   3.469 125.190  0.00  0.00    -0.073 C 
ATOM     14  C   LIG A   1      -7.838   4.645 125.769  0.00  0.00    +0.008 C 
ATOM     15  C   LIG A   1      -8.355  -2.804 126.175  0.00  0.00    -0.032 C 
ATOM     16  C   LIG A   1      -8.838  -3.668 127.377  0.00  0.00    +0.011 C 
ATOM     17  C   LIG A   1      -9.702  -2.330 125.590  0.00  0.00    +0.011 C 
ATOM     18  C   LIG A   1      -7.545  -3.817 125.327  0.00  0.00    +0.007 C 
ATOM     19  C   LIG A   1      -7.040  -3.291 124.004  0.00  0.00    +0.001 C 
ATOM     20  C   LIG A   1      -6.160  -2.060 124.169  0.00  0.00    +0.010 C 
ENDROOT
BRANCH   8  21
ATOM     21  O   LIG A   1      -8.636  -0.486 123.815  0.00  0.00    -0.388 OA
ATOM     22  H   LIG A   1      -8.286  -1.073 123.131  0.00  0.00    +0.210 HD
ENDBRANCH   8  21
TORSDOF 1
ENDMDL
MODEL 4
REMARK VINA RESULT:      -7.1      6.593      8.657
REMARK  Name = NuBBE_2231
REMARK  4 active torsions:
REMARK  status: ('A' for Active; 'I' for Inactive)
REMARK    1  A    between atoms: C_1  and  C_2
REMARK    2  A    between atoms: C_8  and  O_9
REMARK    3  A    between atoms: C_18  and  C_19
REMARK    4  A    between atoms: C_18  and  C_20
REMARK                            x       y       z     vdW  Elec       q    Type
REMARK                         _______ _______ _______ _____ _____    ______ ____
ROOT
ATOM      1  C   LIG A   1      -9.363   3.896 134.163  0.00  0.00    +0.014 C 
ATOM      2  C   LIG A   1      -8.340   3.337 133.119  0.00  0.00    +0.001 C 
ATOM      3  C   LIG A   1      -8.941   1.950 132.539  0.00  0.00    +0.003 C 
ATOM      4  C   LIG A   1     -10.179   2.202 131.664  0.00  0.00    +0.005 C 
ATOM      5  C   LIG A   1      -9.997   3.230 130.562  0.00  0.00    +0.010 C 
ATOM      6  C   LIG A   1      -9.341   4.551 131.000  0.00  0.00    +0.004 C 
ATOM      7  C   LIG A   1     -10.414   5.507 131.616  0.00  0.00    +0.040 C 
ATOM      8  C   LIG A   1      -8.096   4.425 131.962  0.00  0.00    +0.078 C 
ATOM      9  C   LIG A   1      -7.645   5.863 132.381  0.00  0.00    +0.036 C 
ATOM     10  C   LIG A   1      -7.625   6.834 131.162  0.00  0.00    +0.010 C 
ATOM     11  C   LIG A   1      -8.840   6.744 130.206  0.00  0.00    +0.015 C 
ATOM     12  C   LIG A   1      -8.904   5.311 129.702  0.00  0.00    +0.017 C 
ATOM     13  C   LIG A   1     -10.256   6.735 130.764  0.00  0.00    -0.073 C 
ATOM     14  C   LIG A   1     -11.286   7.364 130.237  0.00  0.00    +0.008 C 
ATOM     15  C   LIG A   1      -7.879   0.930 131.943  0.00  0.00    -0.032 C 
ATOM     16  C   LIG A   1      -8.359  -0.520 131.638  0.00  0.00    +0.011 C 
ATOM     17  C   LIG A   1      -7.306   1.347 130.571  0.00  0.00    +0.011 C 
ATOM     18  C   LIG A   1      -6.858   0.720 133.090  0.00  0.00    +0.007 C 
ATOM     19  C   LIG A   1      -6.117   1.962 133.526  0.00  0.00    +0.001 C 
ATOM     20  C   LIG A   1      -7.059   3.069 133.979  0.00  0.00    +0.010 C 
ENDROOT
BRANCH   8  21
ATOM     21  O   LIG A   1      -6.956   4.027 131.186  0.00  0.00    -0.388 OA
ATOM     22  H   LIG A   1      -6.732   3.108 131.386  0.00  0.00    +0.210 HD
ENDBRANCH   8  21
TORSDOF 1
ENDMDL
MODEL 5
REMARK VINA RESULT:      -7.1      1.860      3.890
REMARK  Name = NuBBE_2231
REMARK  4 active torsions:
REMARK  status: ('A' for Active; 'I' for Inactive)
REMARK    1  A    between atoms: C_1  and  C_2
REMARK    2  A    between atoms: C_8  and  O_9
REMARK    3  A    between atoms: C_18  and  C_19
REMARK    4  A    between atoms: C_18  and  C_20
REMARK                            x       y       z     vdW  Elec       q    Type
REMARK                         _______ _______ _______ _____ _____    ______ ____
ROOT
ATOM      1  C   LIG A   1      -6.804  -1.605 127.685  0.00  0.00    +0.014 C 
ATOM      2  C   LIG A   1      -6.793  -1.490 126.125  0.00  0.00    +0.001 C 
ATOM      3  C   LIG A   1      -8.224  -2.022 125.585  0.00  0.00    +0.003 C 
ATOM      4  C   LIG A   1      -9.356  -1.054 125.965  0.00  0.00    +0.005 C 
ATOM      5  C   LIG A   1      -9.126   0.397 125.585  0.00  0.00    +0.010 C 
ATOM      6  C   LIG A   1      -7.749   0.965 125.973  0.00  0.00    +0.004 C 
ATOM      7  C   LIG A   1      -7.759   1.432 127.464  0.00  0.00    +0.040 C 
ATOM      8  C   LIG A   1      -6.507   0.031 125.694  0.00  0.00    +0.078 C 
ATOM      9  C   LIG A   1      -5.225   0.730 126.255  0.00  0.00    +0.036 C 
ATOM     10  C   LIG A   1      -5.192   2.244 125.885  0.00  0.00    +0.010 C 
ATOM     11  C   LIG A   1      -6.526   3.011 126.057  0.00  0.00    +0.015 C 
ATOM     12  C   LIG A   1      -7.558   2.308 125.191  0.00  0.00    +0.017 C 
ATOM     13  C   LIG A   1      -7.334   2.868 127.339  0.00  0.00    -0.073 C 
ATOM     14  C   LIG A   1      -7.966   3.846 127.955  0.00  0.00    +0.008 C 
ATOM     15  C   LIG A   1      -8.248  -2.547 124.086  0.00  0.00    -0.032 C 
ATOM     16  C   LIG A   1      -9.510  -3.326 123.611  0.00  0.00    +0.011 C 
ATOM     17  C   LIG A   1      -8.174  -1.428 123.025  0.00  0.00    +0.011 C 
ATOM     18  C   LIG A   1      -7.138  -3.627 124.037  0.00  0.00    +0.007 C 
ATOM     19  C   LIG A   1      -5.743  -3.131 124.334  0.00  0.00    +0.001 C 
ATOM     20  C   LIG A   1      -5.644  -2.467 125.700  0.00  0.00    +0.010 C 
ENDROOT
BRANCH   8  21
ATOM     21  O   LIG A   1      -6.212   0.067 124.291  0.00  0.00    -0.388 OA
ATOM     22  H   LIG A   1      -5.631   0.816 124.099  0.00  0.00    +0.210 HD
ENDBRANCH   8  21
TORSDOF 1
ENDMDL
MODEL 6
REMARK VINA RESULT:      -7.0      1.961      4.739
REMARK  Name = NuBBE_2231
REMARK  4 active torsions:
REMARK  status: ('A' for Active; 'I' for Inactive)
REMARK    1  A    between atoms: C_1  and  C_2
REMARK    2  A    between atoms: C_8  and  O_9
REMARK    3  A    between atoms: C_18  and  C_19
REMARK    4  A    between atoms: C_18  and  C_20
REMARK                            x       y       z     vdW  Elec       q    Type
REMARK                         _______ _______ _______ _____ _____    ______ ____
ROOT
ATOM      1  C   LIG A   1      -6.914   1.358 124.083  0.00  0.00    +0.014 C 
ATOM      2  C   LIG A   1      -6.691   0.857 125.549  0.00  0.00    +0.001 C 
ATOM      3  C   LIG A   1      -7.799   1.576 126.485  0.00  0.00    +0.003 C 
ATOM      4  C   LIG A   1      -9.211   1.049 126.183  0.00  0.00    +0.005 C 
ATOM      5  C   LIG A   1      -9.359  -0.461 126.210  0.00  0.00    +0.010 C 
ATOM      6  C   LIG A   1      -8.289  -1.239 125.424  0.00  0.00    +0.004 C 
ATOM      7  C   LIG A   1      -8.671  -1.301 123.909  0.00  0.00    +0.040 C 
ATOM      8  C   LIG A   1      -6.799  -0.745 125.598  0.00  0.00    +0.078 C 
ATOM      9  C   LIG A   1      -5.884  -1.579 124.642  0.00  0.00    +0.036 C 
ATOM     10  C   LIG A   1      -6.240  -3.095 124.691  0.00  0.00    +0.010 C 
ATOM     11  C   LIG A   1      -7.750  -3.438 124.671  0.00  0.00    +0.015 C 
ATOM     12  C   LIG A   1      -8.379  -2.739 125.865  0.00  0.00    +0.017 C 
ATOM     13  C   LIG A   1      -8.672  -2.782 123.653  0.00  0.00    -0.073 C 
ATOM     14  C   LIG A   1      -9.652  -3.386 123.013  0.00  0.00    +0.008 C 
ATOM     15  C   LIG A   1      -7.430   1.699 128.026  0.00  0.00    -0.032 C 
ATOM     16  C   LIG A   1      -8.317   2.624 128.911  0.00  0.00    +0.011 C 
ATOM     17  C   LIG A   1      -7.521   0.368 128.803  0.00  0.00    +0.011 C 
ATOM     18  C   LIG A   1      -6.059   2.421 128.039  0.00  0.00    +0.007 C 
ATOM     19  C   LIG A   1      -4.936   1.683 127.349  0.00  0.00    +0.001 C 
ATOM     20  C   LIG A   1      -5.254   1.378 125.892  0.00  0.00    +0.010 C 
ENDROOT
BRANCH   8  21
ATOM     21  O   LIG A   1      -6.311  -1.203 126.867  0.00  0.00    -0.388 OA
ATOM     22  H   LIG A   1      -5.434  -0.830 127.031  0.00  0.00    +0.210 HD
ENDBRANCH   8  21
TORSDOF 1
ENDMDL
MODEL 7
REMARK VINA RESULT:      -7.0      2.544      5.224
REMARK  Name = NuBBE_2231
REMARK  4 active torsions:
REMARK  status: ('A' for Active; 'I' for Inactive)
REMARK    1  A    between atoms: C_1  and  C_2
REMARK    2  A    between atoms: C_8  and  O_9
REMARK    3  A    between atoms: C_18  and  C_19
REMARK    4  A    between atoms: C_18  and  C_20
REMARK                            x       y       z     vdW  Elec       q    Type
REMARK                         _______ _______ _______ _____ _____    ______ ____
ROOT
ATOM      1  C   LIG A   1      -8.864  -0.141 126.565  0.00  0.00    +0.014 C 
ATOM      2  C   LIG A   1      -8.258  -1.464 125.991  0.00  0.00    +0.001 C 
ATOM      3  C   LIG A   1      -7.285  -1.063 124.760  0.00  0.00    +0.003 C 
ATOM      4  C   LIG A   1      -6.029  -0.331 125.259  0.00  0.00    +0.005 C 
ATOM      5  C   LIG A   1      -5.263  -1.035 126.363  0.00  0.00    +0.010 C 
ATOM      6  C   LIG A   1      -6.120  -1.540 127.537  0.00  0.00    +0.004 C 
ATOM      7  C   LIG A   1      -6.380  -0.382 128.554  0.00  0.00    +0.040 C 
ATOM      8  C   LIG A   1      -7.476  -2.253 127.153  0.00  0.00    +0.078 C 
ATOM      9  C   LIG A   1      -8.250  -2.589 128.469  0.00  0.00    +0.036 C 
ATOM     10  C   LIG A   1      -7.303  -3.192 129.551  0.00  0.00    +0.010 C 
ATOM     11  C   LIG A   1      -5.933  -2.489 129.718  0.00  0.00    +0.015 C 
ATOM     12  C   LIG A   1      -5.241  -2.538 128.366  0.00  0.00    +0.017 C 
ATOM     13  C   LIG A   1      -5.857  -0.973 129.833  0.00  0.00    -0.073 C 
ATOM     14  C   LIG A   1      -5.056  -0.310 130.641  0.00  0.00    +0.008 C 
ATOM     15  C   LIG A   1      -7.029  -2.200 123.679  0.00  0.00    -0.032 C 
ATOM     16  C   LIG A   1      -6.345  -1.788 122.343  0.00  0.00    +0.011 C 
ATOM     17  C   LIG A   1      -6.089  -3.325 124.160  0.00  0.00    +0.011 C 
ATOM     18  C   LIG A   1      -8.448  -2.624 123.223  0.00  0.00    +0.007 C 
ATOM     19  C   LIG A   1      -9.327  -3.202 124.306  0.00  0.00    +0.001 C 
ATOM     20  C   LIG A   1      -9.515  -2.241 125.472  0.00  0.00    +0.010 C 
ENDROOT
BRANCH   8  21
ATOM     21  O   LIG A   1      -7.182  -3.580 126.694  0.00  0.00    -0.388 OA
ATOM     22  H   LIG A   1      -7.351  -4.214 127.405  0.00  0.00    +0.210 HD
ENDBRANCH   8  21
TORSDOF 1
ENDMDL
MODEL 8
REMARK VINA RESULT:      -7.0      2.332      4.582
REMARK  Name = NuBBE_2231
REMARK  4 active torsions:
REMARK  status: ('A' for Active; 'I' for Inactive)
REMARK    1  A    between atoms: C_1  and  C_2
REMARK    2  A    between atoms: C_8  and  O_9
REMARK    3  A    between atoms: C_18  and  C_19
REMARK    4  A    between atoms: C_18  and  C_20
REMARK                            x       y       z     vdW  Elec       q    Type
REMARK                         _______ _______ _______ _____ _____    ______ ____
ROOT
ATOM      1  C   LIG A   1      -8.550   0.583 127.101  0.00  0.00    +0.014 C 
ATOM      2  C   LIG A   1      -7.127  -0.042 127.282  0.00  0.00    +0.001 C 
ATOM      3  C   LIG A   1      -7.158  -0.948 128.623  0.00  0.00    +0.003 C 
ATOM      4  C   LIG A   1      -8.029  -2.200 128.430  0.00  0.00    +0.005 C 
ATOM      5  C   LIG A   1      -7.704  -3.034 127.204  0.00  0.00    +0.010 C 
ATOM      6  C   LIG A   1      -7.558  -2.243 125.892  0.00  0.00    +0.004 C 
ATOM      7  C   LIG A   1      -8.964  -1.989 125.257  0.00  0.00    +0.040 C 
ATOM      8  C   LIG A   1      -6.739  -0.896 125.978  0.00  0.00    +0.078 C 
ATOM      9  C   LIG A   1      -6.799  -0.189 124.584  0.00  0.00    +0.036 C 
ATOM     10  C   LIG A   1      -6.566  -1.200 123.421  0.00  0.00    +0.010 C 
ATOM     11  C   LIG A   1      -7.312  -2.552 123.540  0.00  0.00    +0.015 C 
ATOM     12  C   LIG A   1      -6.872  -3.188 124.848  0.00  0.00    +0.017 C 
ATOM     13  C   LIG A   1      -8.794  -2.583 123.887  0.00  0.00    -0.073 C 
ATOM     14  C   LIG A   1      -9.684  -3.396 123.356  0.00  0.00    +0.008 C 
ATOM     15  C   LIG A   1      -5.754  -1.195 129.326  0.00  0.00    -0.032 C 
ATOM     16  C   LIG A   1      -5.759  -1.810 130.757  0.00  0.00    +0.011 C 
ATOM     17  C   LIG A   1      -4.842  -2.191 128.578  0.00  0.00    +0.011 C 
ATOM     18  C   LIG A   1      -5.186   0.227 129.564  0.00  0.00    +0.007 C 
ATOM     19  C   LIG A   1      -4.944   1.041 128.315  0.00  0.00    +0.001 C 
ATOM     20  C   LIG A   1      -6.207   1.211 127.482  0.00  0.00    +0.010 C 
ENDROOT
BRANCH   8  21
ATOM     21  O   LIG A   1      -5.341  -1.214 126.032  0.00  0.00    -0.388 OA
ATOM     22  H   LIG A   1      -4.828  -0.405 126.163  0.00  0.00    +0.210 HD
ENDBRANCH   8  21
TORSDOF 1
ENDMDL
MODEL 9
REMARK VINA RESULT:      -6.9      1.605      5.154
REMARK  Name = NuBBE_2231
REMARK  4 active torsions:
REMARK  status: ('A' for Active; 'I' for Inactive)
REMARK    1  A    between atoms: C_1  and  C_2
REMARK    2  A    between atoms: C_8  and  O_9
REMARK    3  A    between atoms: C_18  and  C_19
REMARK    4  A    between atoms: C_18  and  C_20
REMARK                            x       y       z     vdW  Elec       q    Type
REMARK                         _______ _______ _______ _____ _____    ______ ____
ROOT
ATOM      1  C   LIG A   1      -9.985   1.167 124.554  0.00  0.00    +0.014 C 
ATOM      2  C   LIG A   1      -8.437   1.379 124.481  0.00  0.00    +0.001 C 
ATOM      3  C   LIG A   1      -8.018   2.349 125.708  0.00  0.00    +0.003 C 
ATOM      4  C   LIG A   1      -8.176   1.636 127.061  0.00  0.00    +0.005 C 
ATOM      5  C   LIG A   1      -7.494   0.285 127.166  0.00  0.00    +0.010 C 
ATOM      6  C   LIG A   1      -7.755  -0.675 125.992  0.00  0.00    +0.004 C 
ATOM      7  C   LIG A   1      -9.112  -1.424 126.200  0.00  0.00    +0.040 C 
ATOM      8  C   LIG A   1      -7.690  -0.042 124.547  0.00  0.00    +0.078 C 
ATOM      9  C   LIG A   1      -8.092  -1.138 123.506  0.00  0.00    +0.036 C 
ATOM     10  C   LIG A   1      -7.405  -2.502 123.819  0.00  0.00    +0.010 C 
ATOM     11  C   LIG A   1      -7.403  -2.933 125.307  0.00  0.00    +0.015 C 
ATOM     12  C   LIG A   1      -6.703  -1.831 126.086  0.00  0.00    +0.017 C 
ATOM     13  C   LIG A   1      -8.682  -2.863 126.128  0.00  0.00    -0.073 C 
ATOM     14  C   LIG A   1      -9.070  -3.759 127.012  0.00  0.00    +0.008 C 
ATOM     15  C   LIG A   1      -6.667   3.163 125.519  0.00  0.00    -0.032 C 
ATOM     16  C   LIG A   1      -6.366   4.312 126.526  0.00  0.00    +0.011 C 
ATOM     17  C   LIG A   1      -5.391   2.306 125.657  0.00  0.00    +0.011 C 
ATOM     18  C   LIG A   1      -6.857   3.920 124.180  0.00  0.00    +0.007 C 
ATOM     19  C   LIG A   1      -7.045   3.043 122.965  0.00  0.00    +0.001 C 
ATOM     20  C   LIG A   1      -8.237   2.106 123.108  0.00  0.00    +0.010 C 
ENDROOT
BRANCH   8  21
ATOM     21  O   LIG A   1      -6.313   0.142 124.190  0.00  0.00    -0.388 OA
ATOM     22  H   LIG A   1      -5.999  -0.627 123.696  0.00  0.00    +0.210 HD
ENDBRANCH   8  21
TORSDOF 1
ENDMDL
