MODEL 1
REMARK VINA RESULT:      -7.1      0.000      0.000
REMARK  Name = NuBBE_2278
REMARK  6 active torsions:
REMARK  status: ('A' for Active; 'I' for Inactive)
REMARK    1  A    between atoms: C_2  and  C_3
REMARK    2  A    between atoms: C_2  and  O_11
REMARK    3  A    between atoms: C_4  and  O_5
REMARK    4  A    between atoms: C_9  and  O_10
REMARK    5  A    between atoms: O_11  and  C_12
REMARK    6  A    between atoms: C_12  and  C_13
REMARK                            x       y       z     vdW  Elec       q    Type
REMARK                         _______ _______ _______ _____ _____    ______ ____
ROOT
ATOM      1  O   LIG A   1      -9.103   6.564 129.917  0.00  0.00    -0.245 OA
ATOM      2  C   LIG A   1      -9.726   6.320 130.949  0.00  0.00    +0.347 C 
ENDROOT
BRANCH   2   3
ATOM      3  C   LIG A   1      -9.549   5.028 131.639  0.00  0.00    +0.141 A 
ATOM      4  C   LIG A   1      -9.264   5.041 133.017  0.00  0.00    +0.134 A 
ATOM      5  C   LIG A   1      -9.137   3.851 133.730  0.00  0.00    +0.046 A 
ATOM      6  C   LIG A   1      -9.302   2.631 133.080  0.00  0.00    +0.007 A 
ATOM      7  C   LIG A   1      -9.589   2.599 131.715  0.00  0.00    +0.046 A 
ATOM      8  C   LIG A   1      -9.713   3.792 130.997  0.00  0.00    +0.134 A 
BRANCH   4   9
ATOM      9  O   LIG A   1      -9.096   6.190 133.749  0.00  0.00    -0.506 OA
ATOM     10  H   LIG A   1      -9.374   6.016 134.674  0.00  0.00    +0.292 HD
ENDBRANCH   4   9
BRANCH   8  11
ATOM     11  O   LIG A   1     -10.035   3.721 129.670  0.00  0.00    -0.506 OA
ATOM     12  H   LIG A   1      -9.671   2.908 129.286  0.00  0.00    +0.292 HD
ENDBRANCH   8  11
ENDBRANCH   2   3
BRANCH   2  13
ATOM     13  O   LIG A   1     -10.661   7.105 131.523  0.00  0.00    -0.456 OA
BRANCH  13  14
ATOM     14  C   LIG A   1     -12.017   6.678 131.361  0.00  0.00    +0.268 C 
BRANCH  14  15
ATOM     15  C   LIG A   1     -12.608   7.296 130.120  0.00  0.00    -0.010 A 
ATOM     16  C   LIG A   1     -13.032   6.501 129.048  0.00  0.00    +0.007 A 
ATOM     17  C   LIG A   1     -13.533   7.097 127.887  0.00  0.00    +0.000 A 
ATOM     18  C   LIG A   1     -13.595   8.487 127.782  0.00  0.00    +0.000 A 
ATOM     19  C   LIG A   1     -13.164   9.284 128.839  0.00  0.00    +0.000 A 
ATOM     20  C   LIG A   1     -12.683   8.691 130.003  0.00  0.00    +0.007 A 
ENDBRANCH  14  15
ENDBRANCH  13  14
ENDBRANCH   2  13
TORSDOF 6
ENDMDL
MODEL 2
REMARK VINA RESULT:      -7.0      0.134      1.984
REMARK  Name = NuBBE_2278
REMARK  6 active torsions:
REMARK  status: ('A' for Active; 'I' for Inactive)
REMARK    1  A    between atoms: C_2  and  C_3
REMARK    2  A    between atoms: C_2  and  O_11
REMARK    3  A    between atoms: C_4  and  O_5
REMARK    4  A    between atoms: C_9  and  O_10
REMARK    5  A    between atoms: O_11  and  C_12
REMARK    6  A    between atoms: C_12  and  C_13
REMARK                            x       y       z     vdW  Elec       q    Type
REMARK                         _______ _______ _______ _____ _____    ______ ____
ROOT
ATOM      1  O   LIG A   1      -9.242   6.291 129.731  0.00  0.00    -0.245 OA
ATOM      2  C   LIG A   1      -9.795   6.204 130.826  0.00  0.00    +0.347 C 
ENDROOT
BRANCH   2   3
ATOM      3  C   LIG A   1      -9.652   4.981 131.639  0.00  0.00    +0.141 A 
ATOM      4  C   LIG A   1      -9.800   3.736 131.002  0.00  0.00    +0.134 A 
ATOM      5  C   LIG A   1      -9.626   2.548 131.709  0.00  0.00    +0.046 A 
ATOM      6  C   LIG A   1      -9.291   2.587 133.060  0.00  0.00    +0.007 A 
ATOM      7  C   LIG A   1      -9.136   3.813 133.707  0.00  0.00    +0.046 A 
ATOM      8  C   LIG A   1      -9.314   5.005 133.000  0.00  0.00    +0.134 A 
BRANCH   4   9
ATOM      9  O   LIG A   1     -10.116   3.592 129.674  0.00  0.00    -0.506 OA
ATOM     10  H   LIG A   1     -10.460   2.685 129.529  0.00  0.00    +0.292 HD
ENDBRANCH   4   9
BRANCH   8  11
ATOM     11  O   LIG A   1      -9.113   6.188 133.658  0.00  0.00    -0.506 OA
ATOM     12  H   LIG A   1      -9.468   6.127 134.559  0.00  0.00    +0.292 HD
ENDBRANCH   8  11
ENDBRANCH   2   3
BRANCH   2  13
ATOM     13  O   LIG A   1     -10.625   7.114 131.378  0.00  0.00    -0.456 OA
BRANCH  13  14
ATOM     14  C   LIG A   1     -12.019   6.795 131.329  0.00  0.00    +0.268 C 
BRANCH  14  15
ATOM     15  C   LIG A   1     -12.636   7.367 130.079  0.00  0.00    -0.010 A 
ATOM     16  C   LIG A   1     -13.084   6.534 129.047  0.00  0.00    +0.007 A 
ATOM     17  C   LIG A   1     -13.609   7.087 127.876  0.00  0.00    +0.000 A 
ATOM     18  C   LIG A   1     -13.672   8.472 127.720  0.00  0.00    +0.000 A 
ATOM     19  C   LIG A   1     -13.218   9.308 128.736  0.00  0.00    +0.000 A 
ATOM     20  C   LIG A   1     -12.712   8.758 129.912  0.00  0.00    +0.007 A 
ENDBRANCH  14  15
ENDBRANCH  13  14
ENDBRANCH   2  13
TORSDOF 6
ENDMDL
MODEL 3
REMARK VINA RESULT:      -6.7      2.448      6.218
REMARK  Name = NuBBE_2278
REMARK  6 active torsions:
REMARK  status: ('A' for Active; 'I' for Inactive)
REMARK    1  A    between atoms: C_2  and  C_3
REMARK    2  A    between atoms: C_2  and  O_11
REMARK    3  A    between atoms: C_4  and  O_5
REMARK    4  A    between atoms: C_9  and  O_10
REMARK    5  A    between atoms: O_11  and  C_12
REMARK    6  A    between atoms: C_12  and  C_13
REMARK                            x       y       z     vdW  Elec       q    Type
REMARK                         _______ _______ _______ _____ _____    ______ ____
ROOT
ATOM      1  O   LIG A   1     -11.396   4.253 130.189  0.00  0.00    -0.245 OA
ATOM      2  C   LIG A   1     -10.683   5.255 130.217  0.00  0.00    +0.347 C 
ENDROOT
BRANCH   2   3
ATOM      3  C   LIG A   1     -11.204   6.555 129.749  0.00  0.00    +0.141 A 
ATOM      4  C   LIG A   1     -10.713   7.072 128.536  0.00  0.00    +0.134 A 
ATOM      5  C   LIG A   1     -11.204   8.269 128.020  0.00  0.00    +0.046 A 
ATOM      6  C   LIG A   1     -12.201   8.962 128.703  0.00  0.00    +0.007 A 
ATOM      7  C   LIG A   1     -12.703   8.461 129.905  0.00  0.00    +0.046 A 
ATOM      8  C   LIG A   1     -12.207   7.262 130.425  0.00  0.00    +0.134 A 
BRANCH   4   9
ATOM      9  O   LIG A   1      -9.742   6.458 127.784  0.00  0.00    -0.506 OA
ATOM     10  H   LIG A   1     -10.174   5.979 127.044  0.00  0.00    +0.292 HD
ENDBRANCH   4   9
BRANCH   8  11
ATOM     11  O   LIG A   1     -12.753   6.782 131.584  0.00  0.00    -0.506 OA
ATOM     12  H   LIG A   1     -12.448   7.315 132.336  0.00  0.00    +0.292 HD
ENDBRANCH   8  11
ENDBRANCH   2   3
BRANCH   2  13
ATOM     13  O   LIG A   1      -9.384   5.302 130.576  0.00  0.00    -0.456 OA
BRANCH  13  14
ATOM     14  C   LIG A   1      -9.099   6.003 131.790  0.00  0.00    +0.268 C 
BRANCH  14  15
ATOM     15  C   LIG A   1      -7.612   6.207 131.934  0.00  0.00    -0.010 A 
ATOM     16  C   LIG A   1      -6.876   6.878 130.950  0.00  0.00    +0.007 A 
ATOM     17  C   LIG A   1      -5.492   7.013 131.079  0.00  0.00    +0.000 A 
ATOM     18  C   LIG A   1      -4.832   6.464 132.179  0.00  0.00    +0.000 A 
ATOM     19  C   LIG A   1      -5.555   5.784 133.155  0.00  0.00    +0.000 A 
ATOM     20  C   LIG A   1      -6.937   5.665 133.037  0.00  0.00    +0.007 A 
ENDBRANCH  14  15
ENDBRANCH  13  14
ENDBRANCH   2  13
TORSDOF 6
ENDMDL
MODEL 4
REMARK VINA RESULT:      -6.6      8.844     10.086
REMARK  Name = NuBBE_2278
REMARK  6 active torsions:
REMARK  status: ('A' for Active; 'I' for Inactive)
REMARK    1  A    between atoms: C_2  and  C_3
REMARK    2  A    between atoms: C_2  and  O_11
REMARK    3  A    between atoms: C_4  and  O_5
REMARK    4  A    between atoms: C_9  and  O_10
REMARK    5  A    between atoms: O_11  and  C_12
REMARK    6  A    between atoms: C_12  and  C_13
REMARK                            x       y       z     vdW  Elec       q    Type
REMARK                         _______ _______ _______ _____ _____    ______ ____
ROOT
ATOM      1  O   LIG A   1      -9.098   2.369 125.435  0.00  0.00    -0.245 OA
ATOM      2  C   LIG A   1      -8.919   2.081 124.253  0.00  0.00    +0.347 C 
ENDROOT
BRANCH   2   3
ATOM      3  C   LIG A   1      -8.666   0.682 123.855  0.00  0.00    +0.141 A 
ATOM      4  C   LIG A   1      -7.542   0.029 124.393  0.00  0.00    +0.134 A 
ATOM      5  C   LIG A   1      -7.282  -1.307 124.093  0.00  0.00    +0.046 A 
ATOM      6  C   LIG A   1      -8.147  -2.011 123.259  0.00  0.00    +0.007 A 
ATOM      7  C   LIG A   1      -9.268  -1.380 122.720  0.00  0.00    +0.046 A 
ATOM      8  C   LIG A   1      -9.528  -0.040 123.018  0.00  0.00    +0.134 A 
BRANCH   4   9
ATOM      9  O   LIG A   1      -6.640   0.632 125.233  0.00  0.00    -0.506 OA
ATOM     10  H   LIG A   1      -5.922  -0.007 125.434  0.00  0.00    +0.292 HD
ENDBRANCH   4   9
BRANCH   8  11
ATOM     11  O   LIG A   1     -10.659   0.533 122.504  0.00  0.00    -0.506 OA
ATOM     12  H   LIG A   1     -11.427  -0.028 122.696  0.00  0.00    +0.292 HD
ENDBRANCH   8  11
ENDBRANCH   2   3
BRANCH   2  13
ATOM     13  O   LIG A   1      -8.849   2.947 123.221  0.00  0.00    -0.456 OA
BRANCH  13  14
ATOM     14  C   LIG A   1      -7.542   3.164 122.679  0.00  0.00    +0.268 C 
BRANCH  14  15
ATOM     15  C   LIG A   1      -7.646   3.612 121.244  0.00  0.00    -0.010 A 
ATOM     16  C   LIG A   1      -6.511   4.010 120.526  0.00  0.00    +0.007 A 
ATOM     17  C   LIG A   1      -6.635   4.468 119.212  0.00  0.00    +0.000 A 
ATOM     18  C   LIG A   1      -7.893   4.551 118.614  0.00  0.00    +0.000 A 
ATOM     19  C   LIG A   1      -9.028   4.170 119.324  0.00  0.00    +0.000 A 
ATOM     20  C   LIG A   1      -8.903   3.695 120.627  0.00  0.00    +0.007 A 
ENDBRANCH  14  15
ENDBRANCH  13  14
ENDBRANCH   2  13
TORSDOF 6
ENDMDL
MODEL 5
REMARK VINA RESULT:      -6.6      2.439      6.091
REMARK  Name = NuBBE_2278
REMARK  6 active torsions:
REMARK  status: ('A' for Active; 'I' for Inactive)
REMARK    1  A    between atoms: C_2  and  C_3
REMARK    2  A    between atoms: C_2  and  O_11
REMARK    3  A    between atoms: C_4  and  O_5
REMARK    4  A    between atoms: C_9  and  O_10
REMARK    5  A    between atoms: O_11  and  C_12
REMARK    6  A    between atoms: C_12  and  C_13
REMARK                            x       y       z     vdW  Elec       q    Type
REMARK                         _______ _______ _______ _____ _____    ______ ____
ROOT
ATOM      1  O   LIG A   1     -11.282   4.300 130.195  0.00  0.00    -0.245 OA
ATOM      2  C   LIG A   1     -10.626   5.338 130.133  0.00  0.00    +0.347 C 
ENDROOT
BRANCH   2   3
ATOM      3  C   LIG A   1     -11.233   6.573 129.597  0.00  0.00    +0.141 A 
ATOM      4  C   LIG A   1     -12.204   7.230 130.374  0.00  0.00    +0.134 A 
ATOM      5  C   LIG A   1     -12.774   8.426 129.942  0.00  0.00    +0.046 A 
ATOM      6  C   LIG A   1     -12.374   8.988 128.733  0.00  0.00    +0.007 A 
ATOM      7  C   LIG A   1     -11.408   8.353 127.952  0.00  0.00    +0.046 A 
ATOM      8  C   LIG A   1     -10.839   7.151 128.382  0.00  0.00    +0.134 A 
BRANCH   4   9
ATOM      9  O   LIG A   1     -12.656   6.763 131.584  0.00  0.00    -0.506 OA
ATOM     10  H   LIG A   1     -12.029   6.082 131.911  0.00  0.00    +0.292 HD
ENDBRANCH   4   9
BRANCH   8  11
ATOM     11  O   LIG A   1      -9.866   6.579 127.609  0.00  0.00    -0.506 OA
ATOM     12  H   LIG A   1     -10.120   5.672 127.378  0.00  0.00    +0.292 HD
ENDBRANCH   8  11
ENDBRANCH   2   3
BRANCH   2  13
ATOM     13  O   LIG A   1      -9.321   5.480 130.444  0.00  0.00    -0.456 OA
BRANCH  13  14
ATOM     14  C   LIG A   1      -9.034   6.351 131.542  0.00  0.00    +0.268 C 
BRANCH  14  15
ATOM     15  C   LIG A   1      -7.553   6.361 131.822  0.00  0.00    -0.010 A 
ATOM     16  C   LIG A   1      -6.659   7.008 130.962  0.00  0.00    +0.007 A 
ATOM     17  C   LIG A   1      -5.286   6.963 131.214  0.00  0.00    +0.000 A 
ATOM     18  C   LIG A   1      -4.796   6.257 132.313  0.00  0.00    +0.000 A 
ATOM     19  C   LIG A   1      -5.677   5.600 133.166  0.00  0.00    +0.000 A 
ATOM     20  C   LIG A   1      -7.048   5.660 132.927  0.00  0.00    +0.007 A 
ENDBRANCH  14  15
ENDBRANCH  13  14
ENDBRANCH   2  13
TORSDOF 6
ENDMDL
MODEL 6
REMARK VINA RESULT:      -6.6      1.828      6.012
REMARK  Name = NuBBE_2278
REMARK  6 active torsions:
REMARK  status: ('A' for Active; 'I' for Inactive)
REMARK    1  A    between atoms: C_2  and  C_3
REMARK    2  A    between atoms: C_2  and  O_11
REMARK    3  A    between atoms: C_4  and  O_5
REMARK    4  A    between atoms: C_9  and  O_10
REMARK    5  A    between atoms: O_11  and  C_12
REMARK    6  A    between atoms: C_12  and  C_13
REMARK                            x       y       z     vdW  Elec       q    Type
REMARK                         _______ _______ _______ _____ _____    ______ ____
ROOT
ATOM      1  O   LIG A   1     -10.315   4.506 129.792  0.00  0.00    -0.245 OA
ATOM      2  C   LIG A   1      -9.948   5.674 129.907  0.00  0.00    +0.347 C 
ENDROOT
BRANCH   2   3
ATOM      3  C   LIG A   1     -10.940   6.764 129.983  0.00  0.00    +0.141 A 
ATOM      4  C   LIG A   1     -10.976   7.707 128.940  0.00  0.00    +0.134 A 
ATOM      5  C   LIG A   1     -11.924   8.728 128.934  0.00  0.00    +0.046 A 
ATOM      6  C   LIG A   1     -12.857   8.815 129.964  0.00  0.00    +0.007 A 
ATOM      7  C   LIG A   1     -12.839   7.886 131.004  0.00  0.00    +0.046 A 
ATOM      8  C   LIG A   1     -11.885   6.864 131.014  0.00  0.00    +0.134 A 
BRANCH   4   9
ATOM      9  O   LIG A   1     -10.110   7.698 127.875  0.00  0.00    -0.506 OA
ATOM     10  H   LIG A   1      -9.699   8.586 127.797  0.00  0.00    +0.292 HD
ENDBRANCH   4   9
BRANCH   8  11
ATOM     11  O   LIG A   1     -11.925   5.947 132.029  0.00  0.00    -0.506 OA
ATOM     12  H   LIG A   1     -12.820   5.582 132.107  0.00  0.00    +0.292 HD
ENDBRANCH   8  11
ENDBRANCH   2   3
BRANCH   2  13
ATOM     13  O   LIG A   1      -8.673   6.116 129.899  0.00  0.00    -0.456 OA
BRANCH  13  14
ATOM     14  C   LIG A   1      -8.211   6.704 131.118  0.00  0.00    +0.268 C 
BRANCH  14  15
ATOM     15  C   LIG A   1      -7.951   5.631 132.144  0.00  0.00    -0.010 A 
ATOM     16  C   LIG A   1      -7.060   4.583 131.884  0.00  0.00    +0.007 A 
ATOM     17  C   LIG A   1      -6.870   3.572 132.830  0.00  0.00    +0.000 A 
ATOM     18  C   LIG A   1      -7.581   3.591 134.030  0.00  0.00    +0.000 A 
ATOM     19  C   LIG A   1      -8.478   4.622 134.291  0.00  0.00    +0.000 A 
ATOM     20  C   LIG A   1      -8.654   5.640 133.357  0.00  0.00    +0.007 A 
ENDBRANCH  14  15
ENDBRANCH  13  14
ENDBRANCH   2  13
TORSDOF 6
ENDMDL
MODEL 7
REMARK VINA RESULT:      -6.6      1.853      5.849
REMARK  Name = NuBBE_2278
REMARK  6 active torsions:
REMARK  status: ('A' for Active; 'I' for Inactive)
REMARK    1  A    between atoms: C_2  and  C_3
REMARK    2  A    between atoms: C_2  and  O_11
REMARK    3  A    between atoms: C_4  and  O_5
REMARK    4  A    between atoms: C_9  and  O_10
REMARK    5  A    between atoms: O_11  and  C_12
REMARK    6  A    between atoms: C_12  and  C_13
REMARK                            x       y       z     vdW  Elec       q    Type
REMARK                         _______ _______ _______ _____ _____    ______ ____
ROOT
ATOM      1  O   LIG A   1     -10.308   4.488 129.865  0.00  0.00    -0.245 OA
ATOM      2  C   LIG A   1      -9.962   5.667 129.898  0.00  0.00    +0.347 C 
ENDROOT
BRANCH   2   3
ATOM      3  C   LIG A   1     -10.972   6.743 129.884  0.00  0.00    +0.141 A 
ATOM      4  C   LIG A   1     -11.886   6.813 130.951  0.00  0.00    +0.134 A 
ATOM      5  C   LIG A   1     -12.829   7.837 131.015  0.00  0.00    +0.046 A 
ATOM      6  C   LIG A   1     -12.866   8.810 130.021  0.00  0.00    +0.007 A 
ATOM      7  C   LIG A   1     -11.964   8.759 128.958  0.00  0.00    +0.046 A 
ATOM      8  C   LIG A   1     -11.021   7.730 128.889  0.00  0.00    +0.134 A 
BRANCH   4   9
ATOM      9  O   LIG A   1     -11.922   5.910 131.984  0.00  0.00    -0.506 OA
ATOM     10  H   LIG A   1     -12.652   5.275 131.821  0.00  0.00    +0.292 HD
ENDBRANCH   4   9
BRANCH   8  11
ATOM     11  O   LIG A   1     -10.127   7.736 127.854  0.00  0.00    -0.506 OA
ATOM     12  H   LIG A   1      -9.929   8.650 127.596  0.00  0.00    +0.292 HD
ENDBRANCH   8  11
ENDBRANCH   2   3
BRANCH   2  13
ATOM     13  O   LIG A   1      -8.694   6.130 129.871  0.00  0.00    -0.456 OA
BRANCH  13  14
ATOM     14  C   LIG A   1      -8.237   6.762 131.070  0.00  0.00    +0.268 C 
BRANCH  14  15
ATOM     15  C   LIG A   1      -7.952   5.725 132.126  0.00  0.00    -0.010 A 
ATOM     16  C   LIG A   1      -7.071   4.665 131.879  0.00  0.00    +0.007 A 
ATOM     17  C   LIG A   1      -6.858   3.688 132.854  0.00  0.00    +0.000 A 
ATOM     18  C   LIG A   1      -7.537   3.752 134.072  0.00  0.00    +0.000 A 
ATOM     19  C   LIG A   1      -8.424   4.795 134.320  0.00  0.00    +0.000 A 
ATOM     20  C   LIG A   1      -8.622   5.780 133.356  0.00  0.00    +0.007 A 
ENDBRANCH  14  15
ENDBRANCH  13  14
ENDBRANCH   2  13
TORSDOF 6
ENDMDL
MODEL 8
REMARK VINA RESULT:      -6.5      1.822      6.143
REMARK  Name = NuBBE_2278
REMARK  6 active torsions:
REMARK  status: ('A' for Active; 'I' for Inactive)
REMARK    1  A    between atoms: C_2  and  C_3
REMARK    2  A    between atoms: C_2  and  O_11
REMARK    3  A    between atoms: C_4  and  O_5
REMARK    4  A    between atoms: C_9  and  O_10
REMARK    5  A    between atoms: O_11  and  C_12
REMARK    6  A    between atoms: C_12  and  C_13
REMARK                            x       y       z     vdW  Elec       q    Type
REMARK                         _______ _______ _______ _____ _____    ______ ____
ROOT
ATOM      1  O   LIG A   1      -8.398   6.629 129.982  0.00  0.00    -0.245 OA
ATOM      2  C   LIG A   1      -9.518   6.142 129.839  0.00  0.00    +0.347 C 
ENDROOT
BRANCH   2   3
ATOM      3  C   LIG A   1     -10.723   6.968 130.049  0.00  0.00    +0.141 A 
ATOM      4  C   LIG A   1     -10.985   8.009 129.139  0.00  0.00    +0.134 A 
ATOM      5  C   LIG A   1     -12.134   8.788 129.258  0.00  0.00    +0.046 A 
ATOM      6  C   LIG A   1     -13.043   8.533 130.281  0.00  0.00    +0.007 A 
ATOM      7  C   LIG A   1     -12.801   7.502 131.190  0.00  0.00    +0.046 A 
ATOM      8  C   LIG A   1     -11.647   6.722 131.074  0.00  0.00    +0.134 A 
BRANCH   4   9
ATOM      9  O   LIG A   1     -10.158   8.330 128.091  0.00  0.00    -0.506 OA
ATOM     10  H   LIG A   1     -10.016   9.302 128.090  0.00  0.00    +0.292 HD
ENDBRANCH   4   9
BRANCH   8  11
ATOM     11  O   LIG A   1     -11.466   5.695 131.959  0.00  0.00    -0.506 OA
ATOM     12  H   LIG A   1     -11.133   4.913 131.490  0.00  0.00    +0.292 HD
ENDBRANCH   8  11
ENDBRANCH   2   3
BRANCH   2  13
ATOM     13  O   LIG A   1      -9.800   4.851 129.570  0.00  0.00    -0.456 OA
BRANCH  13  14
ATOM     14  C   LIG A   1      -8.671   3.985 129.423  0.00  0.00    +0.268 C 
BRANCH  14  15
ATOM     15  C   LIG A   1      -8.888   2.714 130.204  0.00  0.00    -0.010 A 
ATOM     16  C   LIG A   1      -9.734   2.686 131.320  0.00  0.00    +0.007 A 
ATOM     17  C   LIG A   1      -9.884   1.510 132.058  0.00  0.00    +0.000 A 
ATOM     18  C   LIG A   1      -9.177   0.362 131.701  0.00  0.00    +0.000 A 
ATOM     19  C   LIG A   1      -8.324   0.384 130.602  0.00  0.00    +0.000 A 
ATOM     20  C   LIG A   1      -8.189   1.551 129.853  0.00  0.00    +0.007 A 
ENDBRANCH  14  15
ENDBRANCH  13  14
ENDBRANCH   2  13
TORSDOF 6
ENDMDL
MODEL 9
REMARK VINA RESULT:      -6.5      9.646     11.920
REMARK  Name = NuBBE_2278
REMARK  6 active torsions:
REMARK  status: ('A' for Active; 'I' for Inactive)
REMARK    1  A    between atoms: C_2  and  C_3
REMARK    2  A    between atoms: C_2  and  O_11
REMARK    3  A    between atoms: C_4  and  O_5
REMARK    4  A    between atoms: C_9  and  O_10
REMARK    5  A    between atoms: O_11  and  C_12
REMARK    6  A    between atoms: C_12  and  C_13
REMARK                            x       y       z     vdW  Elec       q    Type
REMARK                         _______ _______ _______ _____ _____    ______ ____
ROOT
ATOM      1  O   LIG A   1      -8.547   3.422 122.895  0.00  0.00    -0.245 OA
ATOM      2  C   LIG A   1      -7.524   3.066 122.311  0.00  0.00    +0.347 C 
ENDROOT
BRANCH   2   3
ATOM      3  C   LIG A   1      -7.084   3.761 121.086  0.00  0.00    +0.141 A 
ATOM      4  C   LIG A   1      -8.023   3.963 120.059  0.00  0.00    +0.134 A 
ATOM      5  C   LIG A   1      -7.677   4.658 118.902  0.00  0.00    +0.046 A 
ATOM      6  C   LIG A   1      -6.390   5.170 118.759  0.00  0.00    +0.007 A 
ATOM      7  C   LIG A   1      -5.447   4.983 119.769  0.00  0.00    +0.046 A 
ATOM      8  C   LIG A   1      -5.792   4.283 120.928  0.00  0.00    +0.134 A 
BRANCH   4   9
ATOM      9  O   LIG A   1      -9.318   3.509 120.111  0.00  0.00    -0.506 OA
ATOM     10  H   LIG A   1      -9.392   2.708 119.548  0.00  0.00    +0.292 HD
ENDBRANCH   4   9
BRANCH   8  11
ATOM     11  O   LIG A   1      -4.852   4.156 121.915  0.00  0.00    -0.506 OA
ATOM     12  H   LIG A   1      -4.024   4.576 121.635  0.00  0.00    +0.292 HD
ENDBRANCH   8  11
ENDBRANCH   2   3
BRANCH   2  13
ATOM     13  O   LIG A   1      -6.748   2.009 122.629  0.00  0.00    -0.456 OA
BRANCH  13  14
ATOM     14  C   LIG A   1      -7.022   1.393 123.891  0.00  0.00    +0.268 C 
BRANCH  14  15
ATOM     15  C   LIG A   1      -7.461  -0.034 123.687  0.00  0.00    -0.010 A 
ATOM     16  C   LIG A   1      -6.560  -1.096 123.829  0.00  0.00    +0.007 A 
ATOM     17  C   LIG A   1      -6.976  -2.407 123.588  0.00  0.00    +0.000 A 
ATOM     18  C   LIG A   1      -8.286  -2.665 123.184  0.00  0.00    +0.000 A 
ATOM     19  C   LIG A   1      -9.185  -1.614 123.027  0.00  0.00    +0.000 A 
ATOM     20  C   LIG A   1      -8.777  -0.308 123.286  0.00  0.00    +0.007 A 
ENDBRANCH  14  15
ENDBRANCH  13  14
ENDBRANCH   2  13
TORSDOF 6
ENDMDL
