MODEL 1
REMARK VINA RESULT:      -7.4      0.000      0.000
REMARK  Name = NuBBE_648
REMARK  2 active torsions:
REMARK  status: ('A' for Active; 'I' for Inactive)
REMARK    1  A    between atoms: C_1  and  C_2
REMARK    2  A    between atoms: C_2  and  C_3
REMARK                            x       y       z     vdW  Elec       q    Type
REMARK                         _______ _______ _______ _____ _____    ______ ____
ROOT
ATOM      1  C   LIG A   1     -12.723   6.819 129.663  0.00  0.00    +0.203 C 
ATOM      2  C   LIG A   1     -11.881   7.460 130.785  0.00  0.00    +0.087 C 
ATOM      3  C   LIG A   1     -11.148   6.260 131.253  0.00  0.00    -0.001 A 
ATOM      4  C   LIG A   1     -11.297   5.239 130.324  0.00  0.00    +0.128 A 
ATOM      5  O   LIG A   1     -12.092   5.572 129.261  0.00  0.00    -0.484 OA
ATOM      6  C   LIG A   1     -10.674   4.019 130.473  0.00  0.00    +0.092 A 
ATOM      7  C   LIG A   1      -9.891   3.846 131.613  0.00  0.00    +0.142 A 
ATOM      8  O   LIG A   1      -9.259   2.595 131.774  0.00  0.00    -0.422 OA
ATOM      9  C   LIG A   1      -8.460   2.327 132.877  0.00  0.00    +0.337 A 
ATOM     10  C   LIG A   1      -8.301   3.409 133.865  0.00  0.00    +0.092 A 
ATOM     11  C   LIG A   1      -8.889   4.601 133.730  0.00  0.00    +0.018 A 
ATOM     12  C   LIG A   1      -9.726   4.861 132.570  0.00  0.00    +0.018 A 
ATOM     13  C   LIG A   1     -10.360   6.095 132.383  0.00  0.00    +0.018 A 
ATOM     14  O   LIG A   1      -7.905   1.247 133.039  0.00  0.00    -0.245 OA
ENDROOT
BRANCH   1  16
ATOM     15  C   LIG A   1     -12.846   7.049 127.096  0.00  0.00    +0.042 C 
ATOM     16  C   LIG A   1     -12.908   7.707 128.448  0.00  0.00    -0.040 C 
ATOM     17  C   LIG A   1     -13.140   9.025 128.568  0.00  0.00    +0.011 C 
ENDBRANCH   1  16
TORSDOF 1
ENDMDL
MODEL 2
REMARK VINA RESULT:      -7.1      2.441      2.706
REMARK  Name = NuBBE_648
REMARK  2 active torsions:
REMARK  status: ('A' for Active; 'I' for Inactive)
REMARK    1  A    between atoms: C_1  and  C_2
REMARK    2  A    between atoms: C_2  and  C_3
REMARK                            x       y       z     vdW  Elec       q    Type
REMARK                         _______ _______ _______ _____ _____    ______ ____
ROOT
ATOM      1  C   LIG A   1     -11.807   6.965 129.540  0.00  0.00    +0.203 C 
ATOM      2  C   LIG A   1     -12.041   6.613 131.024  0.00  0.00    +0.087 C 
ATOM      3  C   LIG A   1     -10.634   6.432 131.453  0.00  0.00    -0.001 A 
ATOM      4  C   LIG A   1      -9.787   6.942 130.480  0.00  0.00    +0.128 A 
ATOM      5  O   LIG A   1     -10.440   7.433 129.381  0.00  0.00    -0.484 OA
ATOM      6  C   LIG A   1      -8.418   6.960 130.638  0.00  0.00    +0.092 A 
ATOM      7  C   LIG A   1      -7.914   6.426 131.822  0.00  0.00    +0.142 A 
ATOM      8  O   LIG A   1      -6.512   6.433 131.984  0.00  0.00    -0.422 OA
ATOM      9  C   LIG A   1      -5.916   5.922 133.128  0.00  0.00    +0.337 A 
ATOM     10  C   LIG A   1      -6.813   5.379 134.164  0.00  0.00    +0.092 A 
ATOM     11  C   LIG A   1      -8.142   5.364 134.030  0.00  0.00    +0.018 A 
ATOM     12  C   LIG A   1      -8.749   5.900 132.822  0.00  0.00    +0.018 A 
ATOM     13  C   LIG A   1     -10.136   5.910 132.638  0.00  0.00    +0.018 A 
ATOM     14  O   LIG A   1      -4.701   5.914 133.289  0.00  0.00    -0.245 OA
ENDROOT
BRANCH   1  16
ATOM     15  C   LIG A   1     -13.721   7.568 127.918  0.00  0.00    +0.042 C 
ATOM     16  C   LIG A   1     -12.766   8.006 128.996  0.00  0.00    -0.040 C 
ATOM     17  C   LIG A   1     -12.781   9.264 129.467  0.00  0.00    +0.011 C 
ENDBRANCH   1  16
TORSDOF 1
ENDMDL
MODEL 3
REMARK VINA RESULT:      -6.8      9.160     11.168
REMARK  Name = NuBBE_648
REMARK  2 active torsions:
REMARK  status: ('A' for Active; 'I' for Inactive)
REMARK    1  A    between atoms: C_1  and  C_2
REMARK    2  A    between atoms: C_2  and  C_3
REMARK                            x       y       z     vdW  Elec       q    Type
REMARK                         _______ _______ _______ _____ _____    ______ ____
ROOT
ATOM      1  C   LIG A   1      -7.219  -2.631 130.179  0.00  0.00    +0.203 C 
ATOM      2  C   LIG A   1      -8.392  -3.336 129.468  0.00  0.00    +0.087 C 
ATOM      3  C   LIG A   1      -8.046  -3.020 128.061  0.00  0.00    -0.001 A 
ATOM      4  C   LIG A   1      -6.743  -2.546 128.004  0.00  0.00    +0.128 A 
ATOM      5  O   LIG A   1      -6.134  -2.451 129.227  0.00  0.00    -0.484 OA
ATOM      6  C   LIG A   1      -6.134  -2.225 126.810  0.00  0.00    +0.092 A 
ATOM      7  C   LIG A   1      -6.893  -2.385 125.653  0.00  0.00    +0.142 A 
ATOM      8  O   LIG A   1      -6.276  -2.048 124.429  0.00  0.00    -0.422 OA
ATOM      9  C   LIG A   1      -6.951  -2.173 123.223  0.00  0.00    +0.337 A 
ATOM     10  C   LIG A   1      -8.335  -2.676 123.281  0.00  0.00    +0.092 A 
ATOM     11  C   LIG A   1      -8.936  -3.002 124.429  0.00  0.00    +0.018 A 
ATOM     12  C   LIG A   1      -8.214  -2.860 125.683  0.00  0.00    +0.018 A 
ATOM     13  C   LIG A   1      -8.800  -3.192 126.910  0.00  0.00    +0.018 A 
ATOM     14  O   LIG A   1      -6.437  -1.883 122.149  0.00  0.00    -0.245 OA
ENDROOT
BRANCH   1  16
ATOM     15  C   LIG A   1      -5.668  -4.438 131.172  0.00  0.00    +0.042 C 
ATOM     16  C   LIG A   1      -6.705  -3.370 131.399  0.00  0.00    -0.040 C 
ATOM     17  C   LIG A   1      -7.137  -3.075 132.636  0.00  0.00    +0.011 C 
ENDBRANCH   1  16
TORSDOF 1
ENDMDL
MODEL 4
REMARK VINA RESULT:      -6.7      7.791      9.742
REMARK  Name = NuBBE_648
REMARK  2 active torsions:
REMARK  status: ('A' for Active; 'I' for Inactive)
REMARK    1  A    between atoms: C_1  and  C_2
REMARK    2  A    between atoms: C_2  and  C_3
REMARK                            x       y       z     vdW  Elec       q    Type
REMARK                         _______ _______ _______ _____ _____    ______ ____
ROOT
ATOM      1  C   LIG A   1      -8.302  -1.747 123.433  0.00  0.00    +0.203 C 
ATOM      2  C   LIG A   1      -6.967  -1.333 124.083  0.00  0.00    +0.087 C 
ATOM      3  C   LIG A   1      -7.279   0.082 124.396  0.00  0.00    -0.001 A 
ATOM      4  C   LIG A   1      -8.645   0.290 124.268  0.00  0.00    +0.128 A 
ATOM      5  O   LIG A   1      -9.337  -0.818 123.858  0.00  0.00    -0.484 OA
ATOM      6  C   LIG A   1      -9.230   1.505 124.554  0.00  0.00    +0.092 A 
ATOM      7  C   LIG A   1      -8.382   2.531 124.967  0.00  0.00    +0.142 A 
ATOM      8  O   LIG A   1      -8.974   3.779 125.251  0.00  0.00    -0.422 OA
ATOM      9  C   LIG A   1      -8.212   4.861 125.669  0.00  0.00    +0.337 A 
ATOM     10  C   LIG A   1      -6.761   4.643 125.805  0.00  0.00    +0.092 A 
ATOM     11  C   LIG A   1      -6.181   3.469 125.543  0.00  0.00    +0.018 A 
ATOM     12  C   LIG A   1      -6.995   2.347 125.102  0.00  0.00    +0.018 A 
ATOM     13  C   LIG A   1      -6.434   1.098 124.819  0.00  0.00    +0.018 A 
ATOM     14  O   LIG A   1      -8.705   5.955 125.917  0.00  0.00    -0.245 OA
ENDROOT
BRANCH   1  16
ATOM     15  C   LIG A   1      -7.794  -3.995 124.591  0.00  0.00    +0.042 C 
ATOM     16  C   LIG A   1      -8.731  -3.165 123.756  0.00  0.00    -0.040 C 
ATOM     17  C   LIG A   1      -9.907  -3.659 123.334  0.00  0.00    +0.011 C 
ENDBRANCH   1  16
TORSDOF 1
ENDMDL
MODEL 5
REMARK VINA RESULT:      -6.7      1.948      2.024
REMARK  Name = NuBBE_648
REMARK  2 active torsions:
REMARK  status: ('A' for Active; 'I' for Inactive)
REMARK    1  A    between atoms: C_1  and  C_2
REMARK    2  A    between atoms: C_2  and  C_3
REMARK                            x       y       z     vdW  Elec       q    Type
REMARK                         _______ _______ _______ _____ _____    ______ ____
ROOT
ATOM      1  C   LIG A   1     -11.849   7.108 129.102  0.00  0.00    +0.203 C 
ATOM      2  C   LIG A   1     -10.536   7.913 129.190  0.00  0.00    +0.087 C 
ATOM      3  C   LIG A   1      -9.737   6.981 130.021  0.00  0.00    -0.001 A 
ATOM      4  C   LIG A   1     -10.373   5.748 130.069  0.00  0.00    +0.128 A 
ATOM      5  O   LIG A   1     -11.562   5.712 129.391  0.00  0.00    -0.484 OA
ATOM      6  C   LIG A   1      -9.825   4.668 130.727  0.00  0.00    +0.092 A 
ATOM      7  C   LIG A   1      -8.601   4.872 131.362  0.00  0.00    +0.142 A 
ATOM      8  O   LIG A   1      -8.041   3.772 132.045  0.00  0.00    -0.422 OA
ATOM      9  C   LIG A   1      -6.827   3.877 132.708  0.00  0.00    +0.337 A 
ATOM     10  C   LIG A   1      -6.150   5.185 132.660  0.00  0.00    +0.092 A 
ATOM     11  C   LIG A   1      -6.662   6.238 132.016  0.00  0.00    +0.018 A 
ATOM     12  C   LIG A   1      -7.939   6.110 131.331  0.00  0.00    +0.018 A 
ATOM     13  C   LIG A   1      -8.513   7.183 130.642  0.00  0.00    +0.018 A 
ATOM     14  O   LIG A   1      -6.323   2.937 133.311  0.00  0.00    -0.245 OA
ENDROOT
BRANCH   1  16
ATOM     15  C   LIG A   1     -11.677   7.283 126.534  0.00  0.00    +0.042 C 
ATOM     16  C   LIG A   1     -12.547   7.214 127.760  0.00  0.00    -0.040 C 
ATOM     17  C   LIG A   1     -13.887   7.225 127.662  0.00  0.00    +0.011 C 
ENDBRANCH   1  16
TORSDOF 1
ENDMDL
MODEL 6
REMARK VINA RESULT:      -6.6      2.419      6.821
REMARK  Name = NuBBE_648
REMARK  2 active torsions:
REMARK  status: ('A' for Active; 'I' for Inactive)
REMARK    1  A    between atoms: C_1  and  C_2
REMARK    2  A    between atoms: C_2  and  C_3
REMARK                            x       y       z     vdW  Elec       q    Type
REMARK                         _______ _______ _______ _____ _____    ______ ____
ROOT
ATOM      1  C   LIG A   1      -7.071   4.906 134.368  0.00  0.00    +0.203 C 
ATOM      2  C   LIG A   1      -8.573   4.569 134.272  0.00  0.00    +0.087 C 
ATOM      3  C   LIG A   1      -8.933   5.401 133.100  0.00  0.00    -0.001 A 
ATOM      4  C   LIG A   1      -7.775   5.824 132.463  0.00  0.00    +0.128 A 
ATOM      5  O   LIG A   1      -6.624   5.414 133.080  0.00  0.00    -0.484 OA
ATOM      6  C   LIG A   1      -7.809   6.570 131.305  0.00  0.00    +0.092 A 
ATOM      7  C   LIG A   1      -9.066   6.898 130.802  0.00  0.00    +0.142 A 
ATOM      8  O   LIG A   1      -9.106   7.670 129.622  0.00  0.00    -0.422 OA
ATOM      9  C   LIG A   1     -10.310   8.046 129.046  0.00  0.00    +0.337 A 
ATOM     10  C   LIG A   1     -11.542   7.599 129.721  0.00  0.00    +0.092 A 
ATOM     11  C   LIG A   1     -11.526   6.866 130.837  0.00  0.00    +0.018 A 
ATOM     12  C   LIG A   1     -10.254   6.485 131.429  0.00  0.00    +0.018 A 
ATOM     13  C   LIG A   1     -10.187   5.716 132.596  0.00  0.00    +0.018 A 
ATOM     14  O   LIG A   1     -10.368   8.719 128.024  0.00  0.00    -0.245 OA
ENDROOT
BRANCH   1  16
ATOM     15  C   LIG A   1      -5.314   3.922 135.980  0.00  0.00    +0.042 C 
ATOM     16  C   LIG A   1      -6.202   3.735 134.779  0.00  0.00    -0.040 C 
ATOM     17  C   LIG A   1      -6.232   2.567 134.114  0.00  0.00    +0.011 C 
ENDBRANCH   1  16
TORSDOF 1
ENDMDL
MODEL 7
REMARK VINA RESULT:      -6.5      9.078      9.631
REMARK  Name = NuBBE_648
REMARK  2 active torsions:
REMARK  status: ('A' for Active; 'I' for Inactive)
REMARK    1  A    between atoms: C_1  and  C_2
REMARK    2  A    between atoms: C_2  and  C_3
REMARK                            x       y       z     vdW  Elec       q    Type
REMARK                         _______ _______ _______ _____ _____    ______ ____
ROOT
ATOM      1  C   LIG A   1      -7.899  -3.378 125.002  0.00  0.00    +0.203 C 
ATOM      2  C   LIG A   1      -8.943  -3.488 126.131  0.00  0.00    +0.087 C 
ATOM      3  C   LIG A   1      -8.086  -3.137 127.289  0.00  0.00    -0.001 A 
ATOM      4  C   LIG A   1      -6.895  -2.590 126.829  0.00  0.00    +0.128 A 
ATOM      5  O   LIG A   1      -6.796  -2.550 125.464  0.00  0.00    -0.484 OA
ATOM      6  C   LIG A   1      -5.927  -2.120 127.690  0.00  0.00    +0.092 A 
ATOM      7  C   LIG A   1      -6.189  -2.230 129.054  0.00  0.00    +0.142 A 
ATOM      8  O   LIG A   1      -5.197  -1.759 129.939  0.00  0.00    -0.422 OA
ATOM      9  C   LIG A   1      -5.366  -1.826 131.314  0.00  0.00    +0.337 A 
ATOM     10  C   LIG A   1      -6.628  -2.406 131.804  0.00  0.00    +0.092 A 
ATOM     11  C   LIG A   1      -7.581  -2.856 130.984  0.00  0.00    +0.018 A 
ATOM     12  C   LIG A   1      -7.384  -2.782 129.545  0.00  0.00    +0.018 A 
ATOM     13  C   LIG A   1      -8.354  -3.237 128.645  0.00  0.00    +0.018 A 
ATOM     14  O   LIG A   1      -4.516  -1.426 132.101  0.00  0.00    -0.245 OA
ENDROOT
BRANCH   1  16
ATOM     15  C   LIG A   1      -7.583  -1.832 122.960  0.00  0.00    +0.042 C 
ATOM     16  C   LIG A   1      -8.448  -2.812 123.708  0.00  0.00    -0.040 C 
ATOM     17  C   LIG A   1      -9.650  -3.180 123.231  0.00  0.00    +0.011 C 
ENDBRANCH   1  16
TORSDOF 1
ENDMDL
MODEL 8
REMARK VINA RESULT:      -6.4      1.296      6.282
REMARK  Name = NuBBE_648
REMARK  2 active torsions:
REMARK  status: ('A' for Active; 'I' for Inactive)
REMARK    1  A    between atoms: C_1  and  C_2
REMARK    2  A    between atoms: C_2  and  C_3
REMARK                            x       y       z     vdW  Elec       q    Type
REMARK                         _______ _______ _______ _____ _____    ______ ____
ROOT
ATOM      1  C   LIG A   1      -7.579   4.066 132.815  0.00  0.00    +0.203 C 
ATOM      2  C   LIG A   1      -8.590   4.893 133.635  0.00  0.00    +0.087 C 
ATOM      3  C   LIG A   1      -9.522   5.282 132.548  0.00  0.00    -0.001 A 
ATOM      4  C   LIG A   1      -9.262   4.512 131.423  0.00  0.00    +0.128 A 
ATOM      5  O   LIG A   1      -8.216   3.641 131.578  0.00  0.00    -0.484 OA
ATOM      6  C   LIG A   1     -10.015   4.619 130.275  0.00  0.00    +0.092 A 
ATOM      7  C   LIG A   1     -11.051   5.551 130.285  0.00  0.00    +0.142 A 
ATOM      8  O   LIG A   1     -11.819   5.671 129.107  0.00  0.00    -0.422 OA
ATOM      9  C   LIG A   1     -12.870   6.572 129.021  0.00  0.00    +0.337 A 
ATOM     10  C   LIG A   1     -13.148   7.392 130.214  0.00  0.00    +0.092 A 
ATOM     11  C   LIG A   1     -12.434   7.292 131.338  0.00  0.00    +0.018 A 
ATOM     12  C   LIG A   1     -11.333   6.345 131.409  0.00  0.00    +0.018 A 
ATOM     13  C   LIG A   1     -10.559   6.202 132.566  0.00  0.00    +0.018 A 
ATOM     14  O   LIG A   1     -13.548   6.696 128.007  0.00  0.00    -0.245 OA
ENDROOT
BRANCH   1  16
ATOM     15  C   LIG A   1      -6.092   3.106 134.691  0.00  0.00    +0.042 C 
ATOM     16  C   LIG A   1      -7.037   2.855 133.547  0.00  0.00    -0.040 C 
ATOM     17  C   LIG A   1      -7.397   1.606 133.207  0.00  0.00    +0.011 C 
ENDBRANCH   1  16
TORSDOF 1
ENDMDL
MODEL 9
REMARK VINA RESULT:      -6.3      3.450      4.004
REMARK  Name = NuBBE_648
REMARK  2 active torsions:
REMARK  status: ('A' for Active; 'I' for Inactive)
REMARK    1  A    between atoms: C_1  and  C_2
REMARK    2  A    between atoms: C_2  and  C_3
REMARK                            x       y       z     vdW  Elec       q    Type
REMARK                         _______ _______ _______ _____ _____    ______ ____
ROOT
ATOM      1  C   LIG A   1     -10.669   6.474 130.769  0.00  0.00    +0.203 C 
ATOM      2  C   LIG A   1     -10.466   6.091 132.249  0.00  0.00    +0.087 C 
ATOM      3  C   LIG A   1      -8.985   6.100 132.300  0.00  0.00    -0.001 A 
ATOM      4  C   LIG A   1      -8.489   6.721 131.163  0.00  0.00    +0.128 A 
ATOM      5  O   LIG A   1      -9.460   7.122 130.284  0.00  0.00    -0.484 OA
ATOM      6  C   LIG A   1      -7.140   6.921 130.968  0.00  0.00    +0.092 A 
ATOM      7  C   LIG A   1      -6.284   6.457 131.965  0.00  0.00    +0.142 A 
ATOM      8  O   LIG A   1      -4.901   6.652 131.766  0.00  0.00    -0.422 OA
ATOM      9  C   LIG A   1      -3.970   6.224 132.702  0.00  0.00    +0.337 A 
ATOM     10  C   LIG A   1      -4.493   5.563 133.911  0.00  0.00    +0.092 A 
ATOM     11  C   LIG A   1      -5.799   5.371 134.119  0.00  0.00    +0.018 A 
ATOM     12  C   LIG A   1      -6.759   5.823 133.125  0.00  0.00    +0.018 A 
ATOM     13  C   LIG A   1      -8.136   5.647 133.300  0.00  0.00    +0.018 A 
ATOM     14  O   LIG A   1      -2.764   6.379 132.548  0.00  0.00    -0.245 OA
ENDROOT
BRANCH   1  16
ATOM     15  C   LIG A   1     -11.803   8.287 129.326  0.00  0.00    +0.042 C 
ATOM     16  C   LIG A   1     -11.860   7.378 130.524  0.00  0.00    -0.040 C 
ATOM     17  C   LIG A   1     -12.937   7.359 131.329  0.00  0.00    +0.011 C 
ENDBRANCH   1  16
TORSDOF 1
ENDMDL
