MODEL 1
REMARK VINA RESULT:      -8.3      0.000      0.000
REMARK  Name = NuBBE_215
REMARK  1 active torsions:
REMARK  status: ('A' for Active; 'I' for Inactive)
REMARK    1  A    between atoms: C_1  and  C_2
REMARK                            x       y       z     vdW  Elec       q    Type
REMARK                         _______ _______ _______ _____ _____    ______ ____
ROOT
ATOM      1  C   LIG A   1      -8.093  -3.446 128.720  0.00  0.00    +0.109 C 
ATOM      2  C   LIG A   1      -7.794  -2.119 129.372  0.00  0.00    +0.213 C 
ATOM      3  N   LIG A   1      -7.458  -1.053 128.550  0.00  0.00    -0.294 N 
ATOM      4  C   LIG A   1      -7.311  -1.138 127.087  0.00  0.00    +0.111 C 
ATOM      5  C   LIG A   1      -7.578   0.178 126.352  0.00  0.00    -0.012 A 
ATOM      6  C   LIG A   1      -7.277   0.228 124.962  0.00  0.00    +0.033 A 
ATOM      7  C   LIG A   1      -6.593  -0.932 124.333  0.00  0.00    -0.011 A 
ATOM      8  C   LIG A   1      -6.593  -1.182 122.953  0.00  0.00    +0.009 A 
ATOM      9  C   LIG A   1      -5.902  -2.269 122.409  0.00  0.00    +0.001 A 
ATOM     10  C   LIG A   1      -5.195  -3.136 123.236  0.00  0.00    +0.000 A 
ATOM     11  C   LIG A   1      -5.191  -2.929 124.611  0.00  0.00    +0.004 A 
ATOM     12  C   LIG A   1      -5.899  -1.850 125.162  0.00  0.00    -0.037 A 
ATOM     13  C   LIG A   1      -5.918  -1.646 126.663  0.00  0.00    +0.063 C 
ATOM     14  C   LIG A   1      -7.594   1.420 124.316  0.00  0.00    +0.174 A 
ATOM     15  C   LIG A   1      -8.161   2.489 124.983  0.00  0.00    +0.167 A 
ATOM     16  O   LIG A   1      -8.382   3.564 124.176  0.00  0.00    -0.453 OA
ATOM     17  C   LIG A   1      -7.882   3.068 122.922  0.00  0.00    +0.466 C 
ATOM     18  O   LIG A   1      -7.377   1.725 123.002  0.00  0.00    -0.452 OA
ATOM     19  C   LIG A   1      -8.429   2.464 126.333  0.00  0.00    +0.053 A 
ATOM     20  C   LIG A   1      -8.109   1.302 127.038  0.00  0.00    -0.037 A 
ATOM     21  C   LIG A   1      -8.301   1.242 128.533  0.00  0.00    +0.054 C 
ATOM     22  C   LIG A   1      -7.293   0.271 129.145  0.00  0.00    +0.113 C 
ATOM     23  O   LIG A   1      -7.882  -2.010 130.597  0.00  0.00    -0.276 OA
ENDROOT
TORSDOF 0
ENDMDL
MODEL 2
REMARK VINA RESULT:      -8.2      3.758      5.030
REMARK  Name = NuBBE_215
REMARK  1 active torsions:
REMARK  status: ('A' for Active; 'I' for Inactive)
REMARK    1  A    between atoms: C_1  and  C_2
REMARK                            x       y       z     vdW  Elec       q    Type
REMARK                         _______ _______ _______ _____ _____    ______ ____
ROOT
ATOM      1  C   LIG A   1      -2.476   3.088 126.598  0.00  0.00    +0.109 C 
ATOM      2  C   LIG A   1      -3.592   3.348 127.579  0.00  0.00    +0.213 C 
ATOM      3  N   LIG A   1      -4.893   3.342 127.098  0.00  0.00    -0.294 N 
ATOM      4  C   LIG A   1      -5.262   3.162 125.684  0.00  0.00    +0.111 C 
ATOM      5  C   LIG A   1      -6.654   2.561 125.472  0.00  0.00    -0.012 A 
ATOM      6  C   LIG A   1      -7.159   2.528 124.141  0.00  0.00    +0.033 A 
ATOM      7  C   LIG A   1      -6.388   3.198 123.062  0.00  0.00    -0.011 A 
ATOM      8  C   LIG A   1      -6.550   2.917 121.698  0.00  0.00    +0.009 A 
ATOM      9  C   LIG A   1      -5.823   3.604 120.720  0.00  0.00    +0.001 A 
ATOM     10  C   LIG A   1      -4.913   4.590 121.087  0.00  0.00    +0.000 A 
ATOM     11  C   LIG A   1      -4.713   4.880 122.432  0.00  0.00    +0.004 A 
ATOM     12  C   LIG A   1      -5.426   4.179 123.416  0.00  0.00    -0.037 A 
ATOM     13  C   LIG A   1      -5.182   4.476 124.882  0.00  0.00    +0.063 C 
ATOM     14  C   LIG A   1      -8.400   1.916 123.979  0.00  0.00    +0.174 A 
ATOM     15  C   LIG A   1      -9.099   1.379 125.044  0.00  0.00    +0.167 A 
ATOM     16  O   LIG A   1     -10.294   0.839 124.677  0.00  0.00    -0.453 OA
ATOM     17  C   LIG A   1     -10.288   1.100 123.264  0.00  0.00    +0.466 C 
ATOM     18  O   LIG A   1      -9.105   1.784 122.817  0.00  0.00    -0.452 OA
ATOM     19  C   LIG A   1      -8.635   1.432 126.339  0.00  0.00    +0.053 A 
ATOM     20  C   LIG A   1      -7.406   2.056 126.565  0.00  0.00    -0.037 A 
ATOM     21  C   LIG A   1      -6.883   2.220 127.970  0.00  0.00    +0.054 C 
ATOM     22  C   LIG A   1      -5.996   3.461 128.049  0.00  0.00    +0.113 C 
ATOM     23  O   LIG A   1      -3.324   3.528 128.769  0.00  0.00    -0.276 OA
ENDROOT
TORSDOF 0
ENDMDL
MODEL 3
REMARK VINA RESULT:      -7.9      2.019      4.941
REMARK  Name = NuBBE_215
REMARK  1 active torsions:
REMARK  status: ('A' for Active; 'I' for Inactive)
REMARK    1  A    between atoms: C_1  and  C_2
REMARK                            x       y       z     vdW  Elec       q    Type
REMARK                         _______ _______ _______ _____ _____    ______ ____
ROOT
ATOM      1  C   LIG A   1      -5.250  -3.073 124.126  0.00  0.00    +0.109 C 
ATOM      2  C   LIG A   1      -6.096  -2.114 123.326  0.00  0.00    +0.213 C 
ATOM      3  N   LIG A   1      -6.877  -1.203 124.021  0.00  0.00    -0.294 N 
ATOM      4  C   LIG A   1      -6.991  -1.146 125.488  0.00  0.00    +0.111 C 
ATOM      5  C   LIG A   1      -7.342   0.241 126.035  0.00  0.00    -0.012 A 
ATOM      6  C   LIG A   1      -7.652   0.342 127.421  0.00  0.00    +0.033 A 
ATOM      7  C   LIG A   1      -7.761  -0.903 128.225  0.00  0.00    -0.011 A 
ATOM      8  C   LIG A   1      -7.669  -0.938 129.624  0.00  0.00    +0.009 A 
ATOM      9  C   LIG A   1      -7.816  -2.134 130.335  0.00  0.00    +0.001 A 
ATOM     10  C   LIG A   1      -8.057  -3.326 129.661  0.00  0.00    +0.000 A 
ATOM     11  C   LIG A   1      -8.134  -3.330 128.272  0.00  0.00    +0.004 A 
ATOM     12  C   LIG A   1      -7.968  -2.137 127.555  0.00  0.00    -0.037 A 
ATOM     13  C   LIG A   1      -8.022  -2.151 126.040  0.00  0.00    +0.063 C 
ATOM     14  C   LIG A   1      -7.902   1.627 127.894  0.00  0.00    +0.174 A 
ATOM     15  C   LIG A   1      -7.857   2.735 127.069  0.00  0.00    +0.167 A 
ATOM     16  O   LIG A   1      -8.144   3.896 127.722  0.00  0.00    -0.453 OA
ATOM     17  C   LIG A   1      -8.389   3.407 129.051  0.00  0.00    +0.466 C 
ATOM     18  O   LIG A   1      -8.248   1.981 129.167  0.00  0.00    -0.452 OA
ATOM     19  C   LIG A   1      -7.588   2.647 125.722  0.00  0.00    +0.053 A 
ATOM     20  C   LIG A   1      -7.353   1.379 125.187  0.00  0.00    -0.037 A 
ATOM     21  C   LIG A   1      -7.135   1.208 123.704  0.00  0.00    +0.054 C 
ATOM     22  C   LIG A   1      -7.603  -0.181 123.271  0.00  0.00    +0.113 C 
ATOM     23  O   LIG A   1      -6.049  -2.146 122.095  0.00  0.00    -0.276 OA
ENDROOT
TORSDOF 0
ENDMDL
MODEL 4
REMARK VINA RESULT:      -7.8      2.725      4.668
REMARK  Name = NuBBE_215
REMARK  1 active torsions:
REMARK  status: ('A' for Active; 'I' for Inactive)
REMARK    1  A    between atoms: C_1  and  C_2
REMARK                            x       y       z     vdW  Elec       q    Type
REMARK                         _______ _______ _______ _____ _____    ______ ____
ROOT
ATOM      1  C   LIG A   1      -8.834   2.892 129.713  0.00  0.00    +0.109 C 
ATOM      2  C   LIG A   1      -8.170   3.401 128.458  0.00  0.00    +0.213 C 
ATOM      3  N   LIG A   1      -7.913   2.490 127.445  0.00  0.00    -0.294 N 
ATOM      4  C   LIG A   1      -8.185   1.044 127.530  0.00  0.00    +0.111 C 
ATOM      5  C   LIG A   1      -8.439   0.374 126.177  0.00  0.00    -0.012 A 
ATOM      6  C   LIG A   1      -8.524  -1.047 126.153  0.00  0.00    +0.033 A 
ATOM      7  C   LIG A   1      -8.223  -1.805 127.395  0.00  0.00    -0.011 A 
ATOM      8  C   LIG A   1      -8.637  -3.126 127.621  0.00  0.00    +0.009 A 
ATOM      9  C   LIG A   1      -8.296  -3.807 128.794  0.00  0.00    +0.001 A 
ATOM     10  C   LIG A   1      -7.531  -3.180 129.772  0.00  0.00    +0.000 A 
ATOM     11  C   LIG A   1      -7.120  -1.864 129.588  0.00  0.00    +0.004 A 
ATOM     12  C   LIG A   1      -7.478  -1.172 128.422  0.00  0.00    -0.037 A 
ATOM     13  C   LIG A   1      -7.055   0.272 128.240  0.00  0.00    +0.063 C 
ATOM     14  C   LIG A   1      -8.819  -1.615 124.917  0.00  0.00    +0.174 A 
ATOM     15  C   LIG A   1      -9.012  -0.849 123.783  0.00  0.00    +0.167 A 
ATOM     16  O   LIG A   1      -9.279  -1.595 122.675  0.00  0.00    -0.453 OA
ATOM     17  C   LIG A   1      -9.222  -2.923 123.222  0.00  0.00    +0.466 C 
ATOM     18  O   LIG A   1      -8.926  -2.946 124.629  0.00  0.00    -0.452 OA
ATOM     19  C   LIG A   1      -8.903   0.524 123.787  0.00  0.00    +0.053 A 
ATOM     20  C   LIG A   1      -8.584   1.147 124.995  0.00  0.00    -0.037 A 
ATOM     21  C   LIG A   1      -8.368   2.639 125.047  0.00  0.00    +0.054 C 
ATOM     22  C   LIG A   1      -7.392   2.980 126.171  0.00  0.00    +0.113 C 
ATOM     23  O   LIG A   1      -7.903   4.600 128.356  0.00  0.00    -0.276 OA
ENDROOT
TORSDOF 0
ENDMDL
MODEL 5
REMARK VINA RESULT:      -7.7      2.572      5.968
REMARK  Name = NuBBE_215
REMARK  1 active torsions:
REMARK  status: ('A' for Active; 'I' for Inactive)
REMARK    1  A    between atoms: C_1  and  C_2
REMARK                            x       y       z     vdW  Elec       q    Type
REMARK                         _______ _______ _______ _____ _____    ______ ____
ROOT
ATOM      1  C   LIG A   1      -9.373   1.375 123.607  0.00  0.00    +0.109 C 
ATOM      2  C   LIG A   1      -9.387  -0.120 123.411  0.00  0.00    +0.213 C 
ATOM      3  N   LIG A   1      -8.700  -0.902 124.328  0.00  0.00    -0.294 N 
ATOM      4  C   LIG A   1      -7.901  -0.372 125.446  0.00  0.00    +0.111 C 
ATOM      5  C   LIG A   1      -7.786  -1.324 126.640  0.00  0.00    -0.012 A 
ATOM      6  C   LIG A   1      -6.882  -0.968 127.680  0.00  0.00    +0.033 A 
ATOM      7  C   LIG A   1      -6.001   0.214 127.493  0.00  0.00    -0.011 A 
ATOM      8  C   LIG A   1      -5.373   0.893 128.548  0.00  0.00    +0.009 A 
ATOM      9  C   LIG A   1      -4.525   1.980 128.313  0.00  0.00    +0.001 A 
ATOM     10  C   LIG A   1      -4.285   2.415 127.014  0.00  0.00    +0.000 A 
ATOM     11  C   LIG A   1      -4.908   1.777 125.946  0.00  0.00    +0.004 A 
ATOM     12  C   LIG A   1      -5.774   0.699 126.179  0.00  0.00    -0.037 A 
ATOM     13  C   LIG A   1      -6.475   0.027 125.016  0.00  0.00    +0.063 C 
ATOM     14  C   LIG A   1      -6.853  -1.825 128.777  0.00  0.00    +0.174 A 
ATOM     15  C   LIG A   1      -7.648  -2.953 128.850  0.00  0.00    +0.167 A 
ATOM     16  O   LIG A   1      -7.462  -3.662 129.998  0.00  0.00    -0.453 OA
ATOM     17  C   LIG A   1      -6.451  -2.871 130.645  0.00  0.00    +0.466 C 
ATOM     18  O   LIG A   1      -6.056  -1.719 129.882  0.00  0.00    -0.452 OA
ATOM     19  C   LIG A   1      -8.504  -3.325 127.838  0.00  0.00    +0.053 A 
ATOM     20  C   LIG A   1      -8.557  -2.515 126.701  0.00  0.00    -0.037 A 
ATOM     21  C   LIG A   1      -9.411  -2.912 125.523  0.00  0.00    +0.054 C 
ATOM     22  C   LIG A   1      -8.807  -2.356 124.235  0.00  0.00    +0.113 C 
ATOM     23  O   LIG A   1     -10.024  -0.603 122.473  0.00  0.00    -0.276 OA
ENDROOT
TORSDOF 0
ENDMDL
MODEL 6
REMARK VINA RESULT:      -7.7      2.327      3.998
REMARK  Name = NuBBE_215
REMARK  1 active torsions:
REMARK  status: ('A' for Active; 'I' for Inactive)
REMARK    1  A    between atoms: C_1  and  C_2
REMARK                            x       y       z     vdW  Elec       q    Type
REMARK                         _______ _______ _______ _____ _____    ______ ____
ROOT
ATOM      1  C   LIG A   1      -4.802  -2.491 130.123  0.00  0.00    +0.109 C 
ATOM      2  C   LIG A   1      -6.207  -3.035 130.205  0.00  0.00    +0.213 C 
ATOM      3  N   LIG A   1      -7.116  -2.631 129.237  0.00  0.00    -0.294 N 
ATOM      4  C   LIG A   1      -6.826  -1.657 128.171  0.00  0.00    +0.111 C 
ATOM      5  C   LIG A   1      -7.674  -1.840 126.909  0.00  0.00    -0.012 A 
ATOM      6  C   LIG A   1      -7.589  -0.831 125.908  0.00  0.00    +0.033 A 
ATOM      7  C   LIG A   1      -6.807   0.400 126.193  0.00  0.00    -0.011 A 
ATOM      8  C   LIG A   1      -6.323   1.263 125.200  0.00  0.00    +0.009 A 
ATOM      9  C   LIG A   1      -5.622   2.429 125.525  0.00  0.00    +0.001 A 
ATOM     10  C   LIG A   1      -5.389   2.759 126.857  0.00  0.00    +0.000 A 
ATOM     11  C   LIG A   1      -5.838   1.914 127.866  0.00  0.00    +0.004 A 
ATOM     12  C   LIG A   1      -6.523   0.735 127.543  0.00  0.00    -0.037 A 
ATOM     13  C   LIG A   1      -6.984  -0.199 128.644  0.00  0.00    +0.063 C 
ATOM     14  C   LIG A   1      -8.325  -1.064 124.749  0.00  0.00    +0.174 A 
ATOM     15  C   LIG A   1      -9.093  -2.200 124.582  0.00  0.00    +0.167 A 
ATOM     16  O   LIG A   1      -9.743  -2.233 123.386  0.00  0.00    -0.453 OA
ATOM     17  C   LIG A   1      -9.316  -0.986 122.811  0.00  0.00    +0.466 C 
ATOM     18  O   LIG A   1      -8.430  -0.241 123.664  0.00  0.00    -0.452 OA
ATOM     19  C   LIG A   1      -9.208  -3.168 125.555  0.00  0.00    +0.053 A 
ATOM     20  C   LIG A   1      -8.511  -2.976 126.750  0.00  0.00    -0.037 A 
ATOM     21  C   LIG A   1      -8.662  -3.957 127.885  0.00  0.00    +0.054 C 
ATOM     22  C   LIG A   1      -8.442  -3.244 129.217  0.00  0.00    +0.113 C 
ATOM     23  O   LIG A   1      -6.498  -3.833 131.097  0.00  0.00    -0.276 OA
ENDROOT
TORSDOF 0
ENDMDL
MODEL 7
REMARK VINA RESULT:      -7.6      2.456      5.307
REMARK  Name = NuBBE_215
REMARK  1 active torsions:
REMARK  status: ('A' for Active; 'I' for Inactive)
REMARK    1  A    between atoms: C_1  and  C_2
REMARK                            x       y       z     vdW  Elec       q    Type
REMARK                         _______ _______ _______ _____ _____    ______ ____
ROOT
ATOM      1  C   LIG A   1      -5.437   4.275 123.512  0.00  0.00    +0.109 C 
ATOM      2  C   LIG A   1      -6.123   4.590 124.819  0.00  0.00    +0.213 C 
ATOM      3  N   LIG A   1      -6.356   3.542 125.698  0.00  0.00    -0.294 N 
ATOM      4  C   LIG A   1      -6.039   2.130 125.421  0.00  0.00    +0.111 C 
ATOM      5  C   LIG A   1      -5.770   1.292 126.673  0.00  0.00    -0.012 A 
ATOM      6  C   LIG A   1      -5.640  -0.116 126.506  0.00  0.00    +0.033 A 
ATOM      7  C   LIG A   1      -5.912  -0.709 125.170  0.00  0.00    -0.011 A 
ATOM      8  C   LIG A   1      -5.456  -1.974 124.772  0.00  0.00    +0.009 A 
ATOM      9  C   LIG A   1      -5.772  -2.500 123.515  0.00  0.00    +0.001 A 
ATOM     10  C   LIG A   1      -6.552  -1.770 122.624  0.00  0.00    +0.000 A 
ATOM     11  C   LIG A   1      -7.003  -0.503 122.980  0.00  0.00    +0.004 A 
ATOM     12  C   LIG A   1      -6.673   0.035 124.232  0.00  0.00    -0.037 A 
ATOM     13  C   LIG A   1      -7.141   1.428 124.603  0.00  0.00    +0.063 C 
ATOM     14  C   LIG A   1      -5.333  -0.837 127.656  0.00  0.00    +0.174 A 
ATOM     15  C   LIG A   1      -5.169  -0.226 128.885  0.00  0.00    +0.167 A 
ATOM     16  O   LIG A   1      -4.884  -1.107 129.884  0.00  0.00    -0.453 OA
ATOM     17  C   LIG A   1      -4.898  -2.350 129.162  0.00  0.00    +0.466 C 
ATOM     18  O   LIG A   1      -5.187  -2.191 127.763  0.00  0.00    -0.452 OA
ATOM     19  C   LIG A   1      -5.321   1.130 129.065  0.00  0.00    +0.053 A 
ATOM     20  C   LIG A   1      -5.654   1.902 127.950  0.00  0.00    -0.037 A 
ATOM     21  C   LIG A   1      -5.916   3.379 128.098  0.00  0.00    +0.054 C 
ATOM     22  C   LIG A   1      -6.897   3.840 127.022  0.00  0.00    +0.113 C 
ATOM     23  O   LIG A   1      -6.427   5.755 125.080  0.00  0.00    -0.276 OA
ENDROOT
TORSDOF 0
ENDMDL
MODEL 8
REMARK VINA RESULT:      -7.4      2.512      4.717
REMARK  Name = NuBBE_215
REMARK  1 active torsions:
REMARK  status: ('A' for Active; 'I' for Inactive)
REMARK    1  A    between atoms: C_1  and  C_2
REMARK                            x       y       z     vdW  Elec       q    Type
REMARK                         _______ _______ _______ _____ _____    ______ ____
ROOT
ATOM      1  C   LIG A   1      -5.105  -2.342 130.390  0.00  0.00    +0.109 C 
ATOM      2  C   LIG A   1      -6.244  -3.210 129.914  0.00  0.00    +0.213 C 
ATOM      3  N   LIG A   1      -7.233  -2.616 129.144  0.00  0.00    -0.294 N 
ATOM      4  C   LIG A   1      -7.287  -1.183 128.809  0.00  0.00    +0.111 C 
ATOM      5  C   LIG A   1      -8.020  -0.872 127.501  0.00  0.00    -0.012 A 
ATOM      6  C   LIG A   1      -8.278   0.495 127.201  0.00  0.00    +0.033 A 
ATOM      7  C   LIG A   1      -7.959   1.527 128.221  0.00  0.00    -0.011 A 
ATOM      8  C   LIG A   1      -7.792   2.889 127.927  0.00  0.00    +0.009 A 
ATOM      9  C   LIG A   1      -7.527   3.825 128.932  0.00  0.00    +0.001 A 
ATOM     10  C   LIG A   1      -7.422   3.419 130.259  0.00  0.00    +0.000 A 
ATOM     11  C   LIG A   1      -7.562   2.074 130.583  0.00  0.00    +0.004 A 
ATOM     12  C   LIG A   1      -7.808   1.130 129.575  0.00  0.00    -0.037 A 
ATOM     13  C   LIG A   1      -7.929  -0.339 129.928  0.00  0.00    +0.063 C 
ATOM     14  C   LIG A   1      -8.889   0.741 125.975  0.00  0.00    +0.174 A 
ATOM     15  C   LIG A   1      -9.229  -0.278 125.105  0.00  0.00    +0.167 A 
ATOM     16  O   LIG A   1      -9.827   0.171 123.967  0.00  0.00    -0.453 OA
ATOM     17  C   LIG A   1      -9.844   1.588 124.209  0.00  0.00    +0.466 C 
ATOM     18  O   LIG A   1      -9.264   1.955 125.472  0.00  0.00    -0.452 OA
ATOM     19  C   LIG A   1      -9.012  -1.606 125.397  0.00  0.00    +0.053 A 
ATOM     20  C   LIG A   1      -8.424  -1.914 126.626  0.00  0.00    -0.037 A 
ATOM     21  C   LIG A   1      -8.237  -3.352 127.039  0.00  0.00    +0.054 C 
ATOM     22  C   LIG A   1      -8.275  -3.460 128.563  0.00  0.00    +0.113 C 
ATOM     23  O   LIG A   1      -6.250  -4.410 130.193  0.00  0.00    -0.276 OA
ENDROOT
TORSDOF 0
ENDMDL
MODEL 9
REMARK VINA RESULT:      -7.4      2.783      3.659
REMARK  Name = NuBBE_215
REMARK  1 active torsions:
REMARK  status: ('A' for Active; 'I' for Inactive)
REMARK    1  A    between atoms: C_1  and  C_2
REMARK                            x       y       z     vdW  Elec       q    Type
REMARK                         _______ _______ _______ _____ _____    ______ ____
ROOT
ATOM      1  C   LIG A   1      -8.321   1.851 130.816  0.00  0.00    +0.109 C 
ATOM      2  C   LIG A   1      -7.542   2.773 129.911  0.00  0.00    +0.213 C 
ATOM      3  N   LIG A   1      -7.470   2.452 128.564  0.00  0.00    -0.294 N 
ATOM      4  C   LIG A   1      -8.047   1.239 127.960  0.00  0.00    +0.111 C 
ATOM      5  C   LIG A   1      -8.416   1.389 126.482  0.00  0.00    -0.012 A 
ATOM      6  C   LIG A   1      -8.804   0.214 125.778  0.00  0.00    +0.033 A 
ATOM      7  C   LIG A   1      -8.693  -1.101 126.461  0.00  0.00    -0.011 A 
ATOM      8  C   LIG A   1      -9.385  -2.252 126.053  0.00  0.00    +0.009 A 
ATOM      9  C   LIG A   1      -9.216  -3.475 126.710  0.00  0.00    +0.001 A 
ATOM     10  C   LIG A   1      -8.351  -3.576 127.795  0.00  0.00    +0.000 A 
ATOM     11  C   LIG A   1      -7.665  -2.450 128.238  0.00  0.00    +0.004 A 
ATOM     12  C   LIG A   1      -7.846  -1.217 127.593  0.00  0.00    -0.037 A 
ATOM     13  C   LIG A   1      -7.121   0.014 128.098  0.00  0.00    +0.063 C 
ATOM     14  C   LIG A   1      -9.193   0.401 124.455  0.00  0.00    +0.174 A 
ATOM     15  C   LIG A   1      -9.199   1.648 123.860  0.00  0.00    +0.167 A 
ATOM     16  O   LIG A   1      -9.601   1.615 122.559  0.00  0.00    -0.453 OA
ATOM     17  C   LIG A   1      -9.839   0.208 122.384  0.00  0.00    +0.466 C 
ATOM     18  O   LIG A   1      -9.578  -0.564 123.568  0.00  0.00    -0.452 OA
ATOM     19  C   LIG A   1      -8.798   2.788 124.520  0.00  0.00    +0.053 A 
ATOM     20  C   LIG A   1      -8.372   2.657 125.844  0.00  0.00    -0.037 A 
ATOM     21  C   LIG A   1      -7.842   3.853 126.594  0.00  0.00    +0.054 C 
ATOM     22  C   LIG A   1      -6.835   3.396 127.648  0.00  0.00    +0.113 C 
ATOM     23  O   LIG A   1      -7.023   3.788 130.381  0.00  0.00    -0.276 OA
ENDROOT
TORSDOF 0
ENDMDL
