MODEL 1
REMARK VINA RESULT:      -7.6      0.000      0.000
REMARK  Name = NuBBE_945
REMARK  8 active torsions:
REMARK  status: ('A' for Active; 'I' for Inactive)
REMARK    1  A    between atoms: C_5  and  C_6
REMARK    2  A    between atoms: C_5  and  O_7
REMARK    3  A    between atoms: C_9  and  O_11
REMARK    4  A    between atoms: O_11  and  C_12
REMARK    5  A    between atoms: C_12  and  C_13
REMARK    6  A    between atoms: C_13  and  C_14
REMARK    7  A    between atoms: C_13  and  C_15
REMARK    8  A    between atoms: C_27  and  C_28
REMARK                            x       y       z     vdW  Elec       q    Type
REMARK                         _______ _______ _______ _____ _____    ______ ____
ROOT
ATOM      1  O   LIG A   1     -10.003  -2.372 123.073  0.00  0.00    -0.288 OA
ATOM      2  C   LIG A   1      -8.999  -1.693 123.233  0.00  0.00    +0.181 C 
ATOM      3  C   LIG A   1      -7.777  -1.898 122.413  0.00  0.00    +0.049 C 
ATOM      4  C   LIG A   1      -6.549  -2.166 122.896  0.00  0.00    +0.011 C 
ATOM      5  C   LIG A   1      -6.113  -2.485 124.324  0.00  0.00    +0.085 C 
ATOM      6  C   LIG A   1      -4.900  -3.425 124.233  0.00  0.00    +0.046 C 
ATOM      7  C   LIG A   1      -5.759  -1.192 125.111  0.00  0.00    +0.084 C 
ATOM      8  C   LIG A   1      -6.031  -1.066 126.640  0.00  0.00    +0.191 C 
ATOM      9  C   LIG A   1      -7.063   0.007 127.088  0.00  0.00    +0.111 C 
ATOM     10  C   LIG A   1      -6.783   1.427 126.713  0.00  0.00    +0.040 C 
ATOM     11  C   LIG A   1      -5.618   2.060 126.555  0.00  0.00    +0.020 C 
ATOM     12  C   LIG A   1      -8.550  -0.124 126.705  0.00  0.00    +0.211 C 
ATOM     13  O   LIG A   1      -9.069   1.208 126.621  0.00  0.00    -0.453 OA
ATOM     14  C   LIG A   1      -8.073   2.132 126.548  0.00  0.00    +0.336 C 
ATOM     15  O   LIG A   1      -8.223   3.319 126.366  0.00  0.00    -0.245 OA
ATOM     16  C   LIG A   1      -8.885  -0.915 125.481  0.00  0.00    +0.024 C 
ATOM     17  C   LIG A   1      -8.921  -0.551 124.186  0.00  0.00    -0.004 C 
ATOM     18  C   LIG A   1      -8.757   0.803 123.577  0.00  0.00    +0.047 C 
ENDROOT
BRANCH   5  19
ATOM     19  O   LIG A   1      -7.144  -3.226 124.958  0.00  0.00    -0.385 OA
ATOM     20  H   LIG A   1      -6.961  -4.175 124.834  0.00  0.00    +0.211 HD
ENDBRANCH   5  19
BRANCH   8  21
ATOM     21  O   LIG A   1      -6.343  -2.295 127.323  0.00  0.00    -0.460 OA
BRANCH  21  22
ATOM     22  C   LIG A   1      -6.074  -2.316 128.660  0.00  0.00    +0.310 C 
ATOM     23  O   LIG A   1      -5.031  -1.920 129.165  0.00  0.00    -0.251 OA
BRANCH  22  24
ATOM     24  C   LIG A   1      -7.266  -2.839 129.440  0.00  0.00    +0.092 C 
ATOM     25  C   LIG A   1      -7.924  -1.733 130.251  0.00  0.00    +0.019 C 
ATOM     26  C   LIG A   1      -8.263  -3.480 128.473  0.00  0.00    +0.019 C 
ENDBRANCH  22  24
ENDBRANCH  21  22
ENDBRANCH   8  21
TORSDOF 4
ENDMDL
MODEL 2
REMARK VINA RESULT:      -7.2      2.523      6.600
REMARK  Name = NuBBE_945
REMARK  8 active torsions:
REMARK  status: ('A' for Active; 'I' for Inactive)
REMARK    1  A    between atoms: C_5  and  C_6
REMARK    2  A    between atoms: C_5  and  O_7
REMARK    3  A    between atoms: C_9  and  O_11
REMARK    4  A    between atoms: O_11  and  C_12
REMARK    5  A    between atoms: C_12  and  C_13
REMARK    6  A    between atoms: C_13  and  C_14
REMARK    7  A    between atoms: C_13  and  C_15
REMARK    8  A    between atoms: C_27  and  C_28
REMARK                            x       y       z     vdW  Elec       q    Type
REMARK                         _______ _______ _______ _____ _____    ______ ____
ROOT
ATOM      1  O   LIG A   1      -9.120   2.189 128.502  0.00  0.00    -0.288 OA
ATOM      2  C   LIG A   1      -8.266   1.611 127.845  0.00  0.00    +0.181 C 
ATOM      3  C   LIG A   1      -6.818   1.758 128.140  0.00  0.00    +0.049 C 
ATOM      4  C   LIG A   1      -5.883   2.178 127.267  0.00  0.00    +0.011 C 
ATOM      5  C   LIG A   1      -6.049   2.751 125.862  0.00  0.00    +0.085 C 
ATOM      6  C   LIG A   1      -4.895   3.740 125.630  0.00  0.00    +0.046 C 
ATOM      7  C   LIG A   1      -6.045   1.628 124.788  0.00  0.00    +0.084 C 
ATOM      8  C   LIG A   1      -6.905   1.734 123.492  0.00  0.00    +0.191 C 
ATOM      9  C   LIG A   1      -8.036   0.683 123.307  0.00  0.00    +0.111 C 
ATOM     10  C   LIG A   1      -7.638  -0.758 123.289  0.00  0.00    +0.040 C 
ATOM     11  C   LIG A   1      -6.511  -1.333 122.864  0.00  0.00    +0.020 C 
ATOM     12  C   LIG A   1      -9.247   0.655 124.260  0.00  0.00    +0.211 C 
ATOM     13  O   LIG A   1      -9.697  -0.703 124.309  0.00  0.00    -0.453 OA
ATOM     14  C   LIG A   1      -8.760  -1.561 123.823  0.00  0.00    +0.336 C 
ATOM     15  O   LIG A   1      -8.832  -2.768 123.839  0.00  0.00    -0.245 OA
ATOM     16  C   LIG A   1      -9.062   1.216 125.634  0.00  0.00    +0.024 C 
ATOM     17  C   LIG A   1      -8.582   0.646 126.755  0.00  0.00    -0.004 C 
ATOM     18  C   LIG A   1      -8.196  -0.776 127.005  0.00  0.00    +0.047 C 
ENDROOT
BRANCH   5  19
ATOM     19  O   LIG A   1      -7.243   3.518 125.823  0.00  0.00    -0.385 OA
ATOM     20  H   LIG A   1      -7.012   4.434 125.584  0.00  0.00    +0.211 HD
ENDBRANCH   5  19
BRANCH   8  21
ATOM     21  O   LIG A   1      -7.456   3.035 123.212  0.00  0.00    -0.460 OA
BRANCH  21  22
ATOM     22  C   LIG A   1      -7.698   3.306 121.897  0.00  0.00    +0.310 C 
ATOM     23  O   LIG A   1      -8.814   3.419 121.406  0.00  0.00    -0.251 OA
BRANCH  22  24
ATOM     24  C   LIG A   1      -6.398   3.508 121.142  0.00  0.00    +0.092 C 
ATOM     25  C   LIG A   1      -6.635   4.210 119.812  0.00  0.00    +0.019 C 
ATOM     26  C   LIG A   1      -5.422   4.298 122.014  0.00  0.00    +0.019 C 
ENDBRANCH  22  24
ENDBRANCH  21  22
ENDBRANCH   8  21
TORSDOF 4
ENDMDL
MODEL 3
REMARK VINA RESULT:      -7.2      2.326      5.359
REMARK  Name = NuBBE_945
REMARK  8 active torsions:
REMARK  status: ('A' for Active; 'I' for Inactive)
REMARK    1  A    between atoms: C_5  and  C_6
REMARK    2  A    between atoms: C_5  and  O_7
REMARK    3  A    between atoms: C_9  and  O_11
REMARK    4  A    between atoms: O_11  and  C_12
REMARK    5  A    between atoms: C_12  and  C_13
REMARK    6  A    between atoms: C_13  and  C_14
REMARK    7  A    between atoms: C_13  and  C_15
REMARK    8  A    between atoms: C_27  and  C_28
REMARK                            x       y       z     vdW  Elec       q    Type
REMARK                         _______ _______ _______ _____ _____    ______ ____
ROOT
ATOM      1  O   LIG A   1      -5.905  -3.902 124.131  0.00  0.00    -0.288 OA
ATOM      2  C   LIG A   1      -6.762  -3.214 124.666  0.00  0.00    +0.181 C 
ATOM      3  C   LIG A   1      -8.206  -3.391 124.368  0.00  0.00    +0.049 C 
ATOM      4  C   LIG A   1      -9.033  -2.430 123.916  0.00  0.00    +0.011 C 
ATOM      5  C   LIG A   1      -8.715  -1.013 123.445  0.00  0.00    +0.085 C 
ATOM      6  C   LIG A   1      -9.749  -0.644 122.369  0.00  0.00    +0.046 C 
ATOM      7  C   LIG A   1      -8.752  -0.002 124.624  0.00  0.00    +0.084 C 
ATOM      8  C   LIG A   1      -7.797   1.229 124.675  0.00  0.00    +0.191 C 
ATOM      9  C   LIG A   1      -6.763   1.274 125.835  0.00  0.00    +0.111 C 
ATOM     10  C   LIG A   1      -7.295   1.247 127.232  0.00  0.00    +0.040 C 
ATOM     11  C   LIG A   1      -8.440   1.725 127.724  0.00  0.00    +0.020 C 
ATOM     12  C   LIG A   1      -5.629   0.232 125.918  0.00  0.00    +0.211 C 
ATOM     13  O   LIG A   1      -5.317   0.079 127.306  0.00  0.00    -0.453 OA
ATOM     14  C   LIG A   1      -6.296   0.589 128.102  0.00  0.00    +0.336 C 
ATOM     15  O   LIG A   1      -6.342   0.504 129.308  0.00  0.00    -0.245 OA
ATOM     16  C   LIG A   1      -5.855  -1.093 125.263  0.00  0.00    +0.024 C 
ATOM     17  C   LIG A   1      -6.465  -2.202 125.719  0.00  0.00    -0.004 C 
ATOM     18  C   LIG A   1      -7.003  -2.497 127.082  0.00  0.00    +0.047 C 
ENDROOT
BRANCH   5  19
ATOM     19  O   LIG A   1      -7.452  -1.024 122.796  0.00  0.00    -0.385 OA
ATOM     20  H   LIG A   1      -6.849  -0.439 123.289  0.00  0.00    +0.211 HD
ENDBRANCH   5  19
BRANCH   8  21
ATOM     21  O   LIG A   1      -7.105   1.535 123.450  0.00  0.00    -0.460 OA
BRANCH  21  22
ATOM     22  C   LIG A   1      -7.494   2.680 122.818  0.00  0.00    +0.310 C 
ATOM     23  O   LIG A   1      -8.592   3.206 122.947  0.00  0.00    -0.251 OA
BRANCH  22  24
ATOM     24  C   LIG A   1      -6.359   3.245 121.984  0.00  0.00    +0.092 C 
ATOM     25  C   LIG A   1      -6.881   3.906 120.717  0.00  0.00    +0.019 C 
ATOM     26  C   LIG A   1      -5.553   4.234 122.827  0.00  0.00    +0.019 C 
ENDBRANCH  22  24
ENDBRANCH  21  22
ENDBRANCH   8  21
TORSDOF 4
ENDMDL
MODEL 4
REMARK VINA RESULT:      -7.1      5.929      9.764
REMARK  Name = NuBBE_945
REMARK  8 active torsions:
REMARK  status: ('A' for Active; 'I' for Inactive)
REMARK    1  A    between atoms: C_5  and  C_6
REMARK    2  A    between atoms: C_5  and  O_7
REMARK    3  A    between atoms: C_9  and  O_11
REMARK    4  A    between atoms: O_11  and  C_12
REMARK    5  A    between atoms: C_12  and  C_13
REMARK    6  A    between atoms: C_13  and  C_14
REMARK    7  A    between atoms: C_13  and  C_15
REMARK    8  A    between atoms: C_27  and  C_28
REMARK                            x       y       z     vdW  Elec       q    Type
REMARK                         _______ _______ _______ _____ _____    ______ ____
ROOT
ATOM      1  O   LIG A   1      -8.094   5.072 135.558  0.00  0.00    -0.288 OA
ATOM      2  C   LIG A   1      -7.563   4.653 134.540  0.00  0.00    +0.181 C 
ATOM      3  C   LIG A   1      -6.313   5.252 134.006  0.00  0.00    +0.049 C 
ATOM      4  C   LIG A   1      -6.157   5.760 132.769  0.00  0.00    +0.011 C 
ATOM      5  C   LIG A   1      -7.198   6.009 131.681  0.00  0.00    +0.085 C 
ATOM      6  C   LIG A   1      -6.730   7.227 130.868  0.00  0.00    +0.046 C 
ATOM      7  C   LIG A   1      -7.373   4.763 130.768  0.00  0.00    +0.084 C 
ATOM      8  C   LIG A   1      -8.752   4.395 130.143  0.00  0.00    +0.191 C 
ATOM      9  C   LIG A   1      -9.395   3.052 130.593  0.00  0.00    +0.111 C 
ATOM     10  C   LIG A   1      -8.612   1.802 130.353  0.00  0.00    +0.040 C 
ATOM     11  C   LIG A   1      -7.745   1.503 129.382  0.00  0.00    +0.020 C 
ATOM     12  C   LIG A   1      -9.858   2.850 132.049  0.00  0.00    +0.211 C 
ATOM     13  O   LIG A   1      -9.740   1.451 132.324  0.00  0.00    -0.453 OA
ATOM     14  C   LIG A   1      -8.962   0.820 131.404  0.00  0.00    +0.336 C 
ATOM     15  O   LIG A   1      -8.609  -0.336 131.449  0.00  0.00    -0.245 OA
ATOM     16  C   LIG A   1      -9.194   3.671 133.108  0.00  0.00    +0.024 C 
ATOM     17  C   LIG A   1      -8.051   3.463 133.788  0.00  0.00    -0.004 C 
ATOM     18  C   LIG A   1      -7.145   2.274 133.781  0.00  0.00    +0.047 C 
ENDROOT
BRANCH   5  19
ATOM     19  O   LIG A   1      -8.418   6.388 132.299  0.00  0.00    -0.385 OA
ATOM     20  H   LIG A   1      -8.253   6.521 133.250  0.00  0.00    +0.211 HD
ENDBRANCH   5  19
BRANCH   8  21
ATOM     21  O   LIG A   1      -9.763   5.418 130.214  0.00  0.00    -0.460 OA
BRANCH  21  22
ATOM     22  C   LIG A   1      -9.922   6.174 129.089  0.00  0.00    +0.310 C 
ATOM     23  O   LIG A   1      -9.406   5.925 128.007  0.00  0.00    -0.251 OA
BRANCH  22  24
ATOM     24  C   LIG A   1     -10.872   7.328 129.347  0.00  0.00    +0.092 C 
ATOM     25  C   LIG A   1     -10.658   8.455 128.348  0.00  0.00    +0.019 C 
ATOM     26  C   LIG A   1     -12.313   6.820 129.302  0.00  0.00    +0.019 C 
ENDBRANCH  22  24
ENDBRANCH  21  22
ENDBRANCH   8  21
TORSDOF 4
ENDMDL
MODEL 5
REMARK VINA RESULT:      -6.8      5.020      8.536
REMARK  Name = NuBBE_945
REMARK  8 active torsions:
REMARK  status: ('A' for Active; 'I' for Inactive)
REMARK    1  A    between atoms: C_5  and  C_6
REMARK    2  A    between atoms: C_5  and  O_7
REMARK    3  A    between atoms: C_9  and  O_11
REMARK    4  A    between atoms: O_11  and  C_12
REMARK    5  A    between atoms: C_12  and  C_13
REMARK    6  A    between atoms: C_13  and  C_14
REMARK    7  A    between atoms: C_13  and  C_15
REMARK    8  A    between atoms: C_27  and  C_28
REMARK                            x       y       z     vdW  Elec       q    Type
REMARK                         _______ _______ _______ _____ _____    ______ ____
ROOT
ATOM      1  O   LIG A   1     -10.057   0.489 131.916  0.00  0.00    -0.288 OA
ATOM      2  C   LIG A   1      -9.206   1.367 131.912  0.00  0.00    +0.181 C 
ATOM      3  C   LIG A   1      -9.020   2.282 133.067  0.00  0.00    +0.049 C 
ATOM      4  C   LIG A   1      -9.079   3.626 133.015  0.00  0.00    +0.011 C 
ATOM      5  C   LIG A   1      -9.497   4.538 131.864  0.00  0.00    +0.085 C 
ATOM      6  C   LIG A   1     -10.127   5.797 132.482  0.00  0.00    +0.046 C 
ATOM      7  C   LIG A   1      -8.284   4.907 130.964  0.00  0.00    +0.084 C 
ATOM      8  C   LIG A   1      -8.441   5.116 129.428  0.00  0.00    +0.191 C 
ATOM      9  C   LIG A   1      -7.693   4.118 128.499  0.00  0.00    +0.111 C 
ATOM     10  C   LIG A   1      -6.208   4.028 128.642  0.00  0.00    +0.040 C 
ATOM     11  C   LIG A   1      -5.320   4.962 128.991  0.00  0.00    +0.020 C 
ATOM     12  C   LIG A   1      -8.089   2.629 128.464  0.00  0.00    +0.211 C 
ATOM     13  O   LIG A   1      -6.905   1.899 128.127  0.00  0.00    -0.453 OA
ATOM     14  C   LIG A   1      -5.785   2.654 128.289  0.00  0.00    +0.336 C 
ATOM     15  O   LIG A   1      -4.646   2.263 128.177  0.00  0.00    -0.245 OA
ATOM     16  C   LIG A   1      -8.751   2.058 129.678  0.00  0.00    +0.024 C 
ATOM     17  C   LIG A   1      -8.223   1.554 130.808  0.00  0.00    -0.004 C 
ATOM     18  C   LIG A   1      -6.792   1.292 131.152  0.00  0.00    +0.047 C 
ENDROOT
BRANCH   5  19
ATOM     19  O   LIG A   1     -10.527   3.898 131.128  0.00  0.00    -0.385 OA
ATOM     20  H   LIG A   1     -10.370   4.055 130.179  0.00  0.00    +0.211 HD
ENDBRANCH   5  19
BRANCH   8  21
ATOM     21  O   LIG A   1      -9.793   5.243 128.949  0.00  0.00    -0.460 OA
BRANCH  21  22
ATOM     22  C   LIG A   1     -10.064   6.369 128.228  0.00  0.00    +0.310 C 
ATOM     23  O   LIG A   1      -9.804   6.512 127.040  0.00  0.00    -0.251 OA
BRANCH  22  24
ATOM     24  C   LIG A   1     -10.786   7.393 129.083  0.00  0.00    +0.092 C 
ATOM     25  C   LIG A   1     -11.007   8.692 128.322  0.00  0.00    +0.019 C 
ATOM     26  C   LIG A   1     -12.113   6.807 129.567  0.00  0.00    +0.019 C 
ENDBRANCH  22  24
ENDBRANCH  21  22
ENDBRANCH   8  21
TORSDOF 4
ENDMDL
MODEL 6
REMARK VINA RESULT:      -6.7      1.728      4.330
REMARK  Name = NuBBE_945
REMARK  8 active torsions:
REMARK  status: ('A' for Active; 'I' for Inactive)
REMARK    1  A    between atoms: C_5  and  C_6
REMARK    2  A    between atoms: C_5  and  O_7
REMARK    3  A    between atoms: C_9  and  O_11
REMARK    4  A    between atoms: O_11  and  C_12
REMARK    5  A    between atoms: C_12  and  C_13
REMARK    6  A    between atoms: C_13  and  C_14
REMARK    7  A    between atoms: C_13  and  C_15
REMARK    8  A    between atoms: C_27  and  C_28
REMARK                            x       y       z     vdW  Elec       q    Type
REMARK                         _______ _______ _______ _____ _____    ______ ____
ROOT
ATOM      1  O   LIG A   1      -6.688   2.516 122.920  0.00  0.00    -0.288 OA
ATOM      2  C   LIG A   1      -7.470   1.941 123.663  0.00  0.00    +0.181 C 
ATOM      3  C   LIG A   1      -8.223   2.666 124.718  0.00  0.00    +0.049 C 
ATOM      4  C   LIG A   1      -8.203   2.373 126.032  0.00  0.00    +0.011 C 
ATOM      5  C   LIG A   1      -7.326   1.384 126.796  0.00  0.00    +0.085 C 
ATOM      6  C   LIG A   1      -7.121   1.950 128.210  0.00  0.00    +0.046 C 
ATOM      7  C   LIG A   1      -7.977  -0.027 126.849  0.00  0.00    +0.084 C 
ATOM      8  C   LIG A   1      -7.115  -1.325 126.828  0.00  0.00    +0.191 C 
ATOM      9  C   LIG A   1      -7.285  -2.266 125.603  0.00  0.00    +0.111 C 
ATOM     10  C   LIG A   1      -8.654  -2.808 125.338  0.00  0.00    +0.040 C 
ATOM     11  C   LIG A   1      -9.639  -3.106 126.188  0.00  0.00    +0.020 C 
ATOM     12  C   LIG A   1      -6.858  -1.809 124.194  0.00  0.00    +0.211 C 
ATOM     13  O   LIG A   1      -7.706  -2.496 123.268  0.00  0.00    -0.453 OA
ATOM     14  C   LIG A   1      -8.798  -3.026 123.882  0.00  0.00    +0.336 C 
ATOM     15  O   LIG A   1      -9.728  -3.566 123.328  0.00  0.00    -0.245 OA
ATOM     16  C   LIG A   1      -6.832  -0.340 123.920  0.00  0.00    +0.024 C 
ATOM     17  C   LIG A   1      -7.814   0.497 123.537  0.00  0.00    -0.004 C 
ATOM     18  C   LIG A   1      -9.223   0.190 123.144  0.00  0.00    +0.047 C 
ENDROOT
BRANCH   5  19
ATOM     19  O   LIG A   1      -6.043   1.354 126.190  0.00  0.00    -0.385 OA
ATOM     20  H   LIG A   1      -5.942   0.501 125.728  0.00  0.00    +0.211 HD
ENDBRANCH   5  19
BRANCH   8  21
ATOM     21  O   LIG A   1      -5.705  -1.143 127.057  0.00  0.00    -0.460 OA
BRANCH  21  22
ATOM     22  C   LIG A   1      -5.272  -1.393 128.327  0.00  0.00    +0.310 C 
ATOM     23  O   LIG A   1      -4.971  -0.529 129.140  0.00  0.00    -0.251 OA
BRANCH  22  24
ATOM     24  C   LIG A   1      -5.273  -2.883 128.610  0.00  0.00    +0.092 C 
ATOM     25  C   LIG A   1      -3.890  -3.370 129.015  0.00  0.00    +0.019 C 
ATOM     26  C   LIG A   1      -6.304  -3.193 129.697  0.00  0.00    +0.019 C 
ENDBRANCH  22  24
ENDBRANCH  21  22
ENDBRANCH   8  21
TORSDOF 4
ENDMDL
MODEL 7
REMARK VINA RESULT:      -6.7      1.894      4.706
REMARK  Name = NuBBE_945
REMARK  8 active torsions:
REMARK  status: ('A' for Active; 'I' for Inactive)
REMARK    1  A    between atoms: C_5  and  C_6
REMARK    2  A    between atoms: C_5  and  O_7
REMARK    3  A    between atoms: C_9  and  O_11
REMARK    4  A    between atoms: O_11  and  C_12
REMARK    5  A    between atoms: C_12  and  C_13
REMARK    6  A    between atoms: C_13  and  C_14
REMARK    7  A    between atoms: C_13  and  C_15
REMARK    8  A    between atoms: C_27  and  C_28
REMARK                            x       y       z     vdW  Elec       q    Type
REMARK                         _______ _______ _______ _____ _____    ______ ____
ROOT
ATOM      1  O   LIG A   1      -4.733   2.520 126.217  0.00  0.00    -0.288 OA
ATOM      2  C   LIG A   1      -5.811   1.945 126.166  0.00  0.00    +0.181 C 
ATOM      3  C   LIG A   1      -6.979   2.401 126.962  0.00  0.00    +0.049 C 
ATOM      4  C   LIG A   1      -7.666   1.648 127.841  0.00  0.00    +0.011 C 
ATOM      5  C   LIG A   1      -7.363   0.249 128.370  0.00  0.00    +0.085 C 
ATOM      6  C   LIG A   1      -7.914   0.170 129.803  0.00  0.00    +0.046 C 
ATOM      7  C   LIG A   1      -7.997  -0.848 127.469  0.00  0.00    +0.084 C 
ATOM      8  C   LIG A   1      -7.305  -2.227 127.250  0.00  0.00    +0.191 C 
ATOM      9  C   LIG A   1      -6.839  -2.562 125.805  0.00  0.00    +0.111 C 
ATOM     10  C   LIG A   1      -7.881  -2.574 124.733  0.00  0.00    +0.040 C 
ATOM     11  C   LIG A   1      -9.177  -2.888 124.798  0.00  0.00    +0.020 C 
ATOM     12  C   LIG A   1      -5.715  -1.749 125.132  0.00  0.00    +0.211 C 
ATOM     13  O   LIG A   1      -5.972  -1.785 123.725  0.00  0.00    -0.453 OA
ATOM     14  C   LIG A   1      -7.243  -2.188 123.455  0.00  0.00    +0.336 C 
ATOM     15  O   LIG A   1      -7.760  -2.210 122.362  0.00  0.00    -0.245 OA
ATOM     16  C   LIG A   1      -5.492  -0.349 125.608  0.00  0.00    +0.024 C 
ATOM     17  C   LIG A   1      -6.092   0.802 125.252  0.00  0.00    -0.004 C 
ATOM     18  C   LIG A   1      -7.091   1.057 124.171  0.00  0.00    +0.047 C 
ENDROOT
BRANCH   5  19
ATOM     19  O   LIG A   1      -5.956   0.099 128.476  0.00  0.00    -0.385 OA
ATOM     20  H   LIG A   1      -5.750  -0.854 128.505  0.00  0.00    +0.211 HD
ENDBRANCH   5  19
BRANCH   8  21
ATOM     21  O   LIG A   1      -6.222  -2.532 128.149  0.00  0.00    -0.460 OA
BRANCH  21  22
ATOM     22  C   LIG A   1      -6.561  -3.230 129.272  0.00  0.00    +0.310 C 
ATOM     23  O   LIG A   1      -7.695  -3.604 129.540  0.00  0.00    -0.251 OA
BRANCH  22  24
ATOM     24  C   LIG A   1      -5.331  -3.531 130.108  0.00  0.00    +0.092 C 
ATOM     25  C   LIG A   1      -5.453  -4.878 130.805  0.00  0.00    +0.019 C 
ATOM     26  C   LIG A   1      -4.088  -3.482 129.220  0.00  0.00    +0.019 C 
ENDBRANCH  22  24
ENDBRANCH  21  22
ENDBRANCH   8  21
TORSDOF 4
ENDMDL
MODEL 8
REMARK VINA RESULT:      -6.6      2.194      5.062
REMARK  Name = NuBBE_945
REMARK  8 active torsions:
REMARK  status: ('A' for Active; 'I' for Inactive)
REMARK    1  A    between atoms: C_5  and  C_6
REMARK    2  A    between atoms: C_5  and  O_7
REMARK    3  A    between atoms: C_9  and  O_11
REMARK    4  A    between atoms: O_11  and  C_12
REMARK    5  A    between atoms: C_12  and  C_13
REMARK    6  A    between atoms: C_13  and  C_14
REMARK    7  A    between atoms: C_13  and  C_15
REMARK    8  A    between atoms: C_27  and  C_28
REMARK                            x       y       z     vdW  Elec       q    Type
REMARK                         _______ _______ _______ _____ _____    ______ ____
ROOT
ATOM      1  O   LIG A   1      -4.077   2.971 126.804  0.00  0.00    -0.288 OA
ATOM      2  C   LIG A   1      -5.299   2.929 126.780  0.00  0.00    +0.181 C 
ATOM      3  C   LIG A   1      -6.111   3.067 128.016  0.00  0.00    +0.049 C 
ATOM      4  C   LIG A   1      -7.014   2.172 128.460  0.00  0.00    +0.011 C 
ATOM      5  C   LIG A   1      -7.324   0.767 127.950  0.00  0.00    +0.085 C 
ATOM      6  C   LIG A   1      -7.783  -0.068 129.156  0.00  0.00    +0.046 C 
ATOM      7  C   LIG A   1      -8.416   0.794 126.843  0.00  0.00    +0.084 C 
ATOM      8  C   LIG A   1      -8.404  -0.219 125.659  0.00  0.00    +0.191 C 
ATOM      9  C   LIG A   1      -8.202   0.364 124.232  0.00  0.00    +0.111 C 
ATOM     10  C   LIG A   1      -9.197   1.374 123.756  0.00  0.00    +0.040 C 
ATOM     11  C   LIG A   1     -10.495   1.501 124.039  0.00  0.00    +0.020 C 
ATOM     12  C   LIG A   1      -6.872   1.034 123.837  0.00  0.00    +0.211 C 
ATOM     13  O   LIG A   1      -7.188   2.015 122.843  0.00  0.00    -0.453 OA
ATOM     14  C   LIG A   1      -8.519   2.294 122.816  0.00  0.00    +0.336 C 
ATOM     15  O   LIG A   1      -9.047   3.154 122.150  0.00  0.00    -0.245 OA
ATOM     16  C   LIG A   1      -6.038   1.620 124.932  0.00  0.00    +0.024 C 
ATOM     17  C   LIG A   1      -6.093   2.828 125.524  0.00  0.00    -0.004 C 
ATOM     18  C   LIG A   1      -6.934   4.015 125.181  0.00  0.00    +0.047 C 
ENDROOT
BRANCH   5  19
ATOM     19  O   LIG A   1      -6.119   0.174 127.491  0.00  0.00    -0.385 OA
ATOM     20  H   LIG A   1      -6.315  -0.736 127.203  0.00  0.00    +0.211 HD
ENDBRANCH   5  19
BRANCH   8  21
ATOM     21  O   LIG A   1      -7.519  -1.345 125.809  0.00  0.00    -0.460 OA
BRANCH  21  22
ATOM     22  C   LIG A   1      -8.124  -2.558 125.972  0.00  0.00    +0.310 C 
ATOM     23  O   LIG A   1      -8.770  -2.884 126.959  0.00  0.00    -0.251 OA
BRANCH  22  24
ATOM     24  C   LIG A   1      -7.937  -3.421 124.738  0.00  0.00    +0.092 C 
ATOM     25  C   LIG A   1      -9.138  -3.324 123.809  0.00  0.00    +0.019 C 
ATOM     26  C   LIG A   1      -6.652  -3.009 124.019  0.00  0.00    +0.019 C 
ENDBRANCH  22  24
ENDBRANCH  21  22
ENDBRANCH   8  21
TORSDOF 4
ENDMDL
MODEL 9
REMARK VINA RESULT:      -6.5      1.750      2.372
REMARK  Name = NuBBE_945
REMARK  8 active torsions:
REMARK  status: ('A' for Active; 'I' for Inactive)
REMARK    1  A    between atoms: C_5  and  C_6
REMARK    2  A    between atoms: C_5  and  O_7
REMARK    3  A    between atoms: C_9  and  O_11
REMARK    4  A    between atoms: O_11  and  C_12
REMARK    5  A    between atoms: C_12  and  C_13
REMARK    6  A    between atoms: C_13  and  C_14
REMARK    7  A    between atoms: C_13  and  C_15
REMARK    8  A    between atoms: C_27  and  C_28
REMARK                            x       y       z     vdW  Elec       q    Type
REMARK                         _______ _______ _______ _____ _____    ______ ____
ROOT
ATOM      1  O   LIG A   1      -9.697  -3.168 124.629  0.00  0.00    -0.288 OA
ATOM      2  C   LIG A   1      -8.738  -2.410 124.601  0.00  0.00    +0.181 C 
ATOM      3  C   LIG A   1      -7.344  -2.916 124.527  0.00  0.00    +0.049 C 
ATOM      4  C   LIG A   1      -6.364  -2.634 125.407  0.00  0.00    +0.011 C 
ATOM      5  C   LIG A   1      -6.437  -1.899 126.743  0.00  0.00    +0.085 C 
ATOM      6  C   LIG A   1      -5.350  -2.494 127.654  0.00  0.00    +0.046 C 
ATOM      7  C   LIG A   1      -6.234  -0.369 126.561  0.00  0.00    +0.084 C 
ATOM      8  C   LIG A   1      -6.967   0.666 127.467  0.00  0.00    +0.191 C 
ATOM      9  C   LIG A   1      -7.983   1.616 126.774  0.00  0.00    +0.111 C 
ATOM     10  C   LIG A   1      -7.469   2.489 125.674  0.00  0.00    +0.040 C 
ATOM     11  C   LIG A   1      -6.261   3.031 125.502  0.00  0.00    +0.020 C 
ATOM     12  C   LIG A   1      -9.277   1.061 126.146  0.00  0.00    +0.211 C 
ATOM     13  O   LIG A   1      -9.616   1.939 125.067  0.00  0.00    -0.453 OA
ATOM     14  C   LIG A   1      -8.569   2.732 124.715  0.00  0.00    +0.336 C 
ATOM     15  O   LIG A   1      -8.542   3.490 123.773  0.00  0.00    -0.245 OA
ATOM     16  C   LIG A   1      -9.276  -0.367 125.703  0.00  0.00    +0.024 C 
ATOM     17  C   LIG A   1      -8.864  -0.926 124.550  0.00  0.00    -0.004 C 
ATOM     18  C   LIG A   1      -8.389  -0.270 123.294  0.00  0.00    +0.047 C 
ENDROOT
BRANCH   5  19
ATOM     19  O   LIG A   1      -7.680  -2.199 127.359  0.00  0.00    -0.385 OA
ATOM     20  H   LIG A   1      -8.284  -2.547 126.677  0.00  0.00    +0.211 HD
ENDBRANCH   5  19
BRANCH   8  21
ATOM     21  O   LIG A   1      -7.592   0.130 128.648  0.00  0.00    -0.460 OA
BRANCH  21  22
ATOM     22  C   LIG A   1      -7.172   0.660 129.834  0.00  0.00    +0.310 C 
ATOM     23  O   LIG A   1      -6.484   1.667 129.940  0.00  0.00    -0.251 OA
BRANCH  22  24
ATOM     24  C   LIG A   1      -7.726  -0.134 131.002  0.00  0.00    +0.092 C 
ATOM     25  C   LIG A   1      -9.045   0.447 131.490  0.00  0.00    +0.019 C 
ATOM     26  C   LIG A   1      -7.888  -1.598 130.591  0.00  0.00    +0.019 C 
ENDBRANCH  22  24
ENDBRANCH  21  22
ENDBRANCH   8  21
TORSDOF 4
ENDMDL
