MODEL 1
REMARK VINA RESULT:      -7.8      0.000      0.000
REMARK  Name = NuBBE_2003
REMARK  12 active torsions:
REMARK  status: ('A' for Active; 'I' for Inactive)
REMARK    1  A    between atoms: C_1  and  C_2
REMARK    2  A    between atoms: C_7  and  C_9
REMARK    3  A    between atoms: C_12  and  O_13
REMARK    4  A    between atoms: O_13  and  C_14
REMARK    5  A    between atoms: C_14  and  C_15
REMARK    6  A    between atoms: C_17  and  O_18
REMARK    7  A    between atoms: O_18  and  C_19
REMARK    8  A    between atoms: C_23  and  O_24
REMARK    9  A    between atoms: C_25  and  C_26
REMARK   10  A    between atoms: C_27  and  O_28
REMARK   11  A    between atoms: O_28  and  C_29
REMARK   12  A    between atoms: C_29  and  C_30
REMARK                            x       y       z     vdW  Elec       q    Type
REMARK                         _______ _______ _______ _____ _____    ______ ____
ROOT
ATOM      1  C   LIG A   1      -7.097   1.610 127.292  0.00  0.00    +0.051 C 
ATOM      2  C   LIG A   1      -7.323   0.564 126.230  0.00  0.00    +0.035 A 
ATOM      3  C   LIG A   1      -8.302   0.752 125.236  0.00  0.00    +0.142 A 
ATOM      4  C   LIG A   1      -8.513  -0.226 124.264  0.00  0.00    +0.101 A 
ATOM      5  C   LIG A   1      -9.622  -0.037 123.306  0.00  0.00    +0.174 C 
ATOM      6  C   LIG A   1     -10.416   1.231 123.415  0.00  0.00    +0.129 C 
ATOM      7  C   LIG A   1      -9.511   2.339 123.939  0.00  0.00    +0.211 C 
ATOM      8  O   LIG A   1      -8.986   1.948 125.230  0.00  0.00    -0.483 OA
ATOM      9  O   LIG A   1      -9.911  -0.933 122.516  0.00  0.00    -0.292 OA
ATOM     10  C   LIG A   1      -7.692  -1.359 124.209  0.00  0.00    +0.137 A 
ATOM     11  C   LIG A   1      -6.653  -1.550 125.135  0.00  0.00    +0.034 A 
ATOM     12  C   LIG A   1      -5.785  -2.772 125.016  0.00  0.00    +0.051 C 
ATOM     13  C   LIG A   1      -6.508  -0.593 126.161  0.00  0.00    +0.144 A 
ENDROOT
BRANCH   7  14
ATOM     14  C   LIG A   1      -8.445   2.827 122.952  0.00  0.00    -0.003 A 
ATOM     15  C   LIG A   1      -7.090   2.868 123.311  0.00  0.00    +0.011 A 
ATOM     16  C   LIG A   1      -6.121   3.308 122.399  0.00  0.00    +0.050 A 
ATOM     17  C   LIG A   1      -6.499   3.726 121.120  0.00  0.00    +0.173 A 
ATOM     18  C   LIG A   1      -7.846   3.737 120.751  0.00  0.00    +0.163 A 
ATOM     19  C   LIG A   1      -8.784   3.227 121.648  0.00  0.00    +0.056 A 
BRANCH  18  20
ATOM     20  O   LIG A   1      -8.185   4.200 119.504  0.00  0.00    -0.491 OA
ATOM     21  C   LIG A   1      -9.591   4.271 119.237  0.00  0.00    +0.277 C 
ENDBRANCH  18  20
BRANCH  17  22
ATOM     22  O   LIG A   1      -5.565   4.191 120.165  0.00  0.00    -0.422 OA
BRANCH  22  23
ATOM     23  C   LIG A   1      -4.989   5.458 120.247  0.00  0.00    +0.309 C 
ATOM     24  C   LIG A   1      -4.002   5.479 121.376  0.00  0.00    +0.136 C 
ATOM     25  O   LIG A   1      -5.256   6.436 119.561  0.00  0.00    -0.251 OA
ENDBRANCH  22  23
ENDBRANCH  17  22
ENDBRANCH   7  14
BRANCH  10  26
ATOM     26  O   LIG A   1      -7.887  -2.330 123.258  0.00  0.00    -0.506 OA
ATOM     27  H   LIG A   1      -7.013  -2.692 122.988  0.00  0.00    +0.292 HD
ENDBRANCH  10  26
BRANCH  13  28
ATOM     28  O   LIG A   1      -5.720  -0.855 127.326  0.00  0.00    -0.425 OA
BRANCH  28  29
ATOM     29  C   LIG A   1      -6.062  -1.606 128.461  0.00  0.00    +0.309 C 
ATOM     30  C   LIG A   1      -5.435  -0.943 129.658  0.00  0.00    +0.136 C 
ATOM     31  O   LIG A   1      -6.710  -2.631 128.490  0.00  0.00    -0.251 OA
ENDBRANCH  28  29
ENDBRANCH  13  28
TORSDOF 7
ENDMDL
MODEL 2
REMARK VINA RESULT:      -7.6      6.670      9.364
REMARK  Name = NuBBE_2003
REMARK  12 active torsions:
REMARK  status: ('A' for Active; 'I' for Inactive)
REMARK    1  A    between atoms: C_1  and  C_2
REMARK    2  A    between atoms: C_7  and  C_9
REMARK    3  A    between atoms: C_12  and  O_13
REMARK    4  A    between atoms: O_13  and  C_14
REMARK    5  A    between atoms: C_14  and  C_15
REMARK    6  A    between atoms: C_17  and  O_18
REMARK    7  A    between atoms: O_18  and  C_19
REMARK    8  A    between atoms: C_23  and  O_24
REMARK    9  A    between atoms: C_25  and  C_26
REMARK   10  A    between atoms: C_27  and  O_28
REMARK   11  A    between atoms: O_28  and  C_29
REMARK   12  A    between atoms: C_29  and  C_30
REMARK                            x       y       z     vdW  Elec       q    Type
REMARK                         _______ _______ _______ _____ _____    ______ ____
ROOT
ATOM      1  C   LIG A   1      -4.661   6.837 131.555  0.00  0.00    +0.051 C 
ATOM      2  C   LIG A   1      -5.145   5.409 131.581  0.00  0.00    +0.035 A 
ATOM      3  C   LIG A   1      -6.242   5.039 132.380  0.00  0.00    +0.142 A 
ATOM      4  C   LIG A   1      -6.678   3.713 132.408  0.00  0.00    +0.101 A 
ATOM      5  C   LIG A   1      -7.761   3.348 133.342  0.00  0.00    +0.174 C 
ATOM      6  C   LIG A   1      -8.360   4.450 134.165  0.00  0.00    +0.129 C 
ATOM      7  C   LIG A   1      -8.279   5.754 133.382  0.00  0.00    +0.211 C 
ATOM      8  O   LIG A   1      -6.893   6.035 133.076  0.00  0.00    -0.483 OA
ATOM      9  O   LIG A   1      -8.086   2.170 133.478  0.00  0.00    -0.292 OA
ATOM     10  C   LIG A   1      -6.090   2.759 131.569  0.00  0.00    +0.137 A 
ATOM     11  C   LIG A   1      -5.042   3.101 130.698  0.00  0.00    +0.034 A 
ATOM     12  C   LIG A   1      -4.463   2.042 129.801  0.00  0.00    +0.051 C 
ATOM     13  C   LIG A   1      -4.561   4.426 130.745  0.00  0.00    +0.144 A 
ENDROOT
BRANCH   7  14
ATOM     14  C   LIG A   1      -9.218   5.843 132.173  0.00  0.00    -0.003 A 
ATOM     15  C   LIG A   1     -10.586   6.104 132.337  0.00  0.00    +0.011 A 
ATOM     16  C   LIG A   1     -11.436   6.191 131.227  0.00  0.00    +0.050 A 
ATOM     17  C   LIG A   1     -10.929   6.005 129.938  0.00  0.00    +0.173 A 
ATOM     18  C   LIG A   1      -9.578   5.701 129.749  0.00  0.00    +0.163 A 
ATOM     19  C   LIG A   1      -8.738   5.691 130.862  0.00  0.00    +0.056 A 
BRANCH  18  20
ATOM     20  O   LIG A   1      -9.124   5.476 128.473  0.00  0.00    -0.491 OA
ATOM     21  C   LIG A   1      -8.114   4.469 128.349  0.00  0.00    +0.277 C 
ENDBRANCH  18  20
BRANCH  17  22
ATOM     22  O   LIG A   1     -11.742   6.070 128.782  0.00  0.00    -0.422 OA
BRANCH  22  23
ATOM     23  C   LIG A   1     -12.359   7.253 128.376  0.00  0.00    +0.309 C 
ATOM     24  C   LIG A   1     -11.410   8.034 127.516  0.00  0.00    +0.136 C 
ATOM     25  O   LIG A   1     -13.473   7.650 128.691  0.00  0.00    -0.251 OA
ENDBRANCH  22  23
ENDBRANCH  17  22
ENDBRANCH   7  14
BRANCH  10  26
ATOM     26  O   LIG A   1      -6.507   1.450 131.584  0.00  0.00    -0.506 OA
ATOM     27  H   LIG A   1      -5.894   0.927 132.147  0.00  0.00    +0.292 HD
ENDBRANCH  10  26
BRANCH  13  28
ATOM     28  O   LIG A   1      -3.306   4.789 130.160  0.00  0.00    -0.425 OA
BRANCH  28  29
ATOM     29  C   LIG A   1      -3.048   5.241 128.857  0.00  0.00    +0.309 C 
ATOM     30  C   LIG A   1      -2.051   6.365 128.947  0.00  0.00    +0.136 C 
ATOM     31  O   LIG A   1      -3.558   4.840 127.832  0.00  0.00    -0.251 OA
ENDBRANCH  28  29
ENDBRANCH  13  28
TORSDOF 7
ENDMDL
MODEL 3
REMARK VINA RESULT:      -7.6      6.602      9.209
REMARK  Name = NuBBE_2003
REMARK  12 active torsions:
REMARK  status: ('A' for Active; 'I' for Inactive)
REMARK    1  A    between atoms: C_1  and  C_2
REMARK    2  A    between atoms: C_7  and  C_9
REMARK    3  A    between atoms: C_12  and  O_13
REMARK    4  A    between atoms: O_13  and  C_14
REMARK    5  A    between atoms: C_14  and  C_15
REMARK    6  A    between atoms: C_17  and  O_18
REMARK    7  A    between atoms: O_18  and  C_19
REMARK    8  A    between atoms: C_23  and  O_24
REMARK    9  A    between atoms: C_25  and  C_26
REMARK   10  A    between atoms: C_27  and  O_28
REMARK   11  A    between atoms: O_28  and  C_29
REMARK   12  A    between atoms: C_29  and  C_30
REMARK                            x       y       z     vdW  Elec       q    Type
REMARK                         _______ _______ _______ _____ _____    ______ ____
ROOT
ATOM      1  C   LIG A   1      -4.433   6.164 130.570  0.00  0.00    +0.051 C 
ATOM      2  C   LIG A   1      -5.105   4.837 130.813  0.00  0.00    +0.035 A 
ATOM      3  C   LIG A   1      -6.126   4.715 131.773  0.00  0.00    +0.142 A 
ATOM      4  C   LIG A   1      -6.735   3.481 132.001  0.00  0.00    +0.101 A 
ATOM      5  C   LIG A   1      -7.724   3.375 133.092  0.00  0.00    +0.174 C 
ATOM      6  C   LIG A   1      -8.047   4.628 133.851  0.00  0.00    +0.129 C 
ATOM      7  C   LIG A   1      -7.891   5.825 132.922  0.00  0.00    +0.211 C 
ATOM      8  O   LIG A   1      -6.532   5.860 132.424  0.00  0.00    -0.483 OA
ATOM      9  O   LIG A   1      -8.189   2.279 133.397  0.00  0.00    -0.292 OA
ATOM     10  C   LIG A   1      -6.404   2.373 131.211  0.00  0.00    +0.137 A 
ATOM     11  C   LIG A   1      -5.444   2.467 130.190  0.00  0.00    +0.034 A 
ATOM     12  C   LIG A   1      -5.144   1.253 129.355  0.00  0.00    +0.051 C 
ATOM     13  C   LIG A   1      -4.780   3.701 130.030  0.00  0.00    +0.144 A 
ENDROOT
BRANCH   7  14
ATOM     14  C   LIG A   1      -8.961   5.943 131.831  0.00  0.00    -0.003 A 
ATOM     15  C   LIG A   1      -8.618   5.894 130.472  0.00  0.00    +0.011 A 
ATOM     16  C   LIG A   1      -9.603   5.995 129.481  0.00  0.00    +0.050 A 
ATOM     17  C   LIG A   1     -10.944   6.160 129.838  0.00  0.00    +0.173 A 
ATOM     18  C   LIG A   1     -11.309   6.256 131.184  0.00  0.00    +0.163 A 
ATOM     19  C   LIG A   1     -10.321   6.079 132.152  0.00  0.00    +0.056 A 
BRANCH  18  20
ATOM     20  O   LIG A   1     -12.629   6.466 131.496  0.00  0.00    -0.491 OA
ATOM     21  C   LIG A   1     -13.015   7.839 131.633  0.00  0.00    +0.277 C 
ENDBRANCH  18  20
BRANCH  17  22
ATOM     22  O   LIG A   1     -11.978   6.279 128.881  0.00  0.00    -0.422 OA
BRANCH  22  23
ATOM     23  C   LIG A   1     -11.862   7.104 127.763  0.00  0.00    +0.309 C 
ATOM     24  C   LIG A   1     -11.983   8.537 128.193  0.00  0.00    +0.136 C 
ATOM     25  O   LIG A   1     -11.735   6.754 126.597  0.00  0.00    -0.251 OA
ENDBRANCH  22  23
ENDBRANCH  17  22
ENDBRANCH   7  14
BRANCH  10  26
ATOM     26  O   LIG A   1      -6.994   1.151 131.423  0.00  0.00    -0.506 OA
ATOM     27  H   LIG A   1      -7.720   1.030 130.769  0.00  0.00    +0.292 HD
ENDBRANCH  10  26
BRANCH  13  28
ATOM     28  O   LIG A   1      -3.577   3.812 129.264  0.00  0.00    -0.425 OA
BRANCH  28  29
ATOM     29  C   LIG A   1      -3.434   4.106 127.899  0.00  0.00    +0.309 C 
ATOM     30  C   LIG A   1      -2.274   3.304 127.373  0.00  0.00    +0.136 C 
ATOM     31  O   LIG A   1      -4.088   4.895 127.251  0.00  0.00    -0.251 OA
ENDBRANCH  28  29
ENDBRANCH  13  28
TORSDOF 7
ENDMDL
MODEL 4
REMARK VINA RESULT:      -7.5      3.419      6.726
REMARK  Name = NuBBE_2003
REMARK  12 active torsions:
REMARK  status: ('A' for Active; 'I' for Inactive)
REMARK    1  A    between atoms: C_1  and  C_2
REMARK    2  A    between atoms: C_7  and  C_9
REMARK    3  A    between atoms: C_12  and  O_13
REMARK    4  A    between atoms: O_13  and  C_14
REMARK    5  A    between atoms: C_14  and  C_15
REMARK    6  A    between atoms: C_17  and  O_18
REMARK    7  A    between atoms: O_18  and  C_19
REMARK    8  A    between atoms: C_23  and  O_24
REMARK    9  A    between atoms: C_25  and  C_26
REMARK   10  A    between atoms: C_27  and  O_28
REMARK   11  A    between atoms: O_28  and  C_29
REMARK   12  A    between atoms: C_29  and  C_30
REMARK                            x       y       z     vdW  Elec       q    Type
REMARK                         _______ _______ _______ _____ _____    ______ ____
ROOT
ATOM      1  C   LIG A   1      -3.843   2.526 128.500  0.00  0.00    +0.051 C 
ATOM      2  C   LIG A   1      -5.178   3.225 128.472  0.00  0.00    +0.035 A 
ATOM      3  C   LIG A   1      -5.802   3.530 127.248  0.00  0.00    +0.142 A 
ATOM      4  C   LIG A   1      -7.032   4.188 127.229  0.00  0.00    +0.101 A 
ATOM      5  C   LIG A   1      -7.598   4.586 125.925  0.00  0.00    +0.174 C 
ATOM      6  C   LIG A   1      -6.827   4.202 124.696  0.00  0.00    +0.129 C 
ATOM      7  C   LIG A   1      -6.074   2.906 124.967  0.00  0.00    +0.211 C 
ATOM      8  O   LIG A   1      -5.184   3.106 126.092  0.00  0.00    -0.483 OA
ATOM      9  O   LIG A   1      -8.618   5.270 125.879  0.00  0.00    -0.292 OA
ATOM     10  C   LIG A   1      -7.703   4.465 128.427  0.00  0.00    +0.137 A 
ATOM     11  C   LIG A   1      -7.154   4.110 129.669  0.00  0.00    +0.034 A 
ATOM     12  C   LIG A   1      -7.928   4.409 130.923  0.00  0.00    +0.051 C 
ATOM     13  C   LIG A   1      -5.872   3.521 129.672  0.00  0.00    +0.144 A 
ENDROOT
BRANCH   7  14
ATOM     14  C   LIG A   1      -6.953   1.656 125.079  0.00  0.00    -0.003 A 
ATOM     15  C   LIG A   1      -6.517   0.525 125.783  0.00  0.00    +0.011 A 
ATOM     16  C   LIG A   1      -7.330  -0.612 125.886  0.00  0.00    +0.050 A 
ATOM     17  C   LIG A   1      -8.586  -0.634 125.273  0.00  0.00    +0.173 A 
ATOM     18  C   LIG A   1      -9.028   0.463 124.528  0.00  0.00    +0.163 A 
ATOM     19  C   LIG A   1      -8.233   1.608 124.501  0.00  0.00    +0.056 A 
BRANCH  18  20
ATOM     20  O   LIG A   1     -10.245   0.387 123.900  0.00  0.00    -0.491 OA
ATOM     21  C   LIG A   1     -10.205   0.484 122.471  0.00  0.00    +0.277 C 
ENDBRANCH  18  20
BRANCH  17  22
ATOM     22  O   LIG A   1      -9.444  -1.758 125.335  0.00  0.00    -0.422 OA
BRANCH  22  23
ATOM     23  C   LIG A   1      -9.047  -3.018 124.889  0.00  0.00    +0.309 C 
ATOM     24  C   LIG A   1      -9.431  -3.175 123.447  0.00  0.00    +0.136 C 
ATOM     25  O   LIG A   1      -8.518  -3.902 125.550  0.00  0.00    -0.251 OA
ENDBRANCH  22  23
ENDBRANCH  17  22
ENDBRANCH   7  14
BRANCH  10  26
ATOM     26  O   LIG A   1      -8.915   5.112 128.426  0.00  0.00    -0.506 OA
ATOM     27  H   LIG A   1      -9.343   4.984 127.549  0.00  0.00    +0.292 HD
ENDBRANCH  10  26
BRANCH  13  28
ATOM     28  O   LIG A   1      -5.090   3.429 130.867  0.00  0.00    -0.425 OA
BRANCH  28  29
ATOM     29  C   LIG A   1      -4.284   4.411 131.461  0.00  0.00    +0.309 C 
ATOM     30  C   LIG A   1      -3.133   3.715 132.138  0.00  0.00    +0.136 C 
ATOM     31  O   LIG A   1      -4.483   5.607 131.476  0.00  0.00    -0.251 OA
ENDBRANCH  28  29
ENDBRANCH  13  28
TORSDOF 7
ENDMDL
MODEL 5
REMARK VINA RESULT:      -7.4      3.241      6.505
REMARK  Name = NuBBE_2003
REMARK  12 active torsions:
REMARK  status: ('A' for Active; 'I' for Inactive)
REMARK    1  A    between atoms: C_1  and  C_2
REMARK    2  A    between atoms: C_7  and  C_9
REMARK    3  A    between atoms: C_12  and  O_13
REMARK    4  A    between atoms: O_13  and  C_14
REMARK    5  A    between atoms: C_14  and  C_15
REMARK    6  A    between atoms: C_17  and  O_18
REMARK    7  A    between atoms: O_18  and  C_19
REMARK    8  A    between atoms: C_23  and  O_24
REMARK    9  A    between atoms: C_25  and  C_26
REMARK   10  A    between atoms: C_27  and  O_28
REMARK   11  A    between atoms: O_28  and  C_29
REMARK   12  A    between atoms: C_29  and  C_30
REMARK                            x       y       z     vdW  Elec       q    Type
REMARK                         _______ _______ _______ _____ _____    ______ ____
ROOT
ATOM      1  C   LIG A   1      -5.172   1.508 130.501  0.00  0.00    +0.051 C 
ATOM      2  C   LIG A   1      -6.069   2.458 129.749  0.00  0.00    +0.035 A 
ATOM      3  C   LIG A   1      -5.706   2.930 128.474  0.00  0.00    +0.142 A 
ATOM      4  C   LIG A   1      -6.536   3.818 127.789  0.00  0.00    +0.101 A 
ATOM      5  C   LIG A   1      -6.066   4.372 126.504  0.00  0.00    +0.174 C 
ATOM      6  C   LIG A   1      -4.739   3.895 125.994  0.00  0.00    +0.129 C 
ATOM      7  C   LIG A   1      -4.510   2.465 126.470  0.00  0.00    +0.211 C 
ATOM      8  O   LIG A   1      -4.545   2.439 127.917  0.00  0.00    -0.483 OA
ATOM      9  O   LIG A   1      -6.717   5.246 125.935  0.00  0.00    -0.292 OA
ATOM     10  C   LIG A   1      -7.783   4.173 128.321  0.00  0.00    +0.137 A 
ATOM     11  C   LIG A   1      -8.219   3.666 129.555  0.00  0.00    +0.034 A 
ATOM     12  C   LIG A   1      -9.577   4.061 130.068  0.00  0.00    +0.051 C 
ATOM     13  C   LIG A   1      -7.331   2.836 130.271  0.00  0.00    +0.144 A 
ENDROOT
BRANCH   7  14
ATOM     14  C   LIG A   1      -5.398   1.410 125.802  0.00  0.00    -0.003 A 
ATOM     15  C   LIG A   1      -5.286   0.053 126.136  0.00  0.00    +0.011 A 
ATOM     16  C   LIG A   1      -6.107  -0.905 125.526  0.00  0.00    +0.050 A 
ATOM     17  C   LIG A   1      -7.043  -0.517 124.563  0.00  0.00    +0.173 A 
ATOM     18  C   LIG A   1      -7.145   0.823 124.179  0.00  0.00    +0.163 A 
ATOM     19  C   LIG A   1      -6.369   1.766 124.852  0.00  0.00    +0.056 A 
BRANCH  18  20
ATOM     20  O   LIG A   1      -8.041   1.161 123.196  0.00  0.00    -0.491 OA
ATOM     21  C   LIG A   1      -9.189   1.894 123.638  0.00  0.00    +0.277 C 
ENDBRANCH  18  20
BRANCH  17  22
ATOM     22  O   LIG A   1      -7.889  -1.441 123.907  0.00  0.00    -0.422 OA
BRANCH  22  23
ATOM     23  C   LIG A   1      -8.988  -2.019 124.541  0.00  0.00    +0.309 C 
ATOM     24  C   LIG A   1      -9.363  -3.283 123.825  0.00  0.00    +0.136 C 
ATOM     25  O   LIG A   1      -9.608  -1.571 125.497  0.00  0.00    -0.251 OA
ENDBRANCH  22  23
ENDBRANCH  17  22
ENDBRANCH   7  14
BRANCH  10  26
ATOM     26  O   LIG A   1      -8.612   5.046 127.659  0.00  0.00    -0.506 OA
ATOM     27  H   LIG A   1      -8.774   5.828 128.233  0.00  0.00    +0.292 HD
ENDBRANCH  10  26
BRANCH  13  28
ATOM     28  O   LIG A   1      -7.531   2.542 131.657  0.00  0.00    -0.425 OA
BRANCH  28  29
ATOM     29  C   LIG A   1      -8.587   1.841 132.258  0.00  0.00    +0.309 C 
ATOM     30  C   LIG A   1      -8.716   0.514 131.559  0.00  0.00    +0.136 C 
ATOM     31  O   LIG A   1      -9.307   2.231 133.153  0.00  0.00    -0.251 OA
ENDBRANCH  28  29
ENDBRANCH  13  28
TORSDOF 7
ENDMDL
MODEL 6
REMARK VINA RESULT:      -7.3      5.125      8.308
REMARK  Name = NuBBE_2003
REMARK  12 active torsions:
REMARK  status: ('A' for Active; 'I' for Inactive)
REMARK    1  A    between atoms: C_1  and  C_2
REMARK    2  A    between atoms: C_7  and  C_9
REMARK    3  A    between atoms: C_12  and  O_13
REMARK    4  A    between atoms: O_13  and  C_14
REMARK    5  A    between atoms: C_14  and  C_15
REMARK    6  A    between atoms: C_17  and  O_18
REMARK    7  A    between atoms: O_18  and  C_19
REMARK    8  A    between atoms: C_23  and  O_24
REMARK    9  A    between atoms: C_25  and  C_26
REMARK   10  A    between atoms: C_27  and  O_28
REMARK   11  A    between atoms: O_28  and  C_29
REMARK   12  A    between atoms: C_29  and  C_30
REMARK                            x       y       z     vdW  Elec       q    Type
REMARK                         _______ _______ _______ _____ _____    ______ ____
ROOT
ATOM      1  C   LIG A   1      -6.197  -0.192 126.091  0.00  0.00    +0.051 C 
ATOM      2  C   LIG A   1      -6.631  -1.005 127.285  0.00  0.00    +0.035 A 
ATOM      3  C   LIG A   1      -6.250  -0.629 128.586  0.00  0.00    +0.142 A 
ATOM      4  C   LIG A   1      -6.647  -1.393 129.684  0.00  0.00    +0.101 A 
ATOM      5  C   LIG A   1      -6.135  -1.025 131.019  0.00  0.00    +0.174 C 
ATOM      6  C   LIG A   1      -5.259   0.189 131.108  0.00  0.00    +0.129 C 
ATOM      7  C   LIG A   1      -5.667   1.177 130.022  0.00  0.00    +0.211 C 
ATOM      8  O   LIG A   1      -5.532   0.538 128.730  0.00  0.00    -0.483 OA
ATOM      9  O   LIG A   1      -6.367  -1.746 131.987  0.00  0.00    -0.292 OA
ATOM     10  C   LIG A   1      -7.506  -2.486 129.511  0.00  0.00    +0.137 A 
ATOM     11  C   LIG A   1      -7.973  -2.852 128.238  0.00  0.00    +0.034 A 
ATOM     12  C   LIG A   1      -8.913  -4.018 128.112  0.00  0.00    +0.051 C 
ATOM     13  C   LIG A   1      -7.495  -2.118 127.132  0.00  0.00    +0.144 A 
ENDROOT
BRANCH   7  14
ATOM     14  C   LIG A   1      -7.021   1.861 130.244  0.00  0.00    -0.003 A 
ATOM     15  C   LIG A   1      -7.716   2.452 129.180  0.00  0.00    +0.011 A 
ATOM     16  C   LIG A   1      -8.957   3.070 129.390  0.00  0.00    +0.050 A 
ATOM     17  C   LIG A   1      -9.510   3.114 130.672  0.00  0.00    +0.173 A 
ATOM     18  C   LIG A   1      -8.819   2.571 131.759  0.00  0.00    +0.163 A 
ATOM     19  C   LIG A   1      -7.622   1.899 131.513  0.00  0.00    +0.056 A 
BRANCH  18  20
ATOM     20  O   LIG A   1      -9.370   2.676 133.011  0.00  0.00    -0.491 OA
ATOM     21  C   LIG A   1      -8.749   3.634 133.876  0.00  0.00    +0.277 C 
ENDBRANCH  18  20
BRANCH  17  22
ATOM     22  O   LIG A   1     -10.753   3.733 130.944  0.00  0.00    -0.422 OA
BRANCH  22  23
ATOM     23  C   LIG A   1     -11.052   5.020 130.500  0.00  0.00    +0.309 C 
ATOM     24  C   LIG A   1     -10.419   6.020 131.421  0.00  0.00    +0.136 C 
ATOM     25  O   LIG A   1     -11.758   5.327 129.548  0.00  0.00    -0.251 OA
ENDBRANCH  22  23
ENDBRANCH  17  22
ENDBRANCH   7  14
BRANCH  10  26
ATOM     26  O   LIG A   1      -7.906  -3.248 130.582  0.00  0.00    -0.506 OA
ATOM     27  H   LIG A   1      -8.805  -2.961 130.859  0.00  0.00    +0.292 HD
ENDBRANCH  10  26
BRANCH  13  28
ATOM     28  O   LIG A   1      -7.635  -2.603 125.793  0.00  0.00    -0.425 OA
BRANCH  28  29
ATOM     29  C   LIG A   1      -8.729  -2.467 124.925  0.00  0.00    +0.309 C 
ATOM     30  C   LIG A   1      -8.408  -3.212 123.657  0.00  0.00    +0.136 C 
ATOM     31  O   LIG A   1      -9.743  -1.831 125.124  0.00  0.00    -0.251 OA
ENDBRANCH  28  29
ENDBRANCH  13  28
TORSDOF 7
ENDMDL
MODEL 7
REMARK VINA RESULT:      -7.3      5.254     10.350
REMARK  Name = NuBBE_2003
REMARK  12 active torsions:
REMARK  status: ('A' for Active; 'I' for Inactive)
REMARK    1  A    between atoms: C_1  and  C_2
REMARK    2  A    between atoms: C_7  and  C_9
REMARK    3  A    between atoms: C_12  and  O_13
REMARK    4  A    between atoms: O_13  and  C_14
REMARK    5  A    between atoms: C_14  and  C_15
REMARK    6  A    between atoms: C_17  and  O_18
REMARK    7  A    between atoms: O_18  and  C_19
REMARK    8  A    between atoms: C_23  and  O_24
REMARK    9  A    between atoms: C_25  and  C_26
REMARK   10  A    between atoms: C_27  and  O_28
REMARK   11  A    between atoms: O_28  and  C_29
REMARK   12  A    between atoms: C_29  and  C_30
REMARK                            x       y       z     vdW  Elec       q    Type
REMARK                         _______ _______ _______ _____ _____    ______ ____
ROOT
ATOM      1  C   LIG A   1      -8.880  -3.726 128.178  0.00  0.00    +0.051 C 
ATOM      2  C   LIG A   1      -7.853  -2.642 127.966  0.00  0.00    +0.035 A 
ATOM      3  C   LIG A   1      -7.517  -1.759 129.009  0.00  0.00    +0.142 A 
ATOM      4  C   LIG A   1      -6.575  -0.751 128.802  0.00  0.00    +0.101 A 
ATOM      5  C   LIG A   1      -6.332   0.219 129.889  0.00  0.00    +0.174 C 
ATOM      6  C   LIG A   1      -7.085   0.018 131.170  0.00  0.00    +0.129 C 
ATOM      7  C   LIG A   1      -7.344  -1.471 131.366  0.00  0.00    +0.211 C 
ATOM      8  O   LIG A   1      -8.105  -1.968 130.238  0.00  0.00    -0.483 OA
ATOM      9  O   LIG A   1      -5.599   1.187 129.697  0.00  0.00    -0.292 OA
ATOM     10  C   LIG A   1      -5.885  -0.668 127.586  0.00  0.00    +0.137 A 
ATOM     11  C   LIG A   1      -6.133  -1.576 126.544  0.00  0.00    +0.034 A 
ATOM     12  C   LIG A   1      -5.346  -1.456 125.268  0.00  0.00    +0.051 C 
ATOM     13  C   LIG A   1      -7.148  -2.535 126.742  0.00  0.00    +0.144 A 
ENDROOT
BRANCH   7  14
ATOM     14  C   LIG A   1      -6.104  -2.306 131.702  0.00  0.00    -0.003 A 
ATOM     15  C   LIG A   1      -6.176  -3.703 131.796  0.00  0.00    +0.011 A 
ATOM     16  C   LIG A   1      -5.036  -4.460 132.097  0.00  0.00    +0.050 A 
ATOM     17  C   LIG A   1      -3.811  -3.825 132.320  0.00  0.00    +0.173 A 
ATOM     18  C   LIG A   1      -3.720  -2.431 132.276  0.00  0.00    +0.163 A 
ATOM     19  C   LIG A   1      -4.850  -1.705 131.903  0.00  0.00    +0.056 A 
BRANCH  18  20
ATOM     20  O   LIG A   1      -2.512  -1.840 132.548  0.00  0.00    -0.491 OA
ATOM     21  C   LIG A   1      -2.479  -1.026 133.727  0.00  0.00    +0.277 C 
ENDBRANCH  18  20
BRANCH  17  22
ATOM     22  O   LIG A   1      -2.631  -4.538 132.638  0.00  0.00    -0.422 OA
BRANCH  22  23
ATOM     23  C   LIG A   1      -2.528  -5.330 133.781  0.00  0.00    +0.309 C 
ATOM     24  C   LIG A   1      -1.866  -4.540 134.871  0.00  0.00    +0.136 C 
ATOM     25  O   LIG A   1      -2.864  -6.501 133.900  0.00  0.00    -0.251 OA
ENDBRANCH  22  23
ENDBRANCH  17  22
ENDBRANCH   7  14
BRANCH  10  26
ATOM     26  O   LIG A   1      -4.954   0.318 127.367  0.00  0.00    -0.506 OA
ATOM     27  H   LIG A   1      -4.600   0.621 128.234  0.00  0.00    +0.292 HD
ENDBRANCH  10  26
BRANCH  13  28
ATOM     28  O   LIG A   1      -7.704  -3.275 125.650  0.00  0.00    -0.425 OA
BRANCH  28  29
ATOM     29  C   LIG A   1      -8.766  -2.920 124.806  0.00  0.00    +0.309 C 
ATOM     30  C   LIG A   1      -8.226  -2.810 123.405  0.00  0.00    +0.136 C 
ATOM     31  O   LIG A   1      -9.913  -2.695 125.131  0.00  0.00    -0.251 OA
ENDBRANCH  28  29
ENDBRANCH  13  28
TORSDOF 7
ENDMDL
MODEL 8
REMARK VINA RESULT:      -7.2      4.761      7.462
REMARK  Name = NuBBE_2003
REMARK  12 active torsions:
REMARK  status: ('A' for Active; 'I' for Inactive)
REMARK    1  A    between atoms: C_1  and  C_2
REMARK    2  A    between atoms: C_7  and  C_9
REMARK    3  A    between atoms: C_12  and  O_13
REMARK    4  A    between atoms: O_13  and  C_14
REMARK    5  A    between atoms: C_14  and  C_15
REMARK    6  A    between atoms: C_17  and  O_18
REMARK    7  A    between atoms: O_18  and  C_19
REMARK    8  A    between atoms: C_23  and  O_24
REMARK    9  A    between atoms: C_25  and  C_26
REMARK   10  A    between atoms: C_27  and  O_28
REMARK   11  A    between atoms: O_28  and  C_29
REMARK   12  A    between atoms: C_29  and  C_30
REMARK                            x       y       z     vdW  Elec       q    Type
REMARK                         _______ _______ _______ _____ _____    ______ ____
ROOT
ATOM      1  C   LIG A   1      -5.239  -0.037 125.945  0.00  0.00    +0.051 C 
ATOM      2  C   LIG A   1      -6.202  -0.991 126.605  0.00  0.00    +0.035 A 
ATOM      3  C   LIG A   1      -6.259  -1.098 128.007  0.00  0.00    +0.142 A 
ATOM      4  C   LIG A   1      -7.144  -1.991 128.610  0.00  0.00    +0.101 A 
ATOM      5  C   LIG A   1      -7.094  -2.149 130.078  0.00  0.00    +0.174 C 
ATOM      6  C   LIG A   1      -6.121  -1.289 130.828  0.00  0.00    +0.129 C 
ATOM      7  C   LIG A   1      -5.942   0.027 130.081  0.00  0.00    +0.211 C 
ATOM      8  O   LIG A   1      -5.458  -0.253 128.745  0.00  0.00    -0.483 OA
ATOM      9  O   LIG A   1      -7.775  -3.012 130.628  0.00  0.00    -0.292 OA
ATOM     10  C   LIG A   1      -8.052  -2.720 127.832  0.00  0.00    +0.137 A 
ATOM     11  C   LIG A   1      -8.083  -2.589 126.434  0.00  0.00    +0.034 A 
ATOM     12  C   LIG A   1      -9.094  -3.377 125.649  0.00  0.00    +0.051 C 
ATOM     13  C   LIG A   1      -7.125  -1.744 125.837  0.00  0.00    +0.144 A 
ENDROOT
BRANCH   7  14
ATOM     14  C   LIG A   1      -7.151   0.967 130.125  0.00  0.00    -0.003 A 
ATOM     15  C   LIG A   1      -8.102   0.875 131.150  0.00  0.00    +0.011 A 
ATOM     16  C   LIG A   1      -9.202   1.744 131.188  0.00  0.00    +0.050 A 
ATOM     17  C   LIG A   1      -9.368   2.708 130.190  0.00  0.00    +0.173 A 
ATOM     18  C   LIG A   1      -8.459   2.794 129.133  0.00  0.00    +0.163 A 
ATOM     19  C   LIG A   1      -7.335   1.968 129.156  0.00  0.00    +0.056 A 
BRANCH  18  20
ATOM     20  O   LIG A   1      -8.680   3.720 128.145  0.00  0.00    -0.491 OA
ATOM     21  C   LIG A   1      -7.596   3.912 127.229  0.00  0.00    +0.277 C 
ENDBRANCH  18  20
BRANCH  17  22
ATOM     22  O   LIG A   1     -10.464   3.603 130.171  0.00  0.00    -0.422 OA
BRANCH  22  23
ATOM     23  C   LIG A   1     -10.429   4.831 130.831  0.00  0.00    +0.309 C 
ATOM     24  C   LIG A   1     -11.601   5.659 130.393  0.00  0.00    +0.136 C 
ATOM     25  O   LIG A   1      -9.571   5.227 131.608  0.00  0.00    -0.251 OA
ENDBRANCH  22  23
ENDBRANCH  17  22
ENDBRANCH   7  14
BRANCH  10  26
ATOM     26  O   LIG A   1      -8.930  -3.604 128.411  0.00  0.00    -0.506 OA
ATOM     27  H   LIG A   1      -8.445  -4.425 128.649  0.00  0.00    +0.292 HD
ENDBRANCH  10  26
BRANCH  13  28
ATOM     28  O   LIG A   1      -6.852  -1.794 124.432  0.00  0.00    -0.425 OA
BRANCH  28  29
ATOM     29  C   LIG A   1      -6.028  -2.689 123.734  0.00  0.00    +0.309 C 
ATOM     30  C   LIG A   1      -5.872  -2.172 122.329  0.00  0.00    +0.136 C 
ATOM     31  O   LIG A   1      -5.552  -3.722 124.155  0.00  0.00    -0.251 OA
ENDBRANCH  28  29
ENDBRANCH  13  28
TORSDOF 7
ENDMDL
MODEL 9
REMARK VINA RESULT:      -7.1      3.645      7.123
REMARK  Name = NuBBE_2003
REMARK  12 active torsions:
REMARK  status: ('A' for Active; 'I' for Inactive)
REMARK    1  A    between atoms: C_1  and  C_2
REMARK    2  A    between atoms: C_7  and  C_9
REMARK    3  A    between atoms: C_12  and  O_13
REMARK    4  A    between atoms: O_13  and  C_14
REMARK    5  A    between atoms: C_14  and  C_15
REMARK    6  A    between atoms: C_17  and  O_18
REMARK    7  A    between atoms: O_18  and  C_19
REMARK    8  A    between atoms: C_23  and  O_24
REMARK    9  A    between atoms: C_25  and  C_26
REMARK   10  A    between atoms: C_27  and  O_28
REMARK   11  A    between atoms: O_28  and  C_29
REMARK   12  A    between atoms: C_29  and  C_30
REMARK                            x       y       z     vdW  Elec       q    Type
REMARK                         _______ _______ _______ _____ _____    ______ ____
ROOT
ATOM      1  C   LIG A   1      -4.852   2.254 130.608  0.00  0.00    +0.051 C 
ATOM      2  C   LIG A   1      -5.884   2.989 129.790  0.00  0.00    +0.035 A 
ATOM      3  C   LIG A   1      -5.641   3.296 128.439  0.00  0.00    +0.142 A 
ATOM      4  C   LIG A   1      -6.596   3.986 127.692  0.00  0.00    +0.101 A 
ATOM      5  C   LIG A   1      -6.256   4.383 126.310  0.00  0.00    +0.174 C 
ATOM      6  C   LIG A   1      -4.915   3.965 125.785  0.00  0.00    +0.129 C 
ATOM      7  C   LIG A   1      -4.511   2.652 126.445  0.00  0.00    +0.211 C 
ATOM      8  O   LIG A   1      -4.466   2.841 127.880  0.00  0.00    -0.483 OA
ATOM      9  O   LIG A   1      -7.026   5.094 125.668  0.00  0.00    -0.292 OA
ATOM     10  C   LIG A   1      -7.843   4.295 128.250  0.00  0.00    +0.137 A 
ATOM     11  C   LIG A   1      -8.156   3.940 129.572  0.00  0.00    +0.034 A 
ATOM     12  C   LIG A   1      -9.518   4.275 130.115  0.00  0.00    +0.051 C 
ATOM     13  C   LIG A   1      -7.149   3.317 130.338  0.00  0.00    +0.144 A 
ENDROOT
BRANCH   7  14
ATOM     14  C   LIG A   1      -5.317   1.427 126.000  0.00  0.00    -0.003 A 
ATOM     15  C   LIG A   1      -6.223   1.507 124.933  0.00  0.00    +0.011 A 
ATOM     16  C   LIG A   1      -6.951   0.380 124.527  0.00  0.00    +0.050 A 
ATOM     17  C   LIG A   1      -6.790  -0.838 125.193  0.00  0.00    +0.173 A 
ATOM     18  C   LIG A   1      -5.926  -0.934 126.287  0.00  0.00    +0.163 A 
ATOM     19  C   LIG A   1      -5.159   0.180 126.627  0.00  0.00    +0.056 A 
BRANCH  18  20
ATOM     20  O   LIG A   1      -5.829  -2.133 126.948  0.00  0.00    -0.491 OA
ATOM     21  C   LIG A   1      -6.502  -2.194 128.211  0.00  0.00    +0.277 C 
ENDBRANCH  18  20
BRANCH  17  22
ATOM     22  O   LIG A   1      -7.506  -2.004 124.834  0.00  0.00    -0.422 OA
BRANCH  22  23
ATOM     23  C   LIG A   1      -8.897  -2.020 124.742  0.00  0.00    +0.309 C 
ATOM     24  C   LIG A   1      -9.300  -2.736 123.487  0.00  0.00    +0.136 C 
ATOM     25  O   LIG A   1      -9.694  -1.499 125.512  0.00  0.00    -0.251 OA
ENDBRANCH  22  23
ENDBRANCH  17  22
ENDBRANCH   7  14
BRANCH  10  26
ATOM     26  O   LIG A   1      -8.793   4.974 127.528  0.00  0.00    -0.506 OA
ATOM     27  H   LIG A   1      -8.566   4.920 126.572  0.00  0.00    +0.292 HD
ENDBRANCH  10  26
BRANCH  13  28
ATOM     28  O   LIG A   1      -7.242   3.218 131.762  0.00  0.00    -0.425 OA
BRANCH  28  29
ATOM     29  C   LIG A   1      -7.984   2.306 132.528  0.00  0.00    +0.309 C 
ATOM     30  C   LIG A   1      -8.789   3.091 133.528  0.00  0.00    +0.136 C 
ATOM     31  O   LIG A   1      -7.963   1.096 132.444  0.00  0.00    -0.251 OA
ENDBRANCH  28  29
ENDBRANCH  13  28
TORSDOF 7
ENDMDL
