MODEL 1
REMARK VINA RESULT:      -7.8      0.000      0.000
REMARK  Name = NuBBE_1433
REMARK  4 active torsions:
REMARK  status: ('A' for Active; 'I' for Inactive)
REMARK    1  A    between atoms: C_1  and  C_2
REMARK    2  A    between atoms: C_2  and  C_4
REMARK    3  A    between atoms: C_16  and  O_17
REMARK    4  A    between atoms: O_17  and  C_18
REMARK                            x       y       z     vdW  Elec       q    Type
REMARK                         _______ _______ _______ _____ _____    ______ ____
ROOT
ATOM      1  C   LIG A   1      -4.890   5.226 129.913  0.00  0.00    +0.060 C 
ATOM      2  C   LIG A   1      -5.382   6.361 130.817  0.00  0.00    +0.124 C 
ATOM      3  O   LIG A   1      -6.692   6.725 130.351  0.00  0.00    -0.479 OA
ATOM      4  C   LIG A   1      -4.501   7.600 130.615  0.00  0.00    +0.060 C 
ATOM      5  C   LIG A   1      -5.302   5.926 132.260  0.00  0.00    +0.020 C 
ATOM      6  C   LIG A   1      -6.376   5.770 133.037  0.00  0.00    +0.011 C 
ATOM      7  C   LIG A   1      -7.683   6.030 132.456  0.00  0.00    +0.019 A 
ATOM      8  C   LIG A   1      -7.799   6.492 131.137  0.00  0.00    +0.155 A 
ATOM      9  C   LIG A   1      -9.046   6.765 130.548  0.00  0.00    +0.120 A 
ATOM     10  N   LIG A   1      -9.094   7.217 129.281  0.00  0.00    -0.208 NA
ATOM     11  C   LIG A   1     -10.314   7.482 128.802  0.00  0.00    +0.231 A 
ATOM     12  O   LIG A   1     -10.531   7.977 127.550  0.00  0.00    -0.445 OA
ATOM     13  C   LIG A   1     -11.871   8.141 127.407  0.00  0.00    +0.198 A 
ATOM     14  C   LIG A   1     -12.529   7.750 128.549  0.00  0.00    +0.055 A 
ATOM     15  C   LIG A   1     -11.526   7.312 129.454  0.00  0.00    +0.082 A 
ATOM     16  C   LIG A   1     -11.469   6.795 130.754  0.00  0.00    +0.142 A 
ATOM     17  C   LIG A   1     -10.206   6.544 131.334  0.00  0.00    +0.046 A 
ATOM     18  C   LIG A   1     -10.080   6.082 132.660  0.00  0.00    +0.014 A 
ATOM     19  C   LIG A   1      -8.832   5.828 133.216  0.00  0.00    +0.012 A 
ENDROOT
BRANCH  16  20
ATOM     20  O   LIG A   1     -12.618   6.613 131.499  0.00  0.00    -0.494 OA
ATOM     21  C   LIG A   1     -13.173   7.880 131.856  0.00  0.00    +0.277 C 
ENDBRANCH  16  20
TORSDOF 1
ENDMDL
MODEL 2
REMARK VINA RESULT:      -7.7      1.706      3.228
REMARK  Name = NuBBE_1433
REMARK  4 active torsions:
REMARK  status: ('A' for Active; 'I' for Inactive)
REMARK    1  A    between atoms: C_1  and  C_2
REMARK    2  A    between atoms: C_2  and  C_4
REMARK    3  A    between atoms: C_16  and  O_17
REMARK    4  A    between atoms: O_17  and  C_18
REMARK                            x       y       z     vdW  Elec       q    Type
REMARK                         _______ _______ _______ _____ _____    ______ ____
ROOT
ATOM      1  C   LIG A   1      -3.676   7.231 128.489  0.00  0.00    +0.060 C 
ATOM      2  C   LIG A   1      -3.943   7.958 129.811  0.00  0.00    +0.124 C 
ATOM      3  O   LIG A   1      -5.323   7.732 130.140  0.00  0.00    -0.479 OA
ATOM      4  C   LIG A   1      -3.797   9.471 129.607  0.00  0.00    +0.060 C 
ATOM      5  C   LIG A   1      -2.945   7.500 130.846  0.00  0.00    +0.020 C 
ATOM      6  C   LIG A   1      -3.288   6.825 131.945  0.00  0.00    +0.011 C 
ATOM      7  C   LIG A   1      -4.695   6.516 132.145  0.00  0.00    +0.019 A 
ATOM      8  C   LIG A   1      -5.662   6.973 131.237  0.00  0.00    +0.155 A 
ATOM      9  C   LIG A   1      -7.031   6.702 131.407  0.00  0.00    +0.120 A 
ATOM     10  N   LIG A   1      -7.914   7.177 130.508  0.00  0.00    -0.208 NA
ATOM     11  C   LIG A   1      -9.200   6.903 130.754  0.00  0.00    +0.231 A 
ATOM     12  O   LIG A   1     -10.219   7.340 129.959  0.00  0.00    -0.445 OA
ATOM     13  C   LIG A   1     -11.378   6.898 130.510  0.00  0.00    +0.198 A 
ATOM     14  C   LIG A   1     -11.124   6.172 131.650  0.00  0.00    +0.055 A 
ATOM     15  C   LIG A   1      -9.714   6.163 131.808  0.00  0.00    +0.082 A 
ATOM     16  C   LIG A   1      -8.783   5.632 132.710  0.00  0.00    +0.142 A 
ATOM     17  C   LIG A   1      -7.414   5.930 132.533  0.00  0.00    +0.046 A 
ATOM     18  C   LIG A   1      -6.436   5.478 133.441  0.00  0.00    +0.014 A 
ATOM     19  C   LIG A   1      -5.090   5.767 133.250  0.00  0.00    +0.012 A 
ENDROOT
BRANCH  16  20
ATOM     20  O   LIG A   1      -9.194   4.903 133.809  0.00  0.00    -0.494 OA
ATOM     21  C   LIG A   1      -9.306   3.521 133.464  0.00  0.00    +0.277 C 
ENDBRANCH  16  20
TORSDOF 1
ENDMDL
MODEL 3
REMARK VINA RESULT:      -7.4      2.084      5.738
REMARK  Name = NuBBE_1433
REMARK  4 active torsions:
REMARK  status: ('A' for Active; 'I' for Inactive)
REMARK    1  A    between atoms: C_1  and  C_2
REMARK    2  A    between atoms: C_2  and  C_4
REMARK    3  A    between atoms: C_16  and  O_17
REMARK    4  A    between atoms: O_17  and  C_18
REMARK                            x       y       z     vdW  Elec       q    Type
REMARK                         _______ _______ _______ _____ _____    ______ ____
ROOT
ATOM      1  C   LIG A   1     -12.142   8.824 128.421  0.00  0.00    +0.060 C 
ATOM      2  C   LIG A   1     -12.488   7.447 128.998  0.00  0.00    +0.124 C 
ATOM      3  O   LIG A   1     -11.312   6.632 128.861  0.00  0.00    -0.479 OA
ATOM      4  C   LIG A   1     -13.568   6.783 128.136  0.00  0.00    +0.060 C 
ATOM      5  C   LIG A   1     -13.007   7.609 130.406  0.00  0.00    +0.020 C 
ATOM      6  C   LIG A   1     -12.371   7.133 131.478  0.00  0.00    +0.011 C 
ATOM      7  C   LIG A   1     -11.115   6.430 131.272  0.00  0.00    +0.019 A 
ATOM      8  C   LIG A   1     -10.626   6.208 129.977  0.00  0.00    +0.155 A 
ATOM      9  C   LIG A   1      -9.422   5.522 129.742  0.00  0.00    +0.120 A 
ATOM     10  N   LIG A   1      -9.008   5.329 128.474  0.00  0.00    -0.208 NA
ATOM     11  C   LIG A   1      -7.870   4.643 128.331  0.00  0.00    +0.231 A 
ATOM     12  O   LIG A   1      -7.335   4.334 127.115  0.00  0.00    -0.445 OA
ATOM     13  C   LIG A   1      -6.200   3.624 127.342  0.00  0.00    +0.198 A 
ATOM     14  C   LIG A   1      -5.987   3.474 128.692  0.00  0.00    +0.055 A 
ATOM     15  C   LIG A   1      -7.060   4.140 129.339  0.00  0.00    +0.082 A 
ATOM     16  C   LIG A   1      -7.473   4.389 130.654  0.00  0.00    +0.142 A 
ATOM     17  C   LIG A   1      -8.694   5.064 130.869  0.00  0.00    +0.046 A 
ATOM     18  C   LIG A   1      -9.195   5.289 132.168  0.00  0.00    +0.014 A 
ATOM     19  C   LIG A   1     -10.393   5.966 132.368  0.00  0.00    +0.012 A 
ENDROOT
BRANCH  16  20
ATOM     20  O   LIG A   1      -6.751   3.908 131.729  0.00  0.00    -0.494 OA
ATOM     21  C   LIG A   1      -5.653   4.778 132.008  0.00  0.00    +0.277 C 
ENDBRANCH  16  20
TORSDOF 1
ENDMDL
MODEL 4
REMARK VINA RESULT:      -7.3      8.887      9.914
REMARK  Name = NuBBE_1433
REMARK  4 active torsions:
REMARK  status: ('A' for Active; 'I' for Inactive)
REMARK    1  A    between atoms: C_1  and  C_2
REMARK    2  A    between atoms: C_2  and  C_4
REMARK    3  A    between atoms: C_16  and  O_17
REMARK    4  A    between atoms: O_17  and  C_18
REMARK                            x       y       z     vdW  Elec       q    Type
REMARK                         _______ _______ _______ _____ _____    ______ ____
ROOT
ATOM      1  C   LIG A   1      -3.444  -2.631 129.675  0.00  0.00    +0.060 C 
ATOM      2  C   LIG A   1      -4.818  -2.096 130.091  0.00  0.00    +0.124 C 
ATOM      3  O   LIG A   1      -5.449  -1.600 128.899  0.00  0.00    -0.479 OA
ATOM      4  C   LIG A   1      -4.642  -0.884 131.013  0.00  0.00    +0.060 C 
ATOM      5  C   LIG A   1      -5.576  -3.173 130.827  0.00  0.00    +0.020 C 
ATOM      6  C   LIG A   1      -6.699  -3.725 130.363  0.00  0.00    +0.011 C 
ATOM      7  C   LIG A   1      -7.207  -3.264 129.082  0.00  0.00    +0.019 A 
ATOM      8  C   LIG A   1      -6.566  -2.225 128.392  0.00  0.00    +0.155 A 
ATOM      9  C   LIG A   1      -7.038  -1.747 127.157  0.00  0.00    +0.120 A 
ATOM     10  N   LIG A   1      -6.387  -0.738 126.547  0.00  0.00    -0.208 NA
ATOM     11  C   LIG A   1      -6.914  -0.319 125.391  0.00  0.00    +0.231 A 
ATOM     12  O   LIG A   1      -6.394   0.714 124.667  0.00  0.00    -0.445 OA
ATOM     13  C   LIG A   1      -7.183   0.877 123.574  0.00  0.00    +0.198 A 
ATOM     14  C   LIG A   1      -8.205  -0.042 123.575  0.00  0.00    +0.055 A 
ATOM     15  C   LIG A   1      -8.031  -0.827 124.745  0.00  0.00    +0.082 A 
ATOM     16  C   LIG A   1      -8.672  -1.908 125.363  0.00  0.00    +0.142 A 
ATOM     17  C   LIG A   1      -8.193  -2.362 126.611  0.00  0.00    +0.046 A 
ATOM     18  C   LIG A   1      -8.833  -3.404 127.313  0.00  0.00    +0.014 A 
ATOM     19  C   LIG A   1      -8.345  -3.851 128.536  0.00  0.00    +0.012 A 
ENDROOT
BRANCH  16  20
ATOM     20  O   LIG A   1      -9.809  -2.469 124.814  0.00  0.00    -0.494 OA
ATOM     21  C   LIG A   1      -9.453  -3.338 123.737  0.00  0.00    +0.277 C 
ENDBRANCH  16  20
TORSDOF 1
ENDMDL
MODEL 5
REMARK VINA RESULT:      -7.2      8.534      9.821
REMARK  Name = NuBBE_1433
REMARK  4 active torsions:
REMARK  status: ('A' for Active; 'I' for Inactive)
REMARK    1  A    between atoms: C_1  and  C_2
REMARK    2  A    between atoms: C_2  and  C_4
REMARK    3  A    between atoms: C_16  and  O_17
REMARK    4  A    between atoms: O_17  and  C_18
REMARK                            x       y       z     vdW  Elec       q    Type
REMARK                         _______ _______ _______ _____ _____    ______ ____
ROOT
ATOM      1  C   LIG A   1      -5.727  -2.885 129.510  0.00  0.00    +0.060 C 
ATOM      2  C   LIG A   1      -7.175  -2.401 129.376  0.00  0.00    +0.124 C 
ATOM      3  O   LIG A   1      -7.202  -1.468 128.283  0.00  0.00    -0.479 OA
ATOM      4  C   LIG A   1      -7.570  -1.603 130.625  0.00  0.00    +0.060 C 
ATOM      5  C   LIG A   1      -8.092  -3.591 129.237  0.00  0.00    +0.020 C 
ATOM      6  C   LIG A   1      -8.803  -3.842 128.136  0.00  0.00    +0.011 C 
ATOM      7  C   LIG A   1      -8.677  -2.922 127.017  0.00  0.00    +0.019 A 
ATOM      8  C   LIG A   1      -7.881  -1.773 127.125  0.00  0.00    +0.155 A 
ATOM      9  C   LIG A   1      -7.747  -0.857 126.067  0.00  0.00    +0.120 A 
ATOM     10  N   LIG A   1      -6.977   0.236 126.233  0.00  0.00    -0.208 NA
ATOM     11  C   LIG A   1      -6.924   1.075 125.193  0.00  0.00    +0.231 A 
ATOM     12  O   LIG A   1      -6.217   2.241 125.213  0.00  0.00    -0.445 OA
ATOM     13  C   LIG A   1      -6.399   2.843 124.010  0.00  0.00    +0.198 A 
ATOM     14  C   LIG A   1      -7.210   2.079 123.205  0.00  0.00    +0.055 A 
ATOM     15  C   LIG A   1      -7.546   0.926 123.962  0.00  0.00    +0.082 A 
ATOM     16  C   LIG A   1      -8.305  -0.237 123.783  0.00  0.00    +0.142 A 
ATOM     17  C   LIG A   1      -8.441  -1.136 124.862  0.00  0.00    +0.046 A 
ATOM     18  C   LIG A   1      -9.242  -2.293 124.765  0.00  0.00    +0.014 A 
ATOM     19  C   LIG A   1      -9.359  -3.177 125.831  0.00  0.00    +0.012 A 
ENDROOT
BRANCH  16  20
ATOM     20  O   LIG A   1      -8.986  -0.467 122.603  0.00  0.00    -0.494 OA
ATOM     21  C   LIG A   1     -10.153   0.355 122.545  0.00  0.00    +0.277 C 
ENDBRANCH  16  20
TORSDOF 1
ENDMDL
MODEL 6
REMARK VINA RESULT:      -7.2      9.449     11.144
REMARK  Name = NuBBE_1433
REMARK  4 active torsions:
REMARK  status: ('A' for Active; 'I' for Inactive)
REMARK    1  A    between atoms: C_1  and  C_2
REMARK    2  A    between atoms: C_2  and  C_4
REMARK    3  A    between atoms: C_16  and  O_17
REMARK    4  A    between atoms: O_17  and  C_18
REMARK                            x       y       z     vdW  Elec       q    Type
REMARK                         _______ _______ _______ _____ _____    ______ ____
ROOT
ATOM      1  C   LIG A   1      -6.715  -0.715 124.049  0.00  0.00    +0.060 C 
ATOM      2  C   LIG A   1      -6.636  -2.186 124.471  0.00  0.00    +0.124 C 
ATOM      3  O   LIG A   1      -6.134  -2.207 125.817  0.00  0.00    -0.479 OA
ATOM      4  C   LIG A   1      -5.591  -2.913 123.616  0.00  0.00    +0.060 C 
ATOM      5  C   LIG A   1      -7.982  -2.840 124.269  0.00  0.00    +0.020 C 
ATOM      6  C   LIG A   1      -8.726  -3.308 125.273  0.00  0.00    +0.011 C 
ATOM      7  C   LIG A   1      -8.209  -3.174 126.626  0.00  0.00    +0.019 A 
ATOM      8  C   LIG A   1      -6.939  -2.626 126.853  0.00  0.00    +0.155 A 
ATOM      9  C   LIG A   1      -6.404  -2.493 128.146  0.00  0.00    +0.120 A 
ATOM     10  N   LIG A   1      -5.173  -1.969 128.302  0.00  0.00    -0.208 NA
ATOM     11  C   LIG A   1      -4.723  -1.903 129.559  0.00  0.00    +0.231 A 
ATOM     12  O   LIG A   1      -3.484  -1.430 129.882  0.00  0.00    -0.445 OA
ATOM     13  C   LIG A   1      -3.357  -1.523 131.231  0.00  0.00    +0.198 A 
ATOM     14  C   LIG A   1      -4.500  -2.044 131.789  0.00  0.00    +0.055 A 
ATOM     15  C   LIG A   1      -5.393  -2.283 130.712  0.00  0.00    +0.082 A 
ATOM     16  C   LIG A   1      -6.691  -2.781 130.544  0.00  0.00    +0.142 A 
ATOM     17  C   LIG A   1      -7.203  -2.923 129.236  0.00  0.00    +0.046 A 
ATOM     18  C   LIG A   1      -8.478  -3.476 128.997  0.00  0.00    +0.014 A 
ATOM     19  C   LIG A   1      -8.977  -3.600 127.706  0.00  0.00    +0.012 A 
ENDROOT
BRANCH  16  20
ATOM     20  O   LIG A   1      -7.433  -3.212 131.626  0.00  0.00    -0.494 OA
ATOM     21  C   LIG A   1      -7.824  -2.095 132.427  0.00  0.00    +0.277 C 
ENDBRANCH  16  20
TORSDOF 1
ENDMDL
MODEL 7
REMARK VINA RESULT:      -6.9      7.944      9.658
REMARK  Name = NuBBE_1433
REMARK  4 active torsions:
REMARK  status: ('A' for Active; 'I' for Inactive)
REMARK    1  A    between atoms: C_1  and  C_2
REMARK    2  A    between atoms: C_2  and  C_4
REMARK    3  A    between atoms: C_16  and  O_17
REMARK    4  A    between atoms: O_17  and  C_18
REMARK                            x       y       z     vdW  Elec       q    Type
REMARK                         _______ _______ _______ _____ _____    ______ ____
ROOT
ATOM      1  C   LIG A   1      -5.796   3.889 127.445  0.00  0.00    +0.060 C 
ATOM      2  C   LIG A   1      -5.225   2.935 126.391  0.00  0.00    +0.124 C 
ATOM      3  O   LIG A   1      -5.820   1.648 126.629  0.00  0.00    -0.479 OA
ATOM      4  C   LIG A   1      -3.720   2.755 126.619  0.00  0.00    +0.060 C 
ATOM      5  C   LIG A   1      -5.453   3.512 125.015  0.00  0.00    +0.020 C 
ATOM      6  C   LIG A   1      -6.243   2.940 124.104  0.00  0.00    +0.011 C 
ATOM      7  C   LIG A   1      -6.919   1.704 124.465  0.00  0.00    +0.019 A 
ATOM      8  C   LIG A   1      -6.690   1.104 125.711  0.00  0.00    +0.155 A 
ATOM      9  C   LIG A   1      -7.317  -0.097 126.087  0.00  0.00    +0.120 A 
ATOM     10  N   LIG A   1      -7.049  -0.632 127.293  0.00  0.00    -0.208 NA
ATOM     11  C   LIG A   1      -7.661  -1.790 127.566  0.00  0.00    +0.231 A 
ATOM     12  O   LIG A   1      -7.470  -2.477 128.729  0.00  0.00    -0.445 OA
ATOM     13  C   LIG A   1      -8.225  -3.603 128.660  0.00  0.00    +0.198 A 
ATOM     14  C   LIG A   1      -8.910  -3.653 127.469  0.00  0.00    +0.055 A 
ATOM     15  C   LIG A   1      -8.557  -2.476 126.760  0.00  0.00    +0.082 A 
ATOM     16  C   LIG A   1      -8.866  -1.886 125.528  0.00  0.00    +0.142 A 
ATOM     17  C   LIG A   1      -8.213  -0.689 125.161  0.00  0.00    +0.046 A 
ATOM     18  C   LIG A   1      -8.434  -0.080 123.909  0.00  0.00    +0.014 A 
ATOM     19  C   LIG A   1      -7.794   1.105 123.564  0.00  0.00    +0.012 A 
ENDROOT
BRANCH  16  20
ATOM     20  O   LIG A   1      -9.727  -2.502 124.640  0.00  0.00    -0.494 OA
ATOM     21  C   LIG A   1      -9.015  -3.463 123.857  0.00  0.00    +0.277 C 
ENDBRANCH  16  20
TORSDOF 1
ENDMDL
MODEL 8
REMARK VINA RESULT:      -6.7      8.184     10.379
REMARK  Name = NuBBE_1433
REMARK  4 active torsions:
REMARK  status: ('A' for Active; 'I' for Inactive)
REMARK    1  A    between atoms: C_1  and  C_2
REMARK    2  A    between atoms: C_2  and  C_4
REMARK    3  A    between atoms: C_16  and  O_17
REMARK    4  A    between atoms: O_17  and  C_18
REMARK                            x       y       z     vdW  Elec       q    Type
REMARK                         _______ _______ _______ _____ _____    ______ ____
ROOT
ATOM      1  C   LIG A   1      -6.992  -3.936 124.403  0.00  0.00    +0.060 C 
ATOM      2  C   LIG A   1      -8.085  -2.987 124.906  0.00  0.00    +0.124 C 
ATOM      3  O   LIG A   1      -7.438  -1.751 125.250  0.00  0.00    -0.479 OA
ATOM      4  C   LIG A   1      -8.681  -3.532 126.210  0.00  0.00    +0.060 C 
ATOM      5  C   LIG A   1      -9.177  -2.883 123.868  0.00  0.00    +0.020 C 
ATOM      6  C   LIG A   1      -9.461  -1.753 123.217  0.00  0.00    +0.011 C 
ATOM      7  C   LIG A   1      -8.672  -0.571 123.524  0.00  0.00    +0.019 A 
ATOM      8  C   LIG A   1      -7.688  -0.609 124.522  0.00  0.00    +0.155 A 
ATOM      9  C   LIG A   1      -6.916   0.518 124.852  0.00  0.00    +0.120 A 
ATOM     10  N   LIG A   1      -5.993   0.424 125.828  0.00  0.00    -0.208 NA
ATOM     11  C   LIG A   1      -5.320   1.546 126.105  0.00  0.00    +0.231 A 
ATOM     12  O   LIG A   1      -4.377   1.626 127.087  0.00  0.00    -0.445 OA
ATOM     13  C   LIG A   1      -3.917   2.903 127.101  0.00  0.00    +0.198 A 
ATOM     14  C   LIG A   1      -4.545   3.653 126.136  0.00  0.00    +0.055 A 
ATOM     15  C   LIG A   1      -5.449   2.777 125.479  0.00  0.00    +0.082 A 
ATOM     16  C   LIG A   1      -6.377   2.852 124.433  0.00  0.00    +0.142 A 
ATOM     17  C   LIG A   1      -7.155   1.714 124.128  0.00  0.00    +0.046 A 
ATOM     18  C   LIG A   1      -8.148   1.744 123.129  0.00  0.00    +0.014 A 
ATOM     19  C   LIG A   1      -8.900   0.613 122.829  0.00  0.00    +0.012 A 
ENDROOT
BRANCH  16  20
ATOM     20  O   LIG A   1      -6.600   4.040 123.763  0.00  0.00    -0.494 OA
ATOM     21  C   LIG A   1      -5.592   4.237 122.770  0.00  0.00    +0.277 C 
ENDBRANCH  16  20
TORSDOF 1
ENDMDL
MODEL 9
REMARK VINA RESULT:      -6.6      2.162      2.438
REMARK  Name = NuBBE_1433
REMARK  4 active torsions:
REMARK  status: ('A' for Active; 'I' for Inactive)
REMARK    1  A    between atoms: C_1  and  C_2
REMARK    2  A    between atoms: C_2  and  C_4
REMARK    3  A    between atoms: C_16  and  O_17
REMARK    4  A    between atoms: O_17  and  C_18
REMARK                            x       y       z     vdW  Elec       q    Type
REMARK                         _______ _______ _______ _____ _____    ______ ____
ROOT
ATOM      1  C   LIG A   1      -7.282   1.303 129.342  0.00  0.00    +0.060 C 
ATOM      2  C   LIG A   1      -6.710   2.540 130.044  0.00  0.00    +0.124 C 
ATOM      3  O   LIG A   1      -7.528   3.655 129.655  0.00  0.00    -0.479 OA
ATOM      4  C   LIG A   1      -5.305   2.835 129.504  0.00  0.00    +0.060 C 
ATOM      5  C   LIG A   1      -6.626   2.281 131.529  0.00  0.00    +0.020 C 
ATOM      6  C   LIG A   1      -7.344   2.955 132.430  0.00  0.00    +0.011 C 
ATOM      7  C   LIG A   1      -8.253   3.983 131.949  0.00  0.00    +0.019 A 
ATOM      8  C   LIG A   1      -8.319   4.295 130.583  0.00  0.00    +0.155 A 
ATOM      9  C   LIG A   1      -9.177   5.291 130.086  0.00  0.00    +0.120 A 
ATOM     10  N   LIG A   1      -9.188   5.554 128.765  0.00  0.00    -0.208 NA
ATOM     11  C   LIG A   1     -10.009   6.535 128.374  0.00  0.00    +0.231 A 
ATOM     12  O   LIG A   1     -10.112   6.946 127.077  0.00  0.00    -0.445 OA
ATOM     13  C   LIG A   1     -11.014   7.960 127.046  0.00  0.00    +0.198 A 
ATOM     14  C   LIG A   1     -11.503   8.209 128.306  0.00  0.00    +0.055 A 
ATOM     15  C   LIG A   1     -10.863   7.282 129.170  0.00  0.00    +0.082 A 
ATOM     16  C   LIG A   1     -10.880   6.968 130.534  0.00  0.00    +0.142 A 
ATOM     17  C   LIG A   1      -9.998   5.976 131.017  0.00  0.00    +0.046 A 
ATOM     18  C   LIG A   1      -9.923   5.658 132.388  0.00  0.00    +0.014 A 
ATOM     19  C   LIG A   1      -9.059   4.672 132.850  0.00  0.00    +0.012 A 
ENDROOT
BRANCH  16  20
ATOM     20  O   LIG A   1     -11.677   7.671 131.417  0.00  0.00    -0.494 OA
ATOM     21  C   LIG A   1     -13.049   7.331 131.214  0.00  0.00    +0.277 C 
ENDBRANCH  16  20
TORSDOF 1
ENDMDL
