MODEL 1
REMARK VINA RESULT:      -7.3      0.000      0.000
REMARK  Name = NuBBE_2440
REMARK  11 active torsions:
REMARK  status: ('A' for Active; 'I' for Inactive)
REMARK    1  A    between atoms: C_1  and  C_2
REMARK    2  A    between atoms: C_1  and  C_6
REMARK    3  A    between atoms: C_3  and  C_4
REMARK    4  A    between atoms: C_3  and  C_5
REMARK    5  A    between atoms: C_9  and  O_19
REMARK    6  A    between atoms: C_10  and  O_17
REMARK    7  A    between atoms: C_11  and  C_12
REMARK    8  A    between atoms: C_12  and  C_13
REMARK    9  A    between atoms: C_14  and  C_15
REMARK   10  A    between atoms: C_14  and  C_16
REMARK   11  A    between atoms: O_17  and  C_18
REMARK                            x       y       z     vdW  Elec       q    Type
REMARK                         _______ _______ _______ _____ _____    ______ ____
ROOT
ATOM      1  C   LIG A   1      -7.325   1.890 123.686  0.00  0.00    -0.026 A 
ATOM      2  C   LIG A   1      -6.541   2.844 122.979  0.00  0.00    +0.025 A 
ATOM      3  C   LIG A   1      -6.283   4.075 123.576  0.00  0.00    +0.184 A 
ATOM      4  C   LIG A   1      -6.809   4.441 124.810  0.00  0.00    +0.203 A 
ATOM      5  C   LIG A   1      -7.670   3.572 125.487  0.00  0.00    +0.169 A 
ATOM      6  C   LIG A   1      -7.923   2.272 124.942  0.00  0.00    +0.006 A 
ATOM      7  O   LIG A   1      -5.476   5.046 122.950  0.00  0.00    -0.418 OA
ATOM      8  C   LIG A   1      -4.953   4.873 121.683  0.00  0.00    +0.337 A 
ATOM      9  O   LIG A   1      -4.282   5.736 121.118  0.00  0.00    -0.245 OA
ATOM     10  C   LIG A   1      -5.250   3.598 121.042  0.00  0.00    +0.092 A 
ATOM     11  C   LIG A   1      -5.991   2.647 121.632  0.00  0.00    +0.019 A 
ENDROOT
BRANCH   5  12
ATOM     12  O   LIG A   1      -8.318   3.865 126.665  0.00  0.00    -0.491 OA
ATOM     13  C   LIG A   1      -7.567   3.865 127.876  0.00  0.00    +0.277 C 
ENDBRANCH   5  12
BRANCH   4  14
ATOM     14  O   LIG A   1      -6.449   5.670 125.302  0.00  0.00    -0.501 OA
ATOM     15  H   LIG A   1      -5.498   5.789 125.117  0.00  0.00    +0.292 HD
ENDBRANCH   4  14
BRANCH   1  16
ATOM     16  C   LIG A   1      -7.571   0.508 123.077  0.00  0.00    +0.063 C 
BRANCH  16  17
ATOM     17  C   LIG A   1      -6.550  -0.557 123.425  0.00  0.00    -0.024 C 
ATOM     18  C   LIG A   1      -6.696  -1.880 123.201  0.00  0.00    -0.079 C 
ATOM     19  C   LIG A   1      -7.954  -2.511 122.668  0.00  0.00    +0.038 C 
ATOM     20  C   LIG A   1      -5.570  -2.850 123.449  0.00  0.00    +0.038 C 
ENDBRANCH  16  17
ENDBRANCH   1  16
BRANCH   6  21
ATOM     21  C   LIG A   1      -8.838   1.315 125.724  0.00  0.00    +0.066 C 
BRANCH  21  22
ATOM     22  C   LIG A   1      -8.111   0.329 126.616  0.00  0.00    -0.023 C 
ATOM     23  C   LIG A   1      -8.243  -1.014 126.704  0.00  0.00    -0.079 C 
ATOM     24  C   LIG A   1      -9.223  -1.855 125.932  0.00  0.00    +0.038 C 
ATOM     25  C   LIG A   1      -7.353  -1.820 127.622  0.00  0.00    +0.038 C 
ENDBRANCH  21  22
ENDBRANCH   6  21
TORSDOF 6
ENDMDL
MODEL 2
REMARK VINA RESULT:      -6.9      2.810      4.615
REMARK  Name = NuBBE_2440
REMARK  11 active torsions:
REMARK  status: ('A' for Active; 'I' for Inactive)
REMARK    1  A    between atoms: C_1  and  C_2
REMARK    2  A    between atoms: C_1  and  C_6
REMARK    3  A    between atoms: C_3  and  C_4
REMARK    4  A    between atoms: C_3  and  C_5
REMARK    5  A    between atoms: C_9  and  O_19
REMARK    6  A    between atoms: C_10  and  O_17
REMARK    7  A    between atoms: C_11  and  C_12
REMARK    8  A    between atoms: C_12  and  C_13
REMARK    9  A    between atoms: C_14  and  C_15
REMARK   10  A    between atoms: C_14  and  C_16
REMARK   11  A    between atoms: O_17  and  C_18
REMARK                            x       y       z     vdW  Elec       q    Type
REMARK                         _______ _______ _______ _____ _____    ______ ____
ROOT
ATOM      1  C   LIG A   1      -6.221   3.854 125.115  0.00  0.00    -0.026 A 
ATOM      2  C   LIG A   1      -6.284   3.859 123.694  0.00  0.00    +0.025 A 
ATOM      3  C   LIG A   1      -7.396   3.299 123.070  0.00  0.00    +0.184 A 
ATOM      4  C   LIG A   1      -8.424   2.678 123.772  0.00  0.00    +0.203 A 
ATOM      5  C   LIG A   1      -8.346   2.559 125.163  0.00  0.00    +0.169 A 
ATOM      6  C   LIG A   1      -7.250   3.167 125.857  0.00  0.00    +0.006 A 
ATOM      7  O   LIG A   1      -7.544   3.312 121.668  0.00  0.00    -0.418 OA
ATOM      8  C   LIG A   1      -6.570   3.810 120.824  0.00  0.00    +0.337 A 
ATOM      9  O   LIG A   1      -6.678   3.785 119.598  0.00  0.00    -0.245 OA
ATOM     10  C   LIG A   1      -5.390   4.366 121.474  0.00  0.00    +0.092 A 
ATOM     11  C   LIG A   1      -5.242   4.392 122.808  0.00  0.00    +0.019 A 
ENDROOT
BRANCH   5  12
ATOM     12  O   LIG A   1      -9.254   1.887 125.948  0.00  0.00    -0.491 OA
ATOM     13  C   LIG A   1      -9.249   0.462 125.930  0.00  0.00    +0.277 C 
ENDBRANCH   5  12
BRANCH   4  14
ATOM     14  O   LIG A   1      -9.479   2.197 123.039  0.00  0.00    -0.501 OA
ATOM     15  H   LIG A   1      -9.167   2.084 122.121  0.00  0.00    +0.292 HD
ENDBRANCH   4  14
BRANCH   1  16
ATOM     16  C   LIG A   1      -5.039   4.518 125.824  0.00  0.00    +0.063 C 
BRANCH  16  17
ATOM     17  C   LIG A   1      -3.763   3.704 125.881  0.00  0.00    -0.024 C 
ATOM     18  C   LIG A   1      -2.771   3.871 126.782  0.00  0.00    -0.079 C 
ATOM     19  C   LIG A   1      -2.736   4.976 127.802  0.00  0.00    +0.038 C 
ATOM     20  C   LIG A   1      -1.602   2.922 126.851  0.00  0.00    +0.038 C 
ENDBRANCH  16  17
ENDBRANCH   1  16
BRANCH   6  21
ATOM     21  C   LIG A   1      -7.206   3.064 127.391  0.00  0.00    +0.066 C 
BRANCH  21  22
ATOM     22  C   LIG A   1      -6.257   2.013 127.929  0.00  0.00    -0.023 C 
ATOM     23  C   LIG A   1      -5.409   2.075 128.981  0.00  0.00    -0.079 C 
ATOM     24  C   LIG A   1      -5.180   3.276 129.858  0.00  0.00    +0.038 C 
ATOM     25  C   LIG A   1      -4.596   0.868 129.392  0.00  0.00    +0.038 C 
ENDBRANCH  21  22
ENDBRANCH   6  21
TORSDOF 6
ENDMDL
MODEL 3
REMARK VINA RESULT:      -6.9      2.896      4.836
REMARK  Name = NuBBE_2440
REMARK  11 active torsions:
REMARK  status: ('A' for Active; 'I' for Inactive)
REMARK    1  A    between atoms: C_1  and  C_2
REMARK    2  A    between atoms: C_1  and  C_6
REMARK    3  A    between atoms: C_3  and  C_4
REMARK    4  A    between atoms: C_3  and  C_5
REMARK    5  A    between atoms: C_9  and  O_19
REMARK    6  A    between atoms: C_10  and  O_17
REMARK    7  A    between atoms: C_11  and  C_12
REMARK    8  A    between atoms: C_12  and  C_13
REMARK    9  A    between atoms: C_14  and  C_15
REMARK   10  A    between atoms: C_14  and  C_16
REMARK   11  A    between atoms: O_17  and  C_18
REMARK                            x       y       z     vdW  Elec       q    Type
REMARK                         _______ _______ _______ _____ _____    ______ ____
ROOT
ATOM      1  C   LIG A   1      -6.749   0.141 124.897  0.00  0.00    -0.026 A 
ATOM      2  C   LIG A   1      -7.211   1.147 124.003  0.00  0.00    +0.025 A 
ATOM      3  C   LIG A   1      -8.448   0.977 123.385  0.00  0.00    +0.184 A 
ATOM      4  C   LIG A   1      -9.227  -0.162 123.553  0.00  0.00    +0.203 A 
ATOM      5  C   LIG A   1      -8.757  -1.219 124.340  0.00  0.00    +0.169 A 
ATOM      6  C   LIG A   1      -7.517  -1.071 125.041  0.00  0.00    +0.006 A 
ATOM      7  O   LIG A   1      -8.986   1.956 122.525  0.00  0.00    -0.418 OA
ATOM      8  C   LIG A   1      -8.296   3.104 122.184  0.00  0.00    +0.337 A 
ATOM      9  O   LIG A   1      -8.747   3.941 121.401  0.00  0.00    -0.245 OA
ATOM     10  C   LIG A   1      -6.988   3.267 122.804  0.00  0.00    +0.092 A 
ATOM     11  C   LIG A   1      -6.469   2.362 123.649  0.00  0.00    +0.019 A 
ENDROOT
BRANCH   5  12
ATOM     12  O   LIG A   1      -9.398  -2.426 124.501  0.00  0.00    -0.491 OA
ATOM     13  C   LIG A   1      -9.410  -3.343 123.411  0.00  0.00    +0.277 C 
ENDBRANCH   5  12
BRANCH   4  14
ATOM     14  O   LIG A   1     -10.440  -0.189 122.914  0.00  0.00    -0.501 OA
ATOM     15  H   LIG A   1     -10.676  -1.127 122.778  0.00  0.00    +0.292 HD
ENDBRANCH   4  14
BRANCH   1  16
ATOM     16  C   LIG A   1      -5.422   0.333 125.635  0.00  0.00    +0.063 C 
BRANCH  16  17
ATOM     17  C   LIG A   1      -5.508   1.045 126.970  0.00  0.00    -0.024 C 
ATOM     18  C   LIG A   1      -4.884   2.203 127.277  0.00  0.00    -0.079 C 
ATOM     19  C   LIG A   1      -3.911   2.903 126.368  0.00  0.00    +0.038 C 
ATOM     20  C   LIG A   1      -5.140   2.913 128.581  0.00  0.00    +0.038 C 
ENDBRANCH  16  17
ENDBRANCH   1  16
BRANCH   6  21
ATOM     21  C   LIG A   1      -7.040  -2.228 125.936  0.00  0.00    +0.066 C 
BRANCH  21  22
ATOM     22  C   LIG A   1      -7.311  -2.039 127.415  0.00  0.00    -0.023 C 
ATOM     23  C   LIG A   1      -8.072  -2.778 128.253  0.00  0.00    -0.079 C 
ATOM     24  C   LIG A   1      -8.893  -3.980 127.868  0.00  0.00    +0.038 C 
ATOM     25  C   LIG A   1      -8.145  -2.448 129.726  0.00  0.00    +0.038 C 
ENDBRANCH  21  22
ENDBRANCH   6  21
TORSDOF 6
ENDMDL
MODEL 4
REMARK VINA RESULT:      -6.6      2.586      5.384
REMARK  Name = NuBBE_2440
REMARK  11 active torsions:
REMARK  status: ('A' for Active; 'I' for Inactive)
REMARK    1  A    between atoms: C_1  and  C_2
REMARK    2  A    between atoms: C_1  and  C_6
REMARK    3  A    between atoms: C_3  and  C_4
REMARK    4  A    between atoms: C_3  and  C_5
REMARK    5  A    between atoms: C_9  and  O_19
REMARK    6  A    between atoms: C_10  and  O_17
REMARK    7  A    between atoms: C_11  and  C_12
REMARK    8  A    between atoms: C_12  and  C_13
REMARK    9  A    between atoms: C_14  and  C_15
REMARK   10  A    between atoms: C_14  and  C_16
REMARK   11  A    between atoms: O_17  and  C_18
REMARK                            x       y       z     vdW  Elec       q    Type
REMARK                         _______ _______ _______ _____ _____    ______ ____
ROOT
ATOM      1  C   LIG A   1      -7.398   0.270 126.690  0.00  0.00    -0.026 A 
ATOM      2  C   LIG A   1      -7.701   1.320 127.600  0.00  0.00    +0.025 A 
ATOM      3  C   LIG A   1      -8.151   2.537 127.094  0.00  0.00    +0.184 A 
ATOM      4  C   LIG A   1      -8.258   2.796 125.732  0.00  0.00    +0.203 A 
ATOM      5  C   LIG A   1      -7.868   1.824 124.804  0.00  0.00    +0.169 A 
ATOM      6  C   LIG A   1      -7.451   0.537 125.273  0.00  0.00    +0.006 A 
ATOM      7  O   LIG A   1      -8.513   3.603 127.942  0.00  0.00    -0.418 OA
ATOM      8  C   LIG A   1      -8.377   3.538 129.315  0.00  0.00    +0.337 A 
ATOM      9  O   LIG A   1      -8.654   4.482 130.055  0.00  0.00    -0.245 OA
ATOM     10  C   LIG A   1      -7.875   2.276 129.845  0.00  0.00    +0.092 A 
ATOM     11  C   LIG A   1      -7.553   1.238 129.058  0.00  0.00    +0.019 A 
ENDROOT
BRANCH   5  12
ATOM     12  O   LIG A   1      -7.844   2.002 123.440  0.00  0.00    -0.491 OA
ATOM     13  C   LIG A   1      -9.083   2.134 122.748  0.00  0.00    +0.277 C 
ENDBRANCH   5  12
BRANCH   4  14
ATOM     14  O   LIG A   1      -8.746   4.024 125.366  0.00  0.00    -0.501 OA
ATOM     15  H   LIG A   1      -8.367   4.682 125.980  0.00  0.00    +0.292 HD
ENDBRANCH   4  14
BRANCH   1  16
ATOM     16  C   LIG A   1      -6.961  -1.096 127.225  0.00  0.00    +0.063 C 
BRANCH  16  17
ATOM     17  C   LIG A   1      -8.042  -2.156 127.285  0.00  0.00    -0.024 C 
ATOM     18  C   LIG A   1      -8.139  -3.118 128.227  0.00  0.00    -0.079 C 
ATOM     19  C   LIG A   1      -7.113  -3.350 129.303  0.00  0.00    +0.038 C 
ATOM     20  C   LIG A   1      -9.327  -4.043 128.289  0.00  0.00    +0.038 C 
ENDBRANCH  16  17
ENDBRANCH   1  16
BRANCH   6  21
ATOM     21  C   LIG A   1      -7.068  -0.532 124.236  0.00  0.00    +0.066 C 
BRANCH  21  22
ATOM     22  C   LIG A   1      -8.216  -1.405 123.771  0.00  0.00    -0.023 C 
ATOM     23  C   LIG A   1      -8.344  -2.751 123.805  0.00  0.00    -0.079 C 
ATOM     24  C   LIG A   1      -7.303  -3.723 124.292  0.00  0.00    +0.038 C 
ATOM     25  C   LIG A   1      -9.622  -3.418 123.350  0.00  0.00    +0.038 C 
ENDBRANCH  21  22
ENDBRANCH   6  21
TORSDOF 6
ENDMDL
MODEL 5
REMARK VINA RESULT:      -6.6      3.544      6.235
REMARK  Name = NuBBE_2440
REMARK  11 active torsions:
REMARK  status: ('A' for Active; 'I' for Inactive)
REMARK    1  A    between atoms: C_1  and  C_2
REMARK    2  A    between atoms: C_1  and  C_6
REMARK    3  A    between atoms: C_3  and  C_4
REMARK    4  A    between atoms: C_3  and  C_5
REMARK    5  A    between atoms: C_9  and  O_19
REMARK    6  A    between atoms: C_10  and  O_17
REMARK    7  A    between atoms: C_11  and  C_12
REMARK    8  A    between atoms: C_12  and  C_13
REMARK    9  A    between atoms: C_14  and  C_15
REMARK   10  A    between atoms: C_14  and  C_16
REMARK   11  A    between atoms: O_17  and  C_18
REMARK                            x       y       z     vdW  Elec       q    Type
REMARK                         _______ _______ _______ _____ _____    ______ ____
ROOT
ATOM      1  C   LIG A   1      -7.740  -1.040 127.846  0.00  0.00    -0.026 A 
ATOM      2  C   LIG A   1      -8.273  -1.674 126.689  0.00  0.00    +0.025 A 
ATOM      3  C   LIG A   1      -8.777  -0.880 125.662  0.00  0.00    +0.184 A 
ATOM      4  C   LIG A   1      -8.841   0.507 125.741  0.00  0.00    +0.203 A 
ATOM      5  C   LIG A   1      -8.424   1.160 126.905  0.00  0.00    +0.169 A 
ATOM      6  C   LIG A   1      -7.847   0.393 127.968  0.00  0.00    +0.006 A 
ATOM      7  O   LIG A   1      -9.278  -1.442 124.470  0.00  0.00    -0.418 OA
ATOM      8  C   LIG A   1      -9.369  -2.806 124.274  0.00  0.00    +0.337 A 
ATOM      9  O   LIG A   1      -9.843  -3.299 123.250  0.00  0.00    -0.245 OA
ATOM     10  C   LIG A   1      -8.873  -3.640 125.362  0.00  0.00    +0.092 A 
ATOM     11  C   LIG A   1      -8.364  -3.126 126.493  0.00  0.00    +0.019 A 
ENDROOT
BRANCH   5  12
ATOM     12  O   LIG A   1      -8.526   2.513 127.129  0.00  0.00    -0.491 OA
ATOM     13  C   LIG A   1      -7.594   3.382 126.489  0.00  0.00    +0.277 C 
ENDBRANCH   5  12
BRANCH   4  14
ATOM     14  O   LIG A   1      -9.328   1.173 124.645  0.00  0.00    -0.501 OA
ATOM     15  H   LIG A   1      -8.590   1.272 124.014  0.00  0.00    +0.292 HD
ENDBRANCH   4  14
BRANCH   1  16
ATOM     16  C   LIG A   1      -7.124  -1.890 128.961  0.00  0.00    +0.063 C 
BRANCH  16  17
ATOM     17  C   LIG A   1      -5.649  -2.202 128.813  0.00  0.00    -0.024 C 
ATOM     18  C   LIG A   1      -5.012  -3.246 129.386  0.00  0.00    -0.079 C 
ATOM     19  C   LIG A   1      -5.657  -4.198 130.356  0.00  0.00    +0.038 C 
ATOM     20  C   LIG A   1      -3.573  -3.560 129.069  0.00  0.00    +0.038 C 
ENDBRANCH  16  17
ENDBRANCH   1  16
BRANCH   6  21
ATOM     21  C   LIG A   1      -7.353   1.134 129.222  0.00  0.00    +0.066 C 
BRANCH  21  22
ATOM     22  C   LIG A   1      -8.451   1.608 130.153  0.00  0.00    -0.023 C 
ATOM     23  C   LIG A   1      -8.920   1.047 131.290  0.00  0.00    -0.079 C 
ATOM     24  C   LIG A   1      -8.462  -0.259 131.881  0.00  0.00    +0.038 C 
ATOM     25  C   LIG A   1      -9.985   1.736 132.111  0.00  0.00    +0.038 C 
ENDBRANCH  21  22
ENDBRANCH   6  21
TORSDOF 6
ENDMDL
MODEL 6
REMARK VINA RESULT:      -6.5      3.276      5.776
REMARK  Name = NuBBE_2440
REMARK  11 active torsions:
REMARK  status: ('A' for Active; 'I' for Inactive)
REMARK    1  A    between atoms: C_1  and  C_2
REMARK    2  A    between atoms: C_1  and  C_6
REMARK    3  A    between atoms: C_3  and  C_4
REMARK    4  A    between atoms: C_3  and  C_5
REMARK    5  A    between atoms: C_9  and  O_19
REMARK    6  A    between atoms: C_10  and  O_17
REMARK    7  A    between atoms: C_11  and  C_12
REMARK    8  A    between atoms: C_12  and  C_13
REMARK    9  A    between atoms: C_14  and  C_15
REMARK   10  A    between atoms: C_14  and  C_16
REMARK   11  A    between atoms: O_17  and  C_18
REMARK                            x       y       z     vdW  Elec       q    Type
REMARK                         _______ _______ _______ _____ _____    ______ ____
ROOT
ATOM      1  C   LIG A   1      -8.257  -1.153 126.625  0.00  0.00    -0.026 A 
ATOM      2  C   LIG A   1      -8.216   0.127 127.245  0.00  0.00    +0.025 A 
ATOM      3  C   LIG A   1      -8.521   1.251 126.483  0.00  0.00    +0.184 A 
ATOM      4  C   LIG A   1      -8.805   1.188 125.123  0.00  0.00    +0.203 A 
ATOM      5  C   LIG A   1      -8.751  -0.039 124.455  0.00  0.00    +0.169 A 
ATOM      6  C   LIG A   1      -8.496  -1.233 125.205  0.00  0.00    +0.006 A 
ATOM      7  O   LIG A   1      -8.544   2.544 127.046  0.00  0.00    -0.418 OA
ATOM      8  C   LIG A   1      -8.196   2.787 128.361  0.00  0.00    +0.337 A 
ATOM      9  O   LIG A   1      -8.176   3.919 128.844  0.00  0.00    -0.245 OA
ATOM     10  C   LIG A   1      -7.844   1.614 129.152  0.00  0.00    +0.092 A 
ATOM     11  C   LIG A   1      -7.845   0.372 128.645  0.00  0.00    +0.019 A 
ENDROOT
BRANCH   5  12
ATOM     12  O   LIG A   1      -8.923  -0.207 123.100  0.00  0.00    -0.491 OA
ATOM     13  C   LIG A   1     -10.162   0.187 122.516  0.00  0.00    +0.277 C 
ENDBRANCH   5  12
BRANCH   4  14
ATOM     14  O   LIG A   1      -9.123   2.366 124.496  0.00  0.00    -0.501 OA
ATOM     15  H   LIG A   1      -8.372   2.977 124.629  0.00  0.00    +0.292 HD
ENDBRANCH   4  14
BRANCH   1  16
ATOM     16  C   LIG A   1      -7.986  -2.408 127.457  0.00  0.00    +0.063 C 
BRANCH  16  17
ATOM     17  C   LIG A   1      -6.557  -2.592 127.927  0.00  0.00    -0.024 C 
ATOM     18  C   LIG A   1      -6.188  -2.980 129.166  0.00  0.00    -0.079 C 
ATOM     19  C   LIG A   1      -7.147  -3.182 130.308  0.00  0.00    +0.038 C 
ATOM     20  C   LIG A   1      -4.749  -3.274 129.503  0.00  0.00    +0.038 C 
ENDBRANCH  16  17
ENDBRANCH   1  16
BRANCH   6  21
ATOM     21  C   LIG A   1      -8.486  -2.578 124.460  0.00  0.00    +0.066 C 
BRANCH  21  22
ATOM     22  C   LIG A   1      -7.129  -3.247 124.376  0.00  0.00    -0.023 C 
ATOM     23  C   LIG A   1      -6.081  -2.974 123.566  0.00  0.00    -0.079 C 
ATOM     24  C   LIG A   1      -6.052  -1.925 122.487  0.00  0.00    +0.038 C 
ATOM     25  C   LIG A   1      -4.779  -3.729 123.704  0.00  0.00    +0.038 C 
ENDBRANCH  21  22
ENDBRANCH   6  21
TORSDOF 6
ENDMDL
MODEL 7
REMARK VINA RESULT:      -6.3      7.873      9.919
REMARK  Name = NuBBE_2440
REMARK  11 active torsions:
REMARK  status: ('A' for Active; 'I' for Inactive)
REMARK    1  A    between atoms: C_1  and  C_2
REMARK    2  A    between atoms: C_1  and  C_6
REMARK    3  A    between atoms: C_3  and  C_4
REMARK    4  A    between atoms: C_3  and  C_5
REMARK    5  A    between atoms: C_9  and  O_19
REMARK    6  A    between atoms: C_10  and  O_17
REMARK    7  A    between atoms: C_11  and  C_12
REMARK    8  A    between atoms: C_12  and  C_13
REMARK    9  A    between atoms: C_14  and  C_15
REMARK   10  A    between atoms: C_14  and  C_16
REMARK   11  A    between atoms: O_17  and  C_18
REMARK                            x       y       z     vdW  Elec       q    Type
REMARK                         _______ _______ _______ _____ _____    ______ ____
ROOT
ATOM      1  C   LIG A   1      -6.806   5.243 133.067  0.00  0.00    -0.026 A 
ATOM      2  C   LIG A   1      -6.057   6.116 132.229  0.00  0.00    +0.025 A 
ATOM      3  C   LIG A   1      -6.725   6.833 131.240  0.00  0.00    +0.184 A 
ATOM      4  C   LIG A   1      -8.086   6.689 130.990  0.00  0.00    +0.203 A 
ATOM      5  C   LIG A   1      -8.835   5.762 131.722  0.00  0.00    +0.169 A 
ATOM      6  C   LIG A   1      -8.207   5.040 132.787  0.00  0.00    +0.006 A 
ATOM      7  O   LIG A   1      -6.051   7.749 130.407  0.00  0.00    -0.418 OA
ATOM      8  C   LIG A   1      -4.684   7.940 130.466  0.00  0.00    +0.337 A 
ATOM      9  O   LIG A   1      -4.088   8.709 129.713  0.00  0.00    -0.245 OA
ATOM     10  C   LIG A   1      -3.978   7.165 131.480  0.00  0.00    +0.092 A 
ATOM     11  C   LIG A   1      -4.604   6.310 132.303  0.00  0.00    +0.019 A 
ENDROOT
BRANCH   5  12
ATOM     12  O   LIG A   1     -10.161   5.471 131.500  0.00  0.00    -0.491 OA
ATOM     13  C   LIG A   1     -11.148   6.389 131.963  0.00  0.00    +0.277 C 
ENDBRANCH   5  12
BRANCH   4  14
ATOM     14  O   LIG A   1      -8.628   7.479 130.009  0.00  0.00    -0.501 OA
ATOM     15  H   LIG A   1      -9.044   8.245 130.450  0.00  0.00    +0.292 HD
ENDBRANCH   4  14
BRANCH   1  16
ATOM     16  C   LIG A   1      -6.105   4.491 134.200  0.00  0.00    +0.063 C 
BRANCH  16  17
ATOM     17  C   LIG A   1      -6.589   4.809 135.600  0.00  0.00    -0.024 C 
ATOM     18  C   LIG A   1      -6.161   5.842 136.357  0.00  0.00    -0.079 C 
ATOM     19  C   LIG A   1      -5.047   6.772 135.962  0.00  0.00    +0.038 C 
ATOM     20  C   LIG A   1      -6.802   6.165 137.683  0.00  0.00    +0.038 C 
ENDBRANCH  16  17
ENDBRANCH   1  16
BRANCH   6  21
ATOM     21  C   LIG A   1      -9.059   4.058 133.609  0.00  0.00    +0.066 C 
BRANCH  21  22
ATOM     22  C   LIG A   1      -9.452   2.791 132.877  0.00  0.00    -0.023 C 
ATOM     23  C   LIG A   1      -8.710   1.700 132.583  0.00  0.00    -0.079 C 
ATOM     24  C   LIG A   1      -7.249   1.518 132.895  0.00  0.00    +0.038 C 
ATOM     25  C   LIG A   1      -9.331   0.503 131.900  0.00  0.00    +0.038 C 
ENDBRANCH  21  22
ENDBRANCH   6  21
TORSDOF 6
ENDMDL
MODEL 8
REMARK VINA RESULT:      -6.3      3.077      6.779
REMARK  Name = NuBBE_2440
REMARK  11 active torsions:
REMARK  status: ('A' for Active; 'I' for Inactive)
REMARK    1  A    between atoms: C_1  and  C_2
REMARK    2  A    between atoms: C_1  and  C_6
REMARK    3  A    between atoms: C_3  and  C_4
REMARK    4  A    between atoms: C_3  and  C_5
REMARK    5  A    between atoms: C_9  and  O_19
REMARK    6  A    between atoms: C_10  and  O_17
REMARK    7  A    between atoms: C_11  and  C_12
REMARK    8  A    between atoms: C_12  and  C_13
REMARK    9  A    between atoms: C_14  and  C_15
REMARK   10  A    between atoms: C_14  and  C_16
REMARK   11  A    between atoms: O_17  and  C_18
REMARK                            x       y       z     vdW  Elec       q    Type
REMARK                         _______ _______ _______ _____ _____    ______ ____
ROOT
ATOM      1  C   LIG A   1      -7.408  -0.918 128.235  0.00  0.00    -0.026 A 
ATOM      2  C   LIG A   1      -7.725  -0.313 129.483  0.00  0.00    +0.025 A 
ATOM      3  C   LIG A   1      -8.243   0.979 129.490  0.00  0.00    +0.184 A 
ATOM      4  C   LIG A   1      -8.409   1.733 128.333  0.00  0.00    +0.203 A 
ATOM      5  C   LIG A   1      -8.010   1.212 127.097  0.00  0.00    +0.169 A 
ATOM      6  C   LIG A   1      -7.522  -0.133 127.031  0.00  0.00    +0.006 A 
ATOM      7  O   LIG A   1      -8.621   1.619 130.687  0.00  0.00    -0.418 OA
ATOM      8  C   LIG A   1      -8.435   1.041 131.928  0.00  0.00    +0.337 A 
ATOM      9  O   LIG A   1      -8.727   1.615 132.978  0.00  0.00    -0.245 OA
ATOM     10  C   LIG A   1      -7.862  -0.299 131.926  0.00  0.00    +0.092 A 
ATOM     11  C   LIG A   1      -7.522  -0.939 130.796  0.00  0.00    +0.019 A 
ENDROOT
BRANCH   5  12
ATOM     12  O   LIG A   1      -8.041   1.899 125.906  0.00  0.00    -0.491 OA
ATOM     13  C   LIG A   1      -7.045   2.889 125.663  0.00  0.00    +0.277 C 
ENDBRANCH   5  12
BRANCH   4  14
ATOM     14  O   LIG A   1      -8.962   2.980 128.473  0.00  0.00    -0.501 OA
ATOM     15  H   LIG A   1      -9.360   3.021 129.364  0.00  0.00    +0.292 HD
ENDBRANCH   4  14
BRANCH   1  16
ATOM     16  C   LIG A   1      -6.894  -2.359 128.199  0.00  0.00    +0.063 C 
BRANCH  16  17
ATOM     17  C   LIG A   1      -5.397  -2.530 128.357  0.00  0.00    -0.024 C 
ATOM     18  C   LIG A   1      -4.795  -3.318 129.273  0.00  0.00    -0.079 C 
ATOM     19  C   LIG A   1      -5.527  -4.064 130.355  0.00  0.00    +0.038 C 
ATOM     20  C   LIG A   1      -3.304  -3.537 129.264  0.00  0.00    +0.038 C 
ENDBRANCH  16  17
ENDBRANCH   1  16
BRANCH   6  21
ATOM     21  C   LIG A   1      -7.129  -0.703 125.656  0.00  0.00    +0.066 C 
BRANCH  21  22
ATOM     22  C   LIG A   1      -8.231  -1.461 124.946  0.00  0.00    -0.023 C 
ATOM     23  C   LIG A   1      -8.216  -2.702 124.409  0.00  0.00    -0.079 C 
ATOM     24  C   LIG A   1      -7.029  -3.625 124.358  0.00  0.00    +0.038 C 
ATOM     25  C   LIG A   1      -9.467  -3.299 123.804  0.00  0.00    +0.038 C 
ENDBRANCH  21  22
ENDBRANCH   6  21
TORSDOF 6
ENDMDL
MODEL 9
REMARK VINA RESULT:      -6.3      2.243      4.504
REMARK  Name = NuBBE_2440
REMARK  11 active torsions:
REMARK  status: ('A' for Active; 'I' for Inactive)
REMARK    1  A    between atoms: C_1  and  C_2
REMARK    2  A    between atoms: C_1  and  C_6
REMARK    3  A    between atoms: C_3  and  C_4
REMARK    4  A    between atoms: C_3  and  C_5
REMARK    5  A    between atoms: C_9  and  O_19
REMARK    6  A    between atoms: C_10  and  O_17
REMARK    7  A    between atoms: C_11  and  C_12
REMARK    8  A    between atoms: C_12  and  C_13
REMARK    9  A    between atoms: C_14  and  C_15
REMARK   10  A    between atoms: C_14  and  C_16
REMARK   11  A    between atoms: O_17  and  C_18
REMARK                            x       y       z     vdW  Elec       q    Type
REMARK                         _______ _______ _______ _____ _____    ______ ____
ROOT
ATOM      1  C   LIG A   1      -5.880   1.004 126.257  0.00  0.00    -0.026 A 
ATOM      2  C   LIG A   1      -5.413   2.304 126.597  0.00  0.00    +0.025 A 
ATOM      3  C   LIG A   1      -5.777   3.380 125.791  0.00  0.00    +0.184 A 
ATOM      4  C   LIG A   1      -6.528   3.234 124.629  0.00  0.00    +0.203 A 
ATOM      5  C   LIG A   1      -6.915   1.959 124.204  0.00  0.00    +0.169 A 
ATOM      6  C   LIG A   1      -6.613   0.826 125.027  0.00  0.00    +0.006 A 
ATOM      7  O   LIG A   1      -5.388   4.700 126.097  0.00  0.00    -0.418 OA
ATOM      8  C   LIG A   1      -4.565   5.002 127.165  0.00  0.00    +0.337 A 
ATOM      9  O   LIG A   1      -4.191   6.149 127.411  0.00  0.00    -0.245 OA
ATOM     10  C   LIG A   1      -4.156   3.873 127.991  0.00  0.00    +0.092 A 
ATOM     11  C   LIG A   1      -4.539   2.613 127.736  0.00  0.00    +0.019 A 
ENDROOT
BRANCH   5  12
ATOM     12  O   LIG A   1      -7.577   1.687 123.029  0.00  0.00    -0.491 OA
ATOM     13  C   LIG A   1      -8.959   2.023 122.932  0.00  0.00    +0.277 C 
ENDBRANCH   5  12
BRANCH   4  14
ATOM     14  O   LIG A   1      -6.847   4.378 123.944  0.00  0.00    -0.501 OA
ATOM     15  H   LIG A   1      -7.177   5.025 124.597  0.00  0.00    +0.292 HD
ENDBRANCH   4  14
BRANCH   1  16
ATOM     16  C   LIG A   1      -5.544  -0.184 127.161  0.00  0.00    +0.063 C 
BRANCH  16  17
ATOM     17  C   LIG A   1      -6.408  -0.336 128.396  0.00  0.00    -0.024 C 
ATOM     18  C   LIG A   1      -7.198  -1.398 128.668  0.00  0.00    -0.079 C 
ATOM     19  C   LIG A   1      -7.424  -2.545 127.722  0.00  0.00    +0.038 C 
ATOM     20  C   LIG A   1      -7.914  -1.529 129.988  0.00  0.00    +0.038 C 
ENDBRANCH  16  17
ENDBRANCH   1  16
BRANCH   6  21
ATOM     21  C   LIG A   1      -7.086  -0.563 124.564  0.00  0.00    +0.066 C 
BRANCH  21  22
ATOM     22  C   LIG A   1      -5.974  -1.520 124.187  0.00  0.00    -0.023 C 
ATOM     23  C   LIG A   1      -6.003  -2.865 124.052  0.00  0.00    -0.079 C 
ATOM     24  C   LIG A   1      -7.193  -3.750 124.304  0.00  0.00    +0.038 C 
ATOM     25  C   LIG A   1      -4.779  -3.622 123.590  0.00  0.00    +0.038 C 
ENDBRANCH  21  22
ENDBRANCH   6  21
TORSDOF 6
ENDMDL
