MODEL 1
REMARK VINA RESULT:      -7.5      0.000      0.000
REMARK  Name = NuBBE_2015
REMARK  11 active torsions:
REMARK  status: ('A' for Active; 'I' for Inactive)
REMARK    1  A    between atoms: C_3  and  O_5
REMARK    2  A    between atoms: O_5  and  C_6
REMARK    3  A    between atoms: C_8  and  C_9
REMARK    4  A    between atoms: C_9  and  C_10
REMARK    5  A    between atoms: C_12  and  C_14
REMARK    6  A    between atoms: C_15  and  C_17
REMARK    7  A    between atoms: C_26  and  O_33
REMARK    8  A    between atoms: C_27  and  O_29
REMARK    9  A    between atoms: O_29  and  C_30
REMARK   10  A    between atoms: C_30  and  C_31
REMARK   11  A    between atoms: O_33  and  C_34
REMARK                            x       y       z     vdW  Elec       q    Type
REMARK                         _______ _______ _______ _____ _____    ______ ____
ROOT
ATOM      1  O   LIG A   1      -8.734   2.136 127.581  0.00  0.00    -0.291 OA
ATOM      2  C   LIG A   1      -8.557   1.100 126.978  0.00  0.00    +0.198 C 
ATOM      3  C   LIG A   1      -9.554   0.618 125.896  0.00  0.00    +0.187 C 
ATOM      4  C   LIG A   1      -9.086  -0.629 125.109  0.00  0.00    +0.050 C 
ATOM      5  C   LIG A   1      -8.073  -1.604 125.799  0.00  0.00    +0.020 C 
ATOM      6  C   LIG A   1      -6.567  -1.256 125.520  0.00  0.00    +0.007 C 
ATOM      7  C   LIG A   1      -5.904  -1.446 124.163  0.00  0.00    +0.009 C 
ATOM      8  C   LIG A   1      -6.333   0.112 126.203  0.00  0.00    +0.066 C 
ATOM      9  C   LIG A   1      -7.418   0.132 127.352  0.00  0.00    +0.173 C 
ATOM     10  C   LIG A   1      -8.094  -1.308 127.365  0.00  0.00    +0.219 C 
ENDROOT
BRANCH   8  11
ATOM     11  C   LIG A   1      -6.178   1.380 125.338  0.00  0.00    -0.037 A 
ATOM     12  C   LIG A   1      -5.527   2.508 125.898  0.00  0.00    +0.008 A 
ATOM     13  C   LIG A   1      -5.274   3.674 125.149  0.00  0.00    +0.050 A 
ATOM     14  C   LIG A   1      -5.690   3.710 123.838  0.00  0.00    +0.166 A 
ATOM     15  O   LIG A   1      -5.524   4.730 122.954  0.00  0.00    -0.453 OA
ATOM     16  C   LIG A   1      -6.147   4.175 121.774  0.00  0.00    +0.466 C 
ATOM     17  O   LIG A   1      -6.662   2.845 121.975  0.00  0.00    -0.453 OA
ATOM     18  C   LIG A   1      -6.335   2.643 123.281  0.00  0.00    +0.167 A 
ATOM     19  C   LIG A   1      -6.587   1.488 123.997  0.00  0.00    +0.053 A 
ENDBRANCH   8  11
BRANCH   3  20
ATOM     20  O   LIG A   1      -9.954   1.609 124.954  0.00  0.00    -0.372 OA
ATOM     21  C   LIG A   1     -10.146   1.123 123.627  0.00  0.00    +0.195 C 
ENDBRANCH   3  20
BRANCH   9  22
ATOM     22  O   LIG A   1      -6.721   0.456 128.555  0.00  0.00    -0.365 OA
ATOM     23  C   LIG A   1      -5.343   0.116 128.601  0.00  0.00    +0.195 C 
ENDBRANCH   9  22
BRANCH   5  24
ATOM     24  C   LIG A   1      -8.415  -3.072 125.390  0.00  0.00    +0.037 C 
BRANCH  24  25
ATOM     25  C   LIG A   1      -9.394  -3.241 124.236  0.00  0.00    -0.034 C 
ATOM     26  C   LIG A   1      -9.122  -3.071 122.934  0.00  0.00    +0.004 C 
ENDBRANCH  24  25
ENDBRANCH   5  24
BRANCH  10  27
ATOM     27  O   LIG A   1      -7.355  -2.307 128.099  0.00  0.00    -0.490 OA
BRANCH  27  28
ATOM     28  C   LIG A   1      -7.903  -3.073 129.110  0.00  0.00    +0.088 C 
ATOM     29  C   LIG A   1      -9.074  -3.927 128.694  0.00  0.00    +0.085 C 
ATOM     30  C   LIG A   1      -7.540  -3.144 130.405  0.00  0.00    +0.052 C 
ENDBRANCH  27  28
ENDBRANCH  10  27
TORSDOF 7
ENDMDL
MODEL 2
REMARK VINA RESULT:      -6.9      5.895      8.165
REMARK  Name = NuBBE_2015
REMARK  11 active torsions:
REMARK  status: ('A' for Active; 'I' for Inactive)
REMARK    1  A    between atoms: C_3  and  O_5
REMARK    2  A    between atoms: O_5  and  C_6
REMARK    3  A    between atoms: C_8  and  C_9
REMARK    4  A    between atoms: C_9  and  C_10
REMARK    5  A    between atoms: C_12  and  C_14
REMARK    6  A    between atoms: C_15  and  C_17
REMARK    7  A    between atoms: C_26  and  O_33
REMARK    8  A    between atoms: C_27  and  O_29
REMARK    9  A    between atoms: O_29  and  C_30
REMARK   10  A    between atoms: C_30  and  C_31
REMARK   11  A    between atoms: O_33  and  C_34
REMARK                            x       y       z     vdW  Elec       q    Type
REMARK                         _______ _______ _______ _____ _____    ______ ____
ROOT
ATOM      1  O   LIG A   1      -9.584   2.596 131.266  0.00  0.00    -0.291 OA
ATOM      2  C   LIG A   1      -8.528   3.167 131.104  0.00  0.00    +0.198 C 
ATOM      3  C   LIG A   1      -7.831   3.195 129.722  0.00  0.00    +0.187 C 
ATOM      4  C   LIG A   1      -6.586   4.111 129.654  0.00  0.00    +0.050 C 
ATOM      5  C   LIG A   1      -5.809   4.405 130.982  0.00  0.00    +0.020 C 
ATOM      6  C   LIG A   1      -6.314   5.683 131.743  0.00  0.00    +0.007 C 
ATOM      7  C   LIG A   1      -6.086   7.100 131.236  0.00  0.00    +0.009 C 
ATOM      8  C   LIG A   1      -7.757   5.346 132.190  0.00  0.00    +0.066 C 
ATOM      9  C   LIG A   1      -7.746   3.769 132.287  0.00  0.00    +0.173 C 
ATOM     10  C   LIG A   1      -6.240   3.309 132.057  0.00  0.00    +0.219 C 
ENDROOT
BRANCH   8  11
ATOM     11  C   LIG A   1      -8.951   6.015 131.477  0.00  0.00    -0.037 A 
ATOM     12  C   LIG A   1     -10.223   5.972 132.102  0.00  0.00    +0.008 A 
ATOM     13  C   LIG A   1     -11.346   6.626 131.557  0.00  0.00    +0.050 A 
ATOM     14  C   LIG A   1     -11.191   7.313 130.375  0.00  0.00    +0.166 A 
ATOM     15  O   LIG A   1     -12.143   8.017 129.705  0.00  0.00    -0.453 OA
ATOM     16  C   LIG A   1     -11.383   8.502 128.577  0.00  0.00    +0.466 C 
ATOM     17  O   LIG A   1     -10.003   8.087 128.599  0.00  0.00    -0.453 OA
ATOM     18  C   LIG A   1      -9.980   7.354 129.746  0.00  0.00    +0.167 A 
ATOM     19  C   LIG A   1      -8.865   6.724 130.266  0.00  0.00    +0.053 A 
ENDBRANCH   8  11
BRANCH   3  20
ATOM     20  O   LIG A   1      -8.676   3.520 128.622  0.00  0.00    -0.372 OA
ATOM     21  C   LIG A   1      -8.030   4.227 127.565  0.00  0.00    +0.195 C 
ENDBRANCH   3  20
BRANCH   9  22
ATOM     22  O   LIG A   1      -8.260   3.445 133.579  0.00  0.00    -0.365 OA
ATOM     23  C   LIG A   1      -8.077   4.417 134.597  0.00  0.00    +0.195 C 
ENDBRANCH   9  22
BRANCH   5  24
ATOM     24  C   LIG A   1      -4.279   4.478 130.676  0.00  0.00    +0.037 C 
BRANCH  24  25
ATOM     25  C   LIG A   1      -3.775   3.596 129.542  0.00  0.00    -0.034 C 
ATOM     26  C   LIG A   1      -3.026   3.992 128.502  0.00  0.00    +0.004 C 
ENDBRANCH  24  25
ENDBRANCH   5  24
BRANCH  10  27
ATOM     27  O   LIG A   1      -5.410   3.374 133.237  0.00  0.00    -0.490 OA
BRANCH  27  28
ATOM     28  C   LIG A   1      -4.694   2.299 133.727  0.00  0.00    +0.088 C 
ATOM     29  C   LIG A   1      -5.444   1.435 134.709  0.00  0.00    +0.085 C 
ATOM     30  C   LIG A   1      -3.426   1.937 133.456  0.00  0.00    +0.052 C 
ENDBRANCH  27  28
ENDBRANCH  10  27
TORSDOF 7
ENDMDL
MODEL 3
REMARK VINA RESULT:      -6.9      2.409      4.290
REMARK  Name = NuBBE_2015
REMARK  11 active torsions:
REMARK  status: ('A' for Active; 'I' for Inactive)
REMARK    1  A    between atoms: C_3  and  O_5
REMARK    2  A    between atoms: O_5  and  C_6
REMARK    3  A    between atoms: C_8  and  C_9
REMARK    4  A    between atoms: C_9  and  C_10
REMARK    5  A    between atoms: C_12  and  C_14
REMARK    6  A    between atoms: C_15  and  C_17
REMARK    7  A    between atoms: C_26  and  O_33
REMARK    8  A    between atoms: C_27  and  O_29
REMARK    9  A    between atoms: O_29  and  C_30
REMARK   10  A    between atoms: C_30  and  C_31
REMARK   11  A    between atoms: O_33  and  C_34
REMARK                            x       y       z     vdW  Elec       q    Type
REMARK                         _______ _______ _______ _____ _____    ______ ____
ROOT
ATOM      1  O   LIG A   1      -5.603   0.279 128.722  0.00  0.00    -0.291 OA
ATOM      2  C   LIG A   1      -6.331   0.717 127.859  0.00  0.00    +0.198 C 
ATOM      3  C   LIG A   1      -7.541   1.619 128.207  0.00  0.00    +0.187 C 
ATOM      4  C   LIG A   1      -8.255   2.229 126.978  0.00  0.00    +0.050 C 
ATOM      5  C   LIG A   1      -8.146   1.477 125.608  0.00  0.00    +0.020 C 
ATOM      6  C   LIG A   1      -6.928   1.934 124.729  0.00  0.00    +0.007 C 
ATOM      7  C   LIG A   1      -6.856   3.293 124.046  0.00  0.00    +0.009 C 
ATOM      8  C   LIG A   1      -5.671   1.505 125.521  0.00  0.00    +0.066 C 
ATOM      9  C   LIG A   1      -6.187   0.288 126.386  0.00  0.00    +0.173 C 
ATOM     10  C   LIG A   1      -7.672  -0.016 125.903  0.00  0.00    +0.219 C 
ENDROOT
BRANCH   8  11
ATOM     11  C   LIG A   1      -4.812   2.575 126.226  0.00  0.00    -0.037 A 
ATOM     12  C   LIG A   1      -3.462   2.268 126.532  0.00  0.00    +0.008 A 
ATOM     13  C   LIG A   1      -2.589   3.216 127.101  0.00  0.00    +0.050 A 
ATOM     14  C   LIG A   1      -3.080   4.472 127.375  0.00  0.00    +0.166 A 
ATOM     15  O   LIG A   1      -2.395   5.522 127.904  0.00  0.00    -0.453 OA
ATOM     16  C   LIG A   1      -3.426   6.534 127.937  0.00  0.00    +0.466 C 
ATOM     17  O   LIG A   1      -4.692   6.073 127.426  0.00  0.00    -0.453 OA
ATOM     18  C   LIG A   1      -4.381   4.787 127.105  0.00  0.00    +0.167 A 
ATOM     19  C   LIG A   1      -5.251   3.873 126.542  0.00  0.00    +0.053 A 
ENDBRANCH   8  11
BRANCH   3  20
ATOM     20  O   LIG A   1      -7.268   2.673 129.125  0.00  0.00    -0.372 OA
ATOM     21  C   LIG A   1      -8.271   2.866 130.122  0.00  0.00    +0.195 C 
ENDBRANCH   3  20
BRANCH   9  22
ATOM     22  O   LIG A   1      -5.272  -0.784 126.156  0.00  0.00    -0.365 OA
ATOM     23  C   LIG A   1      -5.581  -2.025 126.771  0.00  0.00    +0.195 C 
ENDBRANCH   9  22
BRANCH   5  24
ATOM     24  C   LIG A   1      -9.500   1.611 124.840  0.00  0.00    +0.037 C 
BRANCH  24  25
ATOM     25  C   LIG A   1      -9.429   1.500 123.324  0.00  0.00    -0.034 C 
ATOM     26  C   LIG A   1     -10.167   0.687 122.553  0.00  0.00    +0.004 C 
ENDBRANCH  24  25
ENDBRANCH   5  24
BRANCH  10  27
ATOM     27  O   LIG A   1      -7.758  -0.839 124.720  0.00  0.00    -0.490 OA
BRANCH  27  28
ATOM     28  C   LIG A   1      -8.574  -1.949 124.619  0.00  0.00    +0.088 C 
ATOM     29  C   LIG A   1      -9.242  -2.363 125.905  0.00  0.00    +0.085 C 
ATOM     30  C   LIG A   1      -8.834  -2.708 123.537  0.00  0.00    +0.052 C 
ENDBRANCH  27  28
ENDBRANCH  10  27
TORSDOF 7
ENDMDL
MODEL 4
REMARK VINA RESULT:      -6.8      2.416      5.233
REMARK  Name = NuBBE_2015
REMARK  11 active torsions:
REMARK  status: ('A' for Active; 'I' for Inactive)
REMARK    1  A    between atoms: C_3  and  O_5
REMARK    2  A    between atoms: O_5  and  C_6
REMARK    3  A    between atoms: C_8  and  C_9
REMARK    4  A    between atoms: C_9  and  C_10
REMARK    5  A    between atoms: C_12  and  C_14
REMARK    6  A    between atoms: C_15  and  C_17
REMARK    7  A    between atoms: C_26  and  O_33
REMARK    8  A    between atoms: C_27  and  O_29
REMARK    9  A    between atoms: O_29  and  C_30
REMARK   10  A    between atoms: C_30  and  C_31
REMARK   11  A    between atoms: O_33  and  C_34
REMARK                            x       y       z     vdW  Elec       q    Type
REMARK                         _______ _______ _______ _____ _____    ______ ____
ROOT
ATOM      1  O   LIG A   1      -7.966   3.142 125.385  0.00  0.00    -0.291 OA
ATOM      2  C   LIG A   1      -7.481   2.063 125.641  0.00  0.00    +0.198 C 
ATOM      3  C   LIG A   1      -5.959   1.812 125.504  0.00  0.00    +0.187 C 
ATOM      4  C   LIG A   1      -5.490   0.436 126.035  0.00  0.00    +0.050 C 
ATOM      5  C   LIG A   1      -6.526  -0.738 126.070  0.00  0.00    +0.020 C 
ATOM      6  C   LIG A   1      -7.321  -0.843 127.421  0.00  0.00    +0.007 C 
ATOM      7  C   LIG A   1      -6.686  -1.296 128.728  0.00  0.00    +0.009 C 
ATOM      8  C   LIG A   1      -8.174   0.446 127.492  0.00  0.00    +0.066 C 
ATOM      9  C   LIG A   1      -8.358   0.841 125.973  0.00  0.00    +0.173 C 
ATOM     10  C   LIG A   1      -7.742  -0.349 125.115  0.00  0.00    +0.219 C 
ENDROOT
BRANCH   8  11
ATOM     11  C   LIG A   1      -7.788   1.562 128.484  0.00  0.00    -0.037 A 
ATOM     12  C   LIG A   1      -8.797   2.453 128.928  0.00  0.00    +0.008 A 
ATOM     13  C   LIG A   1      -8.545   3.448 129.894  0.00  0.00    +0.050 A 
ATOM     14  C   LIG A   1      -7.270   3.555 130.402  0.00  0.00    +0.166 A 
ATOM     15  O   LIG A   1      -6.836   4.433 131.346  0.00  0.00    -0.453 OA
ATOM     16  C   LIG A   1      -5.447   4.050 131.459  0.00  0.00    +0.466 C 
ATOM     17  O   LIG A   1      -5.086   2.957 130.592  0.00  0.00    -0.453 OA
ATOM     18  C   LIG A   1      -6.277   2.720 129.977  0.00  0.00    +0.167 A 
ATOM     19  C   LIG A   1      -6.506   1.735 129.035  0.00  0.00    +0.053 A 
ENDBRANCH   8  11
BRANCH   3  20
ATOM     20  O   LIG A   1      -5.124   2.813 126.077  0.00  0.00    -0.372 OA
ATOM     21  C   LIG A   1      -3.852   2.343 126.521  0.00  0.00    +0.195 C 
ENDBRANCH   3  20
BRANCH   9  22
ATOM     22  O   LIG A   1      -9.759   1.032 125.776  0.00  0.00    -0.365 OA
ATOM     23  C   LIG A   1     -10.183   1.293 124.447  0.00  0.00    +0.195 C 
ENDBRANCH   9  22
BRANCH   5  24
ATOM     24  C   LIG A   1      -5.799  -2.074 125.719  0.00  0.00    +0.037 C 
BRANCH  24  25
ATOM     25  C   LIG A   1      -5.247  -2.190 124.305  0.00  0.00    -0.034 C 
ATOM     26  C   LIG A   1      -4.899  -3.325 123.679  0.00  0.00    +0.004 C 
ENDBRANCH  24  25
ENDBRANCH   5  24
BRANCH  10  27
ATOM     27  O   LIG A   1      -8.634  -1.467 124.918  0.00  0.00    -0.490 OA
BRANCH  27  28
ATOM     28  C   LIG A   1      -8.804  -2.104 123.704  0.00  0.00    +0.088 C 
ATOM     29  C   LIG A   1      -9.478  -3.450 123.784  0.00  0.00    +0.085 C 
ATOM     30  C   LIG A   1      -8.438  -1.689 122.476  0.00  0.00    +0.052 C 
ENDBRANCH  27  28
ENDBRANCH  10  27
TORSDOF 7
ENDMDL
MODEL 5
REMARK VINA RESULT:      -6.4      2.589      7.437
REMARK  Name = NuBBE_2015
REMARK  11 active torsions:
REMARK  status: ('A' for Active; 'I' for Inactive)
REMARK    1  A    between atoms: C_3  and  O_5
REMARK    2  A    between atoms: O_5  and  C_6
REMARK    3  A    between atoms: C_8  and  C_9
REMARK    4  A    between atoms: C_9  and  C_10
REMARK    5  A    between atoms: C_12  and  C_14
REMARK    6  A    between atoms: C_15  and  C_17
REMARK    7  A    between atoms: C_26  and  O_33
REMARK    8  A    between atoms: C_27  and  O_29
REMARK    9  A    between atoms: O_29  and  C_30
REMARK   10  A    between atoms: C_30  and  C_31
REMARK   11  A    between atoms: O_33  and  C_34
REMARK                            x       y       z     vdW  Elec       q    Type
REMARK                         _______ _______ _______ _____ _____    ______ ____
ROOT
ATOM      1  O   LIG A   1      -5.146   0.410 130.255  0.00  0.00    -0.291 OA
ATOM      2  C   LIG A   1      -5.586  -0.373 129.443  0.00  0.00    +0.198 C 
ATOM      3  C   LIG A   1      -4.670  -1.410 128.746  0.00  0.00    +0.187 C 
ATOM      4  C   LIG A   1      -5.424  -2.440 127.871  0.00  0.00    +0.050 C 
ATOM      5  C   LIG A   1      -6.818  -2.034 127.283  0.00  0.00    +0.020 C 
ATOM      6  C   LIG A   1      -8.030  -2.408 128.209  0.00  0.00    +0.007 C 
ATOM      7  C   LIG A   1      -8.489  -3.840 128.444  0.00  0.00    +0.009 C 
ATOM      8  C   LIG A   1      -7.861  -1.534 129.474  0.00  0.00    +0.066 C 
ATOM      9  C   LIG A   1      -7.042  -0.290 128.946  0.00  0.00    +0.173 C 
ATOM     10  C   LIG A   1      -6.944  -0.447 127.366  0.00  0.00    +0.219 C 
ENDROOT
BRANCH   8  11
ATOM     11  C   LIG A   1      -7.405  -2.186 130.796  0.00  0.00    -0.037 A 
ATOM     12  C   LIG A   1      -7.782  -1.574 132.018  0.00  0.00    +0.008 A 
ATOM     13  C   LIG A   1      -7.475  -2.149 133.268  0.00  0.00    +0.050 A 
ATOM     14  C   LIG A   1      -6.777  -3.335 133.287  0.00  0.00    +0.166 A 
ATOM     15  O   LIG A   1      -6.405  -4.048 134.383  0.00  0.00    -0.453 OA
ATOM     16  C   LIG A   1      -5.732  -5.168 133.766  0.00  0.00    +0.466 C 
ATOM     17  O   LIG A   1      -5.721  -5.103 132.326  0.00  0.00    -0.453 OA
ATOM     18  C   LIG A   1      -6.388  -3.934 132.123  0.00  0.00    +0.167 A 
ATOM     19  C   LIG A   1      -6.684  -3.389 130.888  0.00  0.00    +0.053 A 
ENDBRANCH   8  11
BRANCH   3  20
ATOM     20  O   LIG A   1      -3.794  -2.124 129.611  0.00  0.00    -0.372 OA
ATOM     21  C   LIG A   1      -3.462  -3.439 129.166  0.00  0.00    +0.195 C 
ENDBRANCH   3  20
BRANCH   9  22
ATOM     22  O   LIG A   1      -7.759   0.870 129.369  0.00  0.00    -0.365 OA
ATOM     23  C   LIG A   1      -7.332   2.112 128.830  0.00  0.00    +0.195 C 
ENDBRANCH   9  22
BRANCH   5  24
ATOM     24  C   LIG A   1      -6.969  -2.645 125.854  0.00  0.00    +0.037 C 
BRANCH  24  25
ATOM     25  C   LIG A   1      -5.816  -2.400 124.890  0.00  0.00    -0.034 C 
ATOM     26  C   LIG A   1      -5.921  -2.086 123.590  0.00  0.00    +0.004 C 
ENDBRANCH  24  25
ENDBRANCH   5  24
BRANCH  10  27
ATOM     27  O   LIG A   1      -8.102   0.027 126.646  0.00  0.00    -0.490 OA
BRANCH  27  28
ATOM     28  C   LIG A   1      -8.039   0.604 125.392  0.00  0.00    +0.088 C 
ATOM     29  C   LIG A   1      -6.772   1.372 125.112  0.00  0.00    +0.085 C 
ATOM     30  C   LIG A   1      -8.957   0.581 124.407  0.00  0.00    +0.052 C 
ENDBRANCH  27  28
ENDBRANCH  10  27
TORSDOF 7
ENDMDL
MODEL 6
REMARK VINA RESULT:      -6.4      2.981      6.412
REMARK  Name = NuBBE_2015
REMARK  11 active torsions:
REMARK  status: ('A' for Active; 'I' for Inactive)
REMARK    1  A    between atoms: C_3  and  O_5
REMARK    2  A    between atoms: O_5  and  C_6
REMARK    3  A    between atoms: C_8  and  C_9
REMARK    4  A    between atoms: C_9  and  C_10
REMARK    5  A    between atoms: C_12  and  C_14
REMARK    6  A    between atoms: C_15  and  C_17
REMARK    7  A    between atoms: C_26  and  O_33
REMARK    8  A    between atoms: C_27  and  O_29
REMARK    9  A    between atoms: O_29  and  C_30
REMARK   10  A    between atoms: C_30  and  C_31
REMARK   11  A    between atoms: O_33  and  C_34
REMARK                            x       y       z     vdW  Elec       q    Type
REMARK                         _______ _______ _______ _____ _____    ______ ____
ROOT
ATOM      1  O   LIG A   1      -6.118   2.888 127.227  0.00  0.00    -0.291 OA
ATOM      2  C   LIG A   1      -6.027   1.736 127.588  0.00  0.00    +0.198 C 
ATOM      3  C   LIG A   1      -4.856   1.262 128.484  0.00  0.00    +0.187 C 
ATOM      4  C   LIG A   1      -4.989  -0.194 128.991  0.00  0.00    +0.050 C 
ATOM      5  C   LIG A   1      -5.849  -1.196 128.148  0.00  0.00    +0.020 C 
ATOM      6  C   LIG A   1      -7.361  -1.246 128.572  0.00  0.00    +0.007 C 
ATOM      7  C   LIG A   1      -7.840  -1.856 129.882  0.00  0.00    +0.009 C 
ATOM      8  C   LIG A   1      -7.926   0.152 128.228  0.00  0.00    +0.066 C 
ATOM      9  C   LIG A   1      -6.981   0.646 127.061  0.00  0.00    +0.173 C 
ATOM     10  C   LIG A   1      -6.037  -0.579 126.690  0.00  0.00    +0.219 C 
ENDROOT
BRANCH   8  11
ATOM     11  C   LIG A   1      -8.247   1.145 129.364  0.00  0.00    -0.037 A 
ATOM     12  C   LIG A   1      -8.965   2.326 129.048  0.00  0.00    +0.008 A 
ATOM     13  C   LIG A   1      -9.367   3.244 130.040  0.00  0.00    +0.050 A 
ATOM     14  C   LIG A   1      -9.034   2.979 131.348  0.00  0.00    +0.166 A 
ATOM     15  O   LIG A   1      -9.343   3.728 132.440  0.00  0.00    -0.453 OA
ATOM     16  C   LIG A   1      -8.742   2.941 133.492  0.00  0.00    +0.466 C 
ATOM     17  O   LIG A   1      -8.097   1.746 133.011  0.00  0.00    -0.453 OA
ATOM     18  C   LIG A   1      -8.327   1.857 131.674  0.00  0.00    +0.167 A 
ATOM     19  C   LIG A   1      -7.929   0.942 130.718  0.00  0.00    +0.053 A 
ENDBRANCH   8  11
BRANCH   3  20
ATOM     20  O   LIG A   1      -4.573   2.094 129.604  0.00  0.00    -0.372 OA
ATOM     21  C   LIG A   1      -4.216   1.390 130.792  0.00  0.00    +0.195 C 
ENDBRANCH   3  20
BRANCH   9  22
ATOM     22  O   LIG A   1      -7.840   1.058 125.998  0.00  0.00    -0.365 OA
ATOM     23  C   LIG A   1      -9.124   0.455 125.950  0.00  0.00    +0.195 C 
ENDBRANCH   9  22
BRANCH   5  24
ATOM     24  C   LIG A   1      -5.185  -2.609 128.198  0.00  0.00    +0.037 C 
BRANCH  24  25
ATOM     25  C   LIG A   1      -4.112  -2.813 129.259  0.00  0.00    -0.034 C 
ATOM     26  C   LIG A   1      -3.075  -3.660 129.186  0.00  0.00    +0.004 C 
ENDBRANCH  24  25
ENDBRANCH   5  24
BRANCH  10  27
ATOM     27  O   LIG A   1      -6.629  -1.536 125.786  0.00  0.00    -0.490 OA
BRANCH  27  28
ATOM     28  C   LIG A   1      -6.227  -1.697 124.474  0.00  0.00    +0.088 C 
ATOM     29  C   LIG A   1      -5.228  -2.803 124.249  0.00  0.00    +0.085 C 
ATOM     30  C   LIG A   1      -6.598  -0.993 123.387  0.00  0.00    +0.052 C 
ENDBRANCH  27  28
ENDBRANCH  10  27
TORSDOF 7
ENDMDL
MODEL 7
REMARK VINA RESULT:      -6.3      4.069      6.506
REMARK  Name = NuBBE_2015
REMARK  11 active torsions:
REMARK  status: ('A' for Active; 'I' for Inactive)
REMARK    1  A    between atoms: C_3  and  O_5
REMARK    2  A    between atoms: O_5  and  C_6
REMARK    3  A    between atoms: C_8  and  C_9
REMARK    4  A    between atoms: C_9  and  C_10
REMARK    5  A    between atoms: C_12  and  C_14
REMARK    6  A    between atoms: C_15  and  C_17
REMARK    7  A    between atoms: C_26  and  O_33
REMARK    8  A    between atoms: C_27  and  O_29
REMARK    9  A    between atoms: O_29  and  C_30
REMARK   10  A    between atoms: C_30  and  C_31
REMARK   11  A    between atoms: O_33  and  C_34
REMARK                            x       y       z     vdW  Elec       q    Type
REMARK                         _______ _______ _______ _____ _____    ______ ____
ROOT
ATOM      1  O   LIG A   1      -5.302   5.694 126.572  0.00  0.00    -0.291 OA
ATOM      2  C   LIG A   1      -5.292   4.522 126.880  0.00  0.00    +0.198 C 
ATOM      3  C   LIG A   1      -4.112   3.598 126.493  0.00  0.00    +0.187 C 
ATOM      4  C   LIG A   1      -4.182   2.182 127.112  0.00  0.00    +0.050 C 
ATOM      5  C   LIG A   1      -5.587   1.614 127.507  0.00  0.00    +0.020 C 
ATOM      6  C   LIG A   1      -6.009   1.936 128.985  0.00  0.00    +0.007 C 
ATOM      7  C   LIG A   1      -5.352   1.294 130.199  0.00  0.00    +0.009 C 
ATOM      8  C   LIG A   1      -6.170   3.474 129.036  0.00  0.00    +0.066 C 
ATOM      9  C   LIG A   1      -6.511   3.851 127.540  0.00  0.00    +0.173 C 
ATOM     10  C   LIG A   1      -6.696   2.479 126.756  0.00  0.00    +0.219 C 
ENDROOT
BRANCH   8  11
ATOM     11  C   LIG A   1      -5.116   4.327 129.770  0.00  0.00    -0.037 A 
ATOM     12  C   LIG A   1      -3.857   3.745 130.063  0.00  0.00    +0.008 A 
ATOM     13  C   LIG A   1      -2.812   4.480 130.658  0.00  0.00    +0.050 A 
ATOM     14  C   LIG A   1      -3.040   5.800 130.971  0.00  0.00    +0.166 A 
ATOM     15  O   LIG A   1      -2.160   6.673 131.530  0.00  0.00    -0.453 OA
ATOM     16  C   LIG A   1      -2.966   7.871 131.597  0.00  0.00    +0.466 C 
ATOM     17  O   LIG A   1      -4.297   7.691 131.076  0.00  0.00    -0.453 OA
ATOM     18  C   LIG A   1      -4.250   6.379 130.716  0.00  0.00    +0.167 A 
ATOM     19  C   LIG A   1      -5.285   5.677 130.127  0.00  0.00    +0.053 A 
ENDBRANCH   8  11
BRANCH   3  20
ATOM     20  O   LIG A   1      -2.815   4.127 126.750  0.00  0.00    -0.372 OA
ATOM     21  C   LIG A   1      -1.774   3.153 126.797  0.00  0.00    +0.195 C 
ENDBRANCH   3  20
BRANCH   9  22
ATOM     22  O   LIG A   1      -7.691   4.654 127.588  0.00  0.00    -0.365 OA
ATOM     23  C   LIG A   1      -8.455   4.588 128.783  0.00  0.00    +0.195 C 
ENDBRANCH   9  22
BRANCH   5  24
ATOM     24  C   LIG A   1      -5.621   0.080 127.215  0.00  0.00    +0.037 C 
BRANCH  24  25
ATOM     25  C   LIG A   1      -5.287  -0.343 125.791  0.00  0.00    -0.034 C 
ATOM     26  C   LIG A   1      -6.083  -1.032 124.960  0.00  0.00    +0.004 C 
ENDBRANCH  24  25
ENDBRANCH   5  24
BRANCH  10  27
ATOM     27  O   LIG A   1      -8.006   1.886 126.890  0.00  0.00    -0.490 OA
BRANCH  27  28
ATOM     28  C   LIG A   1      -8.786   1.505 125.816  0.00  0.00    +0.088 C 
ATOM     29  C   LIG A   1      -8.788   2.473 124.660  0.00  0.00    +0.085 C 
ATOM     30  C   LIG A   1      -9.546   0.402 125.676  0.00  0.00    +0.052 C 
ENDBRANCH  27  28
ENDBRANCH  10  27
TORSDOF 7
ENDMDL
MODEL 8
REMARK VINA RESULT:      -6.2      6.714      9.246
REMARK  Name = NuBBE_2015
REMARK  11 active torsions:
REMARK  status: ('A' for Active; 'I' for Inactive)
REMARK    1  A    between atoms: C_3  and  O_5
REMARK    2  A    between atoms: O_5  and  C_6
REMARK    3  A    between atoms: C_8  and  C_9
REMARK    4  A    between atoms: C_9  and  C_10
REMARK    5  A    between atoms: C_12  and  C_14
REMARK    6  A    between atoms: C_15  and  C_17
REMARK    7  A    between atoms: C_26  and  O_33
REMARK    8  A    between atoms: C_27  and  O_29
REMARK    9  A    between atoms: O_29  and  C_30
REMARK   10  A    between atoms: C_30  and  C_31
REMARK   11  A    between atoms: O_33  and  C_34
REMARK                            x       y       z     vdW  Elec       q    Type
REMARK                         _______ _______ _______ _____ _____    ______ ____
ROOT
ATOM      1  O   LIG A   1      -4.852   7.713 130.009  0.00  0.00    -0.291 OA
ATOM      2  C   LIG A   1      -4.941   6.843 130.847  0.00  0.00    +0.198 C 
ATOM      3  C   LIG A   1      -6.284   6.123 131.121  0.00  0.00    +0.187 C 
ATOM      4  C   LIG A   1      -6.178   4.927 132.096  0.00  0.00    +0.050 C 
ATOM      5  C   LIG A   1      -5.004   4.916 133.132  0.00  0.00    +0.020 C 
ATOM      6  C   LIG A   1      -3.706   4.199 132.614  0.00  0.00    +0.007 C 
ATOM      7  C   LIG A   1      -3.610   2.693 132.412  0.00  0.00    +0.009 C 
ATOM      8  C   LIG A   1      -3.199   5.074 131.443  0.00  0.00    +0.066 C 
ATOM      9  C   LIG A   1      -3.769   6.506 131.789  0.00  0.00    +0.173 C 
ATOM     10  C   LIG A   1      -4.424   6.398 133.234  0.00  0.00    +0.219 C 
ENDROOT
BRANCH   8  11
ATOM     11  C   LIG A   1      -3.351   4.570 129.993  0.00  0.00    -0.037 A 
ATOM     12  C   LIG A   1      -2.572   5.180 128.977  0.00  0.00    +0.008 A 
ATOM     13  C   LIG A   1      -2.593   4.725 127.644  0.00  0.00    +0.050 A 
ATOM     14  C   LIG A   1      -3.410   3.663 127.329  0.00  0.00    +0.166 A 
ATOM     15  O   LIG A   1      -3.555   3.074 126.112  0.00  0.00    -0.453 OA
ATOM     16  C   LIG A   1      -4.516   2.040 126.420  0.00  0.00    +0.466 C 
ATOM     17  O   LIG A   1      -4.917   2.030 127.804  0.00  0.00    -0.453 OA
ATOM     18  C   LIG A   1      -4.183   3.070 128.286  0.00  0.00    +0.167 A 
ATOM     19  C   LIG A   1      -4.172   3.498 129.600  0.00  0.00    +0.053 A 
ENDBRANCH   8  11
BRANCH   3  20
ATOM     20  O   LIG A   1      -6.985   5.685 129.962  0.00  0.00    -0.372 OA
ATOM     21  C   LIG A   1      -7.745   4.491 130.143  0.00  0.00    +0.195 C 
ENDBRANCH   3  20
BRANCH   9  22
ATOM     22  O   LIG A   1      -2.661   7.405 131.721  0.00  0.00    -0.365 OA
ATOM     23  C   LIG A   1      -1.375   6.843 131.931  0.00  0.00    +0.195 C 
ENDBRANCH   9  22
BRANCH   5  24
ATOM     24  C   LIG A   1      -5.510   4.301 134.475  0.00  0.00    +0.037 C 
BRANCH  24  25
ATOM     25  C   LIG A   1      -6.980   4.519 134.805  0.00  0.00    -0.034 C 
ATOM     26  C   LIG A   1      -7.483   5.483 135.591  0.00  0.00    +0.004 C 
ENDBRANCH  24  25
ENDBRANCH   5  24
BRANCH  10  27
ATOM     27  O   LIG A   1      -3.487   6.523 134.325  0.00  0.00    -0.490 OA
BRANCH  27  28
ATOM     28  C   LIG A   1      -3.590   7.481 135.315  0.00  0.00    +0.088 C 
ATOM     29  C   LIG A   1      -2.677   8.669 135.144  0.00  0.00    +0.085 C 
ATOM     30  C   LIG A   1      -4.380   7.484 136.406  0.00  0.00    +0.052 C 
ENDBRANCH  27  28
ENDBRANCH  10  27
TORSDOF 7
ENDMDL
MODEL 9
REMARK VINA RESULT:      -6.2      2.735      5.569
REMARK  Name = NuBBE_2015
REMARK  11 active torsions:
REMARK  status: ('A' for Active; 'I' for Inactive)
REMARK    1  A    between atoms: C_3  and  O_5
REMARK    2  A    between atoms: O_5  and  C_6
REMARK    3  A    between atoms: C_8  and  C_9
REMARK    4  A    between atoms: C_9  and  C_10
REMARK    5  A    between atoms: C_12  and  C_14
REMARK    6  A    between atoms: C_15  and  C_17
REMARK    7  A    between atoms: C_26  and  O_33
REMARK    8  A    between atoms: C_27  and  O_29
REMARK    9  A    between atoms: O_29  and  C_30
REMARK   10  A    between atoms: C_30  and  C_31
REMARK   11  A    between atoms: O_33  and  C_34
REMARK                            x       y       z     vdW  Elec       q    Type
REMARK                         _______ _______ _______ _____ _____    ______ ____
ROOT
ATOM      1  O   LIG A   1      -4.465   0.460 129.314  0.00  0.00    -0.291 OA
ATOM      2  C   LIG A   1      -5.295  -0.319 129.730  0.00  0.00    +0.198 C 
ATOM      3  C   LIG A   1      -6.584   0.177 130.429  0.00  0.00    +0.187 C 
ATOM      4  C   LIG A   1      -7.609  -0.939 130.740  0.00  0.00    +0.050 C 
ATOM      5  C   LIG A   1      -7.082  -2.404 130.912  0.00  0.00    +0.020 C 
ATOM      6  C   LIG A   1      -7.063  -3.232 129.577  0.00  0.00    +0.007 C 
ATOM      7  C   LIG A   1      -8.326  -3.714 128.877  0.00  0.00    +0.009 C 
ATOM      8  C   LIG A   1      -6.015  -2.531 128.679  0.00  0.00    +0.066 C 
ATOM      9  C   LIG A   1      -5.051  -1.840 129.722  0.00  0.00    +0.173 C 
ATOM     10  C   LIG A   1      -5.509  -2.334 131.163  0.00  0.00    +0.219 C 
ENDROOT
BRANCH   8  11
ATOM     11  C   LIG A   1      -6.484  -1.697 127.469  0.00  0.00    -0.037 A 
ATOM     12  C   LIG A   1      -5.558  -1.432 126.429  0.00  0.00    +0.008 A 
ATOM     13  C   LIG A   1      -5.928  -0.748 125.254  0.00  0.00    +0.050 A 
ATOM     14  C   LIG A   1      -7.230  -0.317 125.133  0.00  0.00    +0.166 A 
ATOM     15  O   LIG A   1      -7.780   0.341 124.077  0.00  0.00    -0.453 OA
ATOM     16  C   LIG A   1      -9.141   0.501 124.533  0.00  0.00    +0.466 C 
ATOM     17  O   LIG A   1      -9.375  -0.064 125.837  0.00  0.00    -0.453 OA
ATOM     18  C   LIG A   1      -8.136  -0.545 126.129  0.00  0.00    +0.167 A 
ATOM     19  C   LIG A   1      -7.794  -1.219 127.286  0.00  0.00    +0.053 A 
ENDBRANCH   8  11
BRANCH   3  20
ATOM     20  O   LIG A   1      -7.271   1.231 129.762  0.00  0.00    -0.372 OA
ATOM     21  C   LIG A   1      -8.551   1.545 130.307  0.00  0.00    +0.195 C 
ENDBRANCH   3  20
BRANCH   9  22
ATOM     22  O   LIG A   1      -3.726  -2.237 129.367  0.00  0.00    -0.365 OA
ATOM     23  C   LIG A   1      -3.568  -3.568 128.899  0.00  0.00    +0.195 C 
ENDBRANCH   9  22
BRANCH   5  24
ATOM     24  C   LIG A   1      -7.908  -3.120 132.027  0.00  0.00    +0.037 C 
BRANCH  24  25
ATOM     25  C   LIG A   1      -7.776  -2.552 133.433  0.00  0.00    -0.034 C 
ATOM     26  C   LIG A   1      -8.204  -3.129 134.566  0.00  0.00    +0.004 C 
ENDBRANCH  24  25
ENDBRANCH   5  24
BRANCH  10  27
ATOM     27  O   LIG A   1      -4.980  -3.621 131.549  0.00  0.00    -0.490 OA
BRANCH  27  28
ATOM     28  C   LIG A   1      -4.390  -3.869 132.773  0.00  0.00    +0.088 C 
ATOM     29  C   LIG A   1      -4.892  -5.102 133.479  0.00  0.00    +0.085 C 
ATOM     30  C   LIG A   1      -3.447  -3.152 133.414  0.00  0.00    +0.052 C 
ENDBRANCH  27  28
ENDBRANCH  10  27
TORSDOF 7
ENDMDL
