MODEL 1
REMARK VINA RESULT:      -6.5      0.000      0.000
REMARK  Name = NuBBE_2289
REMARK  4 active torsions:
REMARK  status: ('A' for Active; 'I' for Inactive)
REMARK    1  A    between atoms: C_1  and  C_2
REMARK    2  A    between atoms: C_2  and  C_3
REMARK    3  A    between atoms: C_5  and  C_13
REMARK    4  A    between atoms: C_8  and  C_9
REMARK                            x       y       z     vdW  Elec       q    Type
REMARK                         _______ _______ _______ _____ _____    ______ ____
ROOT
ATOM      1  C   LIG A   1      -7.066  -0.695 128.434  0.00  0.00    +0.011 C 
ATOM      2  C   LIG A   1      -6.515  -2.080 128.006  0.00  0.00    -0.028 C 
ATOM      3  C   LIG A   1      -5.000  -2.052 128.322  0.00  0.00    +0.011 C 
ATOM      4  C   LIG A   1      -6.808  -2.387 126.491  0.00  0.00    -0.011 C 
ATOM      5  C   LIG A   1      -8.263  -2.892 126.155  0.00  0.00    -0.022 C 
ATOM      6  C   LIG A   1      -9.181  -1.635 125.978  0.00  0.00    +0.034 C 
ATOM      7  C   LIG A   1      -8.557  -0.586 125.073  0.00  0.00    -0.027 C 
ATOM      8  C   LIG A   1      -7.308  -0.733 124.651  0.00  0.00    -0.073 C 
ATOM      9  C   LIG A   1      -6.922  -0.439 123.223  0.00  0.00    +0.039 C 
ATOM     10  C   LIG A   1      -6.273  -1.312 125.529  0.00  0.00    +0.022 C 
ATOM     11  C   LIG A   1      -5.695  -2.675 125.473  0.00  0.00    +0.017 C 
ATOM     12  C   LIG A   1      -8.316  -3.746 124.844  0.00  0.00    +0.012 C 
ATOM     13  C   LIG A   1      -8.822  -3.851 127.230  0.00  0.00    +0.007 C 
ATOM     14  C   LIG A   1      -8.614  -3.390 128.656  0.00  0.00    +0.001 C 
ATOM     15  C   LIG A   1      -7.131  -3.173 128.906  0.00  0.00    +0.007 C 
ENDROOT
TORSDOF 0
ENDMDL
MODEL 2
REMARK VINA RESULT:      -6.5      1.362      4.045
REMARK  Name = NuBBE_2289
REMARK  4 active torsions:
REMARK  status: ('A' for Active; 'I' for Inactive)
REMARK    1  A    between atoms: C_1  and  C_2
REMARK    2  A    between atoms: C_2  and  C_3
REMARK    3  A    between atoms: C_5  and  C_13
REMARK    4  A    between atoms: C_8  and  C_9
REMARK                            x       y       z     vdW  Elec       q    Type
REMARK                         _______ _______ _______ _____ _____    ______ ____
ROOT
ATOM      1  C   LIG A   1      -6.682  -4.149 124.296  0.00  0.00    +0.011 C 
ATOM      2  C   LIG A   1      -6.387  -2.630 124.198  0.00  0.00    -0.028 C 
ATOM      3  C   LIG A   1      -4.846  -2.494 124.192  0.00  0.00    +0.011 C 
ATOM      4  C   LIG A   1      -7.057  -1.823 125.370  0.00  0.00    -0.011 C 
ATOM      5  C   LIG A   1      -8.593  -1.508 125.205  0.00  0.00    -0.022 C 
ATOM      6  C   LIG A   1      -9.398  -2.746 125.726  0.00  0.00    +0.034 C 
ATOM      7  C   LIG A   1      -8.904  -3.229 127.081  0.00  0.00    -0.027 C 
ATOM      8  C   LIG A   1      -7.810  -2.701 127.614  0.00  0.00    -0.073 C 
ATOM      9  C   LIG A   1      -7.744  -2.343 129.078  0.00  0.00    +0.039 C 
ATOM     10  C   LIG A   1      -6.660  -2.323 126.770  0.00  0.00    +0.022 C 
ATOM     11  C   LIG A   1      -6.249  -0.962 126.353  0.00  0.00    +0.017 C 
ATOM     12  C   LIG A   1      -9.037  -0.240 126.010  0.00  0.00    +0.012 C 
ATOM     13  C   LIG A   1      -8.975  -1.159 123.750  0.00  0.00    +0.007 C 
ATOM     14  C   LIG A   1      -8.393  -2.087 122.705  0.00  0.00    +0.001 C 
ATOM     15  C   LIG A   1      -6.878  -2.104 122.832  0.00  0.00    +0.007 C 
ENDROOT
TORSDOF 0
ENDMDL
MODEL 3
REMARK VINA RESULT:      -6.4      1.523      4.015
REMARK  Name = NuBBE_2289
REMARK  4 active torsions:
REMARK  status: ('A' for Active; 'I' for Inactive)
REMARK    1  A    between atoms: C_1  and  C_2
REMARK    2  A    between atoms: C_2  and  C_3
REMARK    3  A    between atoms: C_5  and  C_13
REMARK    4  A    between atoms: C_8  and  C_9
REMARK                            x       y       z     vdW  Elec       q    Type
REMARK                         _______ _______ _______ _____ _____    ______ ____
ROOT
ATOM      1  C   LIG A   1      -7.224  -1.908 122.682  0.00  0.00    +0.011 C 
ATOM      2  C   LIG A   1      -8.491  -1.694 123.551  0.00  0.00    -0.028 C 
ATOM      3  C   LIG A   1      -9.456  -0.840 122.694  0.00  0.00    +0.011 C 
ATOM      4  C   LIG A   1      -8.152  -1.019 124.930  0.00  0.00    -0.011 C 
ATOM      5  C   LIG A   1      -7.579  -1.972 126.047  0.00  0.00    -0.022 C 
ATOM      6  C   LIG A   1      -6.031  -2.090 125.834  0.00  0.00    +0.034 C 
ATOM      7  C   LIG A   1      -5.370  -0.736 125.636  0.00  0.00    -0.027 C 
ATOM      8  C   LIG A   1      -6.116   0.355 125.515  0.00  0.00    -0.073 C 
ATOM      9  C   LIG A   1      -5.749   1.638 126.217  0.00  0.00    +0.039 C 
ATOM     10  C   LIG A   1      -7.403   0.319 124.794  0.00  0.00    +0.022 C 
ATOM     11  C   LIG A   1      -8.767   0.318 125.373  0.00  0.00    +0.017 C 
ATOM     12  C   LIG A   1      -7.851  -1.437 127.493  0.00  0.00    +0.012 C 
ATOM     13  C   LIG A   1      -8.255  -3.361 126.046  0.00  0.00    +0.007 C 
ATOM     14  C   LIG A   1      -8.404  -3.990 124.678  0.00  0.00    +0.001 C 
ATOM     15  C   LIG A   1      -9.189  -3.053 123.774  0.00  0.00    +0.007 C 
ENDROOT
TORSDOF 0
ENDMDL
MODEL 4
REMARK VINA RESULT:      -6.4      1.813      3.032
REMARK  Name = NuBBE_2289
REMARK  4 active torsions:
REMARK  status: ('A' for Active; 'I' for Inactive)
REMARK    1  A    between atoms: C_1  and  C_2
REMARK    2  A    between atoms: C_2  and  C_3
REMARK    3  A    between atoms: C_5  and  C_13
REMARK    4  A    between atoms: C_8  and  C_9
REMARK                            x       y       z     vdW  Elec       q    Type
REMARK                         _______ _______ _______ _____ _____    ______ ____
ROOT
ATOM      1  C   LIG A   1      -6.618   1.049 124.614  0.00  0.00    +0.011 C 
ATOM      2  C   LIG A   1      -6.841   0.212 125.901  0.00  0.00    -0.028 C 
ATOM      3  C   LIG A   1      -5.799   0.721 126.926  0.00  0.00    +0.011 C 
ATOM      4  C   LIG A   1      -6.713  -1.332 125.629  0.00  0.00    -0.011 C 
ATOM      5  C   LIG A   1      -7.973  -2.029 124.989  0.00  0.00    -0.022 C 
ATOM      6  C   LIG A   1      -7.889  -1.846 123.435  0.00  0.00    +0.034 C 
ATOM      7  C   LIG A   1      -6.516  -2.197 122.885  0.00  0.00    -0.027 C 
ATOM      8  C   LIG A   1      -5.518  -2.466 123.716  0.00  0.00    -0.073 C 
ATOM      9  C   LIG A   1      -4.571  -3.612 123.460  0.00  0.00    +0.039 C 
ATOM     10  C   LIG A   1      -5.373  -1.737 124.991  0.00  0.00    +0.022 C 
ATOM     11  C   LIG A   1      -5.691  -2.220 126.354  0.00  0.00    +0.017 C 
ATOM     12  C   LIG A   1      -8.044  -3.560 125.315  0.00  0.00    +0.012 C 
ATOM     13  C   LIG A   1      -9.304  -1.482 125.549  0.00  0.00    +0.007 C 
ATOM     14  C   LIG A   1      -9.379   0.027 125.636  0.00  0.00    +0.001 C 
ATOM     15  C   LIG A   1      -8.231   0.542 126.488  0.00  0.00    +0.007 C 
ENDROOT
TORSDOF 0
ENDMDL
MODEL 5
REMARK VINA RESULT:      -6.3      2.027      3.938
REMARK  Name = NuBBE_2289
REMARK  4 active torsions:
REMARK  status: ('A' for Active; 'I' for Inactive)
REMARK    1  A    between atoms: C_1  and  C_2
REMARK    2  A    between atoms: C_2  and  C_3
REMARK    3  A    between atoms: C_5  and  C_13
REMARK    4  A    between atoms: C_8  and  C_9
REMARK                            x       y       z     vdW  Elec       q    Type
REMARK                         _______ _______ _______ _____ _____    ______ ____
ROOT
ATOM      1  C   LIG A   1      -9.250  -2.715 123.479  0.00  0.00    +0.011 C 
ATOM      2  C   LIG A   1      -8.589  -2.775 124.881  0.00  0.00    -0.028 C 
ATOM      3  C   LIG A   1      -9.698  -3.236 125.857  0.00  0.00    +0.011 C 
ATOM      4  C   LIG A   1      -7.960  -1.394 125.295  0.00  0.00    -0.011 C 
ATOM      5  C   LIG A   1      -6.550  -1.060 124.674  0.00  0.00    -0.022 C 
ATOM      6  C   LIG A   1      -6.784  -0.421 123.263  0.00  0.00    +0.034 C 
ATOM      7  C   LIG A   1      -7.835   0.677 123.292  0.00  0.00    -0.027 C 
ATOM      8  C   LIG A   1      -8.536   0.894 124.397  0.00  0.00    -0.073 C 
ATOM      9  C   LIG A   1      -8.814   2.293 124.888  0.00  0.00    +0.039 C 
ATOM     10  C   LIG A   1      -8.960  -0.225 125.261  0.00  0.00    +0.022 C 
ATOM     11  C   LIG A   1      -8.385  -0.635 126.562  0.00  0.00    +0.017 C 
ATOM     12  C   LIG A   1      -5.727  -0.059 125.553  0.00  0.00    +0.012 C 
ATOM     13  C   LIG A   1      -5.631  -2.298 124.586  0.00  0.00    +0.007 C 
ATOM     14  C   LIG A   1      -6.298  -3.541 124.038  0.00  0.00    +0.001 C 
ATOM     15  C   LIG A   1      -7.511  -3.881 124.888  0.00  0.00    +0.007 C 
ENDROOT
TORSDOF 0
ENDMDL
MODEL 6
REMARK VINA RESULT:      -6.2      1.393      4.205
REMARK  Name = NuBBE_2289
REMARK  4 active torsions:
REMARK  status: ('A' for Active; 'I' for Inactive)
REMARK    1  A    between atoms: C_1  and  C_2
REMARK    2  A    between atoms: C_2  and  C_3
REMARK    3  A    between atoms: C_5  and  C_13
REMARK    4  A    between atoms: C_8  and  C_9
REMARK                            x       y       z     vdW  Elec       q    Type
REMARK                         _______ _______ _______ _____ _____    ______ ____
ROOT
ATOM      1  C   LIG A   1      -6.885  -0.565 122.872  0.00  0.00    +0.011 C 
ATOM      2  C   LIG A   1      -8.189  -0.516 123.710  0.00  0.00    -0.028 C 
ATOM      3  C   LIG A   1      -8.508   0.984 123.914  0.00  0.00    +0.011 C 
ATOM      4  C   LIG A   1      -8.043  -1.291 125.071  0.00  0.00    -0.011 C 
ATOM      5  C   LIG A   1      -8.183  -2.859 124.994  0.00  0.00    -0.022 C 
ATOM      6  C   LIG A   1      -6.783  -3.451 124.618  0.00  0.00    +0.034 C 
ATOM      7  C   LIG A   1      -5.663  -2.870 125.466  0.00  0.00    -0.027 C 
ATOM      8  C   LIG A   1      -5.913  -1.867 126.297  0.00  0.00    -0.073 C 
ATOM      9  C   LIG A   1      -5.337  -1.840 127.691  0.00  0.00    +0.039 C 
ATOM     10  C   LIG A   1      -6.870  -0.802 125.937  0.00  0.00    +0.022 C 
ATOM     11  C   LIG A   1      -8.252  -0.618 126.436  0.00  0.00    +0.017 C 
ATOM     12  C   LIG A   1      -8.652  -3.489 126.349  0.00  0.00    +0.012 C 
ATOM     13  C   LIG A   1      -9.272  -3.310 123.995  0.00  0.00    +0.007 C 
ATOM     14  C   LIG A   1      -9.234  -2.601 122.658  0.00  0.00    +0.001 C 
ATOM     15  C   LIG A   1      -9.351  -1.102 122.878  0.00  0.00    +0.007 C 
ENDROOT
TORSDOF 0
ENDMDL
MODEL 7
REMARK VINA RESULT:      -6.1      1.671      3.670
REMARK  Name = NuBBE_2289
REMARK  4 active torsions:
REMARK  status: ('A' for Active; 'I' for Inactive)
REMARK    1  A    between atoms: C_1  and  C_2
REMARK    2  A    between atoms: C_2  and  C_3
REMARK    3  A    between atoms: C_5  and  C_13
REMARK    4  A    between atoms: C_8  and  C_9
REMARK                            x       y       z     vdW  Elec       q    Type
REMARK                         _______ _______ _______ _____ _____    ______ ____
ROOT
ATOM      1  C   LIG A   1      -8.382   0.771 126.028  0.00  0.00    +0.011 C 
ATOM      2  C   LIG A   1      -7.193   0.570 125.052  0.00  0.00    -0.028 C 
ATOM      3  C   LIG A   1      -7.357   1.648 123.953  0.00  0.00    +0.011 C 
ATOM      4  C   LIG A   1      -7.155  -0.888 124.463  0.00  0.00    -0.011 C 
ATOM      5  C   LIG A   1      -6.539  -1.997 125.399  0.00  0.00    -0.022 C 
ATOM      6  C   LIG A   1      -7.674  -2.514 126.347  0.00  0.00    +0.034 C 
ATOM      7  C   LIG A   1      -8.954  -2.838 125.593  0.00  0.00    -0.027 C 
ATOM      8  C   LIG A   1      -9.059  -2.538 124.305  0.00  0.00    -0.073 C 
ATOM      9  C   LIG A   1      -9.676  -3.502 123.323  0.00  0.00    +0.039 C 
ATOM     10  C   LIG A   1      -8.459  -1.305 123.760  0.00  0.00    +0.022 C 
ATOM     11  C   LIG A   1      -7.222  -1.176 122.955  0.00  0.00    +0.017 C 
ATOM     12  C   LIG A   1      -5.961  -3.210 124.595  0.00  0.00    +0.012 C 
ATOM     13  C   LIG A   1      -5.322  -1.488 126.203  0.00  0.00    +0.007 C 
ATOM     14  C   LIG A   1      -5.516  -0.134 126.851  0.00  0.00    +0.001 C 
ATOM     15  C   LIG A   1      -5.873   0.890 125.786  0.00  0.00    +0.007 C 
ENDROOT
TORSDOF 0
ENDMDL
MODEL 8
REMARK VINA RESULT:      -6.0      1.759      3.593
REMARK  Name = NuBBE_2289
REMARK  4 active torsions:
REMARK  status: ('A' for Active; 'I' for Inactive)
REMARK    1  A    between atoms: C_1  and  C_2
REMARK    2  A    between atoms: C_2  and  C_3
REMARK    3  A    between atoms: C_5  and  C_13
REMARK    4  A    between atoms: C_8  and  C_9
REMARK                            x       y       z     vdW  Elec       q    Type
REMARK                         _______ _______ _______ _____ _____    ______ ____
ROOT
ATOM      1  C   LIG A   1      -5.584  -2.600 124.836  0.00  0.00    +0.011 C 
ATOM      2  C   LIG A   1      -6.818  -2.184 123.992  0.00  0.00    -0.028 C 
ATOM      3  C   LIG A   1      -6.315  -2.063 122.534  0.00  0.00    +0.011 C 
ATOM      4  C   LIG A   1      -7.467  -0.851 124.517  0.00  0.00    -0.011 C 
ATOM      5  C   LIG A   1      -8.408  -0.987 125.775  0.00  0.00    -0.022 C 
ATOM      6  C   LIG A   1      -7.509  -0.940 127.057  0.00  0.00    +0.034 C 
ATOM      7  C   LIG A   1      -6.513   0.208 127.024  0.00  0.00    -0.027 C 
ATOM      8  C   LIG A   1      -6.385   0.942 125.926  0.00  0.00    -0.073 C 
ATOM      9  C   LIG A   1      -6.265   2.444 125.995  0.00  0.00    +0.039 C 
ATOM     10  C   LIG A   1      -6.484   0.330 124.587  0.00  0.00    +0.022 C 
ATOM     11  C   LIG A   1      -7.619   0.400 123.639  0.00  0.00    +0.017 C 
ATOM     12  C   LIG A   1      -9.470   0.160 125.860  0.00  0.00    +0.012 C 
ATOM     13  C   LIG A   1      -9.269  -2.269 125.738  0.00  0.00    +0.007 C 
ATOM     14  C   LIG A   1      -8.514  -3.525 125.360  0.00  0.00    +0.001 C 
ATOM     15  C   LIG A   1      -7.853  -3.329 124.005  0.00  0.00    +0.007 C 
ENDROOT
TORSDOF 0
ENDMDL
MODEL 9
REMARK VINA RESULT:      -5.9      1.378      2.457
REMARK  Name = NuBBE_2289
REMARK  4 active torsions:
REMARK  status: ('A' for Active; 'I' for Inactive)
REMARK    1  A    between atoms: C_1  and  C_2
REMARK    2  A    between atoms: C_2  and  C_3
REMARK    3  A    between atoms: C_5  and  C_13
REMARK    4  A    between atoms: C_8  and  C_9
REMARK                            x       y       z     vdW  Elec       q    Type
REMARK                         _______ _______ _______ _____ _____    ______ ____
ROOT
ATOM      1  C   LIG A   1      -5.542  -0.400 125.371  0.00  0.00    +0.011 C 
ATOM      2  C   LIG A   1      -5.892  -1.909 125.291  0.00  0.00    -0.028 C 
ATOM      3  C   LIG A   1      -4.901  -2.523 124.273  0.00  0.00    +0.011 C 
ATOM      4  C   LIG A   1      -7.393  -2.144 124.886  0.00  0.00    -0.011 C 
ATOM      5  C   LIG A   1      -8.455  -1.986 126.040  0.00  0.00    -0.022 C 
ATOM      6  C   LIG A   1      -8.824  -0.468 126.152  0.00  0.00    +0.034 C 
ATOM      7  C   LIG A   1      -9.134   0.154 124.800  0.00  0.00    -0.027 C 
ATOM      8  C   LIG A   1      -8.937  -0.544 123.689  0.00  0.00    -0.073 C 
ATOM      9  C   LIG A   1      -9.941  -0.529 122.563  0.00  0.00    +0.039 C 
ATOM     10  C   LIG A   1      -7.790  -1.465 123.563  0.00  0.00    +0.022 C 
ATOM     11  C   LIG A   1      -7.801  -2.944 123.639  0.00  0.00    +0.017 C 
ATOM     12  C   LIG A   1      -9.762  -2.806 125.771  0.00  0.00    +0.012 C 
ATOM     13  C   LIG A   1      -7.953  -2.545 127.390  0.00  0.00    +0.007 C 
ATOM     14  C   LIG A   1      -6.542  -2.140 127.755  0.00  0.00    +0.001 C 
ATOM     15  C   LIG A   1      -5.590  -2.573 126.651  0.00  0.00    +0.007 C 
ENDROOT
TORSDOF 0
ENDMDL
