MODEL 1
REMARK VINA RESULT:      -7.4      0.000      0.000
REMARK  Name = NuBBE_554
REMARK  8 active torsions:
REMARK  status: ('A' for Active; 'I' for Inactive)
REMARK    1  A    between atoms: O_1  and  C_2
REMARK    2  A    between atoms: C_2  and  C_4
REMARK    3  A    between atoms: C_2  and  C_16
REMARK    4  A    between atoms: C_4  and  C_5
REMARK    5  A    between atoms: C_5  and  O_7
REMARK    6  A    between atoms: C_5  and  C_8
REMARK    7  A    between atoms: C_8  and  C_9
REMARK    8  A    between atoms: C_17  and  C_18
REMARK                            x       y       z     vdW  Elec       q    Type
REMARK                         _______ _______ _______ _____ _____    ______ ____
ROOT
ATOM      1  C   LIG A   1      -9.768   4.894 131.475  0.00  0.00    +0.067 C 
ENDROOT
BRANCH   1   2
ATOM      2  C   LIG A   1      -9.221   6.172 132.124  0.00  0.00    +0.140 C 
BRANCH   2   3
ATOM      3  O   LIG A   1      -9.718   6.231 133.461  0.00  0.00    -0.388 OA
ATOM      4  H   LIG A   1      -9.814   7.171 133.689  0.00  0.00    +0.210 HD
ENDBRANCH   2   3
BRANCH   2   5
ATOM      5  C   LIG A   1      -7.720   6.275 132.127  0.00  0.00    +0.004 C 
ATOM      6  C   LIG A   1      -6.960   6.893 131.205  0.00  0.00    +0.006 C 
BRANCH   6   7
ATOM      7  C   LIG A   1      -5.490   6.892 131.212  0.00  0.00    -0.025 A 
ATOM      8  C   LIG A   1      -4.737   7.620 130.282  0.00  0.00    +0.008 A 
ATOM      9  C   LIG A   1      -3.343   7.615 130.339  0.00  0.00    +0.001 A 
ATOM     10  C   LIG A   1      -2.687   6.865 131.311  0.00  0.00    +0.000 A 
ATOM     11  C   LIG A   1      -3.424   6.109 132.222  0.00  0.00    +0.001 A 
ATOM     12  C   LIG A   1      -4.819   6.117 132.168  0.00  0.00    +0.008 A 
ENDBRANCH   6   7
ENDBRANCH   2   5
ENDBRANCH   1   2
BRANCH   1  13
ATOM     13  C   LIG A   1     -10.806   5.062 130.358  0.00  0.00    +0.121 C 
BRANCH  13  14
ATOM     14  O   LIG A   1     -11.550   3.839 130.282  0.00  0.00    -0.392 OA
ATOM     15  H   LIG A   1     -10.949   3.115 130.534  0.00  0.00    +0.210 HD
ENDBRANCH  13  14
BRANCH  13  16
ATOM     16  C   LIG A   1     -11.811   6.196 130.610  0.00  0.00    +0.076 C 
BRANCH  16  17
ATOM     17  C   LIG A   1     -12.606   6.568 129.341  0.00  0.00    +0.183 C 
ATOM     18  O   LIG A   1     -11.815   6.250 128.167  0.00  0.00    -0.458 OA
ATOM     19  C   LIG A   1     -10.852   7.095 127.742  0.00  0.00    +0.332 C 
ATOM     20  C   LIG A   1     -10.920   8.488 128.233  0.00  0.00    +0.087 C 
ATOM     21  C   LIG A   1     -11.953   8.939 128.934  0.00  0.00    -0.016 C 
ATOM     22  C   LIG A   1     -13.068   8.028 129.316  0.00  0.00    +0.072 C 
ATOM     23  O   LIG A   1      -9.972   6.739 126.978  0.00  0.00    -0.246 OA
ENDBRANCH  16  17
ENDBRANCH  13  16
ENDBRANCH   1  13
TORSDOF 8
ENDMDL
MODEL 2
REMARK VINA RESULT:      -7.3      8.828     10.736
REMARK  Name = NuBBE_554
REMARK  8 active torsions:
REMARK  status: ('A' for Active; 'I' for Inactive)
REMARK    1  A    between atoms: O_1  and  C_2
REMARK    2  A    between atoms: C_2  and  C_4
REMARK    3  A    between atoms: C_2  and  C_16
REMARK    4  A    between atoms: C_4  and  C_5
REMARK    5  A    between atoms: C_5  and  O_7
REMARK    6  A    between atoms: C_5  and  C_8
REMARK    7  A    between atoms: C_8  and  C_9
REMARK    8  A    between atoms: C_17  and  C_18
REMARK                            x       y       z     vdW  Elec       q    Type
REMARK                         _______ _______ _______ _____ _____    ______ ____
ROOT
ATOM      1  C   LIG A   1      -7.267   1.855 124.830  0.00  0.00    +0.067 C 
ENDROOT
BRANCH   1   2
ATOM      2  C   LIG A   1      -8.473   2.210 123.951  0.00  0.00    +0.140 C 
BRANCH   2   3
ATOM      3  O   LIG A   1      -9.379   2.979 124.742  0.00  0.00    -0.388 OA
ATOM      4  H   LIG A   1      -9.671   3.728 124.194  0.00  0.00    +0.210 HD
ENDBRANCH   2   3
BRANCH   2   5
ATOM      5  C   LIG A   1      -8.127   2.955 122.691  0.00  0.00    +0.004 C 
ATOM      6  C   LIG A   1      -6.903   3.084 122.149  0.00  0.00    +0.006 C 
BRANCH   6   7
ATOM      7  C   LIG A   1      -6.607   3.895 120.960  0.00  0.00    -0.025 A 
ATOM      8  C   LIG A   1      -5.406   4.601 120.815  0.00  0.00    +0.008 A 
ATOM      9  C   LIG A   1      -5.151   5.338 119.658  0.00  0.00    +0.001 A 
ATOM     10  C   LIG A   1      -6.103   5.395 118.643  0.00  0.00    +0.000 A 
ATOM     11  C   LIG A   1      -7.316   4.724 118.788  0.00  0.00    +0.001 A 
ATOM     12  C   LIG A   1      -7.569   3.983 119.944  0.00  0.00    +0.008 A 
ENDBRANCH   6   7
ENDBRANCH   2   5
ENDBRANCH   1   2
BRANCH   1  13
ATOM     13  C   LIG A   1      -7.106   0.385 125.243  0.00  0.00    +0.121 C 
BRANCH  13  14
ATOM     14  O   LIG A   1      -6.331   0.366 126.448  0.00  0.00    -0.392 OA
ATOM     15  H   LIG A   1      -6.128  -0.565 126.651  0.00  0.00    +0.210 HD
ENDBRANCH  13  14
BRANCH  13  16
ATOM     16  C   LIG A   1      -8.436  -0.324 125.541  0.00  0.00    +0.076 C 
BRANCH  16  17
ATOM     17  C   LIG A   1      -8.229  -1.732 126.136  0.00  0.00    +0.183 C 
ATOM     18  O   LIG A   1      -6.981  -2.284 125.642  0.00  0.00    -0.458 OA
ATOM     19  C   LIG A   1      -6.922  -2.854 124.420  0.00  0.00    +0.332 C 
ATOM     20  C   LIG A   1      -8.205  -3.265 123.810  0.00  0.00    +0.087 C 
ATOM     21  C   LIG A   1      -9.350  -3.221 124.480  0.00  0.00    -0.016 C 
ATOM     22  C   LIG A   1      -9.398  -2.685 125.870  0.00  0.00    +0.072 C 
ATOM     23  O   LIG A   1      -5.864  -3.040 123.844  0.00  0.00    -0.246 OA
ENDBRANCH  16  17
ENDBRANCH  13  16
ENDBRANCH   1  13
TORSDOF 8
ENDMDL
MODEL 3
REMARK VINA RESULT:      -7.3      9.310     11.235
REMARK  Name = NuBBE_554
REMARK  8 active torsions:
REMARK  status: ('A' for Active; 'I' for Inactive)
REMARK    1  A    between atoms: O_1  and  C_2
REMARK    2  A    between atoms: C_2  and  C_4
REMARK    3  A    between atoms: C_2  and  C_16
REMARK    4  A    between atoms: C_4  and  C_5
REMARK    5  A    between atoms: C_5  and  O_7
REMARK    6  A    between atoms: C_5  and  C_8
REMARK    7  A    between atoms: C_8  and  C_9
REMARK    8  A    between atoms: C_17  and  C_18
REMARK                            x       y       z     vdW  Elec       q    Type
REMARK                         _______ _______ _______ _____ _____    ______ ____
ROOT
ATOM      1  C   LIG A   1      -9.868   0.179 122.970  0.00  0.00    +0.067 C 
ENDROOT
BRANCH   1   2
ATOM      2  C   LIG A   1      -9.979   1.702 123.111  0.00  0.00    +0.140 C 
BRANCH   2   3
ATOM      3  O   LIG A   1     -10.133   2.003 124.497  0.00  0.00    -0.388 OA
ATOM      4  H   LIG A   1     -10.227   2.968 124.572  0.00  0.00    +0.210 HD
ENDBRANCH   2   3
BRANCH   2   5
ATOM      5  C   LIG A   1      -8.814   2.466 122.543  0.00  0.00    +0.004 C 
ATOM      6  C   LIG A   1      -8.776   3.102 121.358  0.00  0.00    +0.006 C 
BRANCH   6   7
ATOM      7  C   LIG A   1      -7.582   3.763 120.814  0.00  0.00    -0.025 A 
ATOM      8  C   LIG A   1      -6.380   3.843 121.528  0.00  0.00    +0.008 A 
ATOM      9  C   LIG A   1      -5.260   4.455 120.964  0.00  0.00    +0.001 A 
ATOM     10  C   LIG A   1      -5.335   5.013 119.691  0.00  0.00    +0.000 A 
ATOM     11  C   LIG A   1      -6.535   4.969 118.982  0.00  0.00    +0.001 A 
ATOM     12  C   LIG A   1      -7.655   4.353 119.544  0.00  0.00    +0.008 A 
ENDBRANCH   6   7
ENDBRANCH   2   5
ENDBRANCH   1   2
BRANCH   1  13
ATOM     13  C   LIG A   1      -8.879  -0.542 123.896  0.00  0.00    +0.121 C 
BRANCH  13  14
ATOM     14  O   LIG A   1      -9.649  -1.212 124.901  0.00  0.00    -0.392 OA
ATOM     15  H   LIG A   1      -9.941  -0.539 125.543  0.00  0.00    +0.210 HD
ENDBRANCH  13  14
BRANCH  13  16
ATOM     16  C   LIG A   1      -8.026  -1.604 123.186  0.00  0.00    +0.076 C 
BRANCH  16  17
ATOM     17  C   LIG A   1      -6.527  -1.241 123.173  0.00  0.00    +0.183 C 
ATOM     18  O   LIG A   1      -5.743  -2.443 122.956  0.00  0.00    -0.458 OA
ATOM     19  C   LIG A   1      -5.473  -3.278 123.981  0.00  0.00    +0.332 C 
ATOM     20  C   LIG A   1      -5.627  -2.732 125.347  0.00  0.00    +0.087 C 
ATOM     21  C   LIG A   1      -5.870  -1.447 125.569  0.00  0.00    -0.016 C 
ATOM     22  C   LIG A   1      -6.066  -0.503 124.433  0.00  0.00    +0.072 C 
ATOM     23  O   LIG A   1      -5.105  -4.426 123.800  0.00  0.00    -0.246 OA
ENDBRANCH  16  17
ENDBRANCH  13  16
ENDBRANCH   1  13
TORSDOF 8
ENDMDL
MODEL 4
REMARK VINA RESULT:      -7.3      7.511      9.654
REMARK  Name = NuBBE_554
REMARK  8 active torsions:
REMARK  status: ('A' for Active; 'I' for Inactive)
REMARK    1  A    between atoms: O_1  and  C_2
REMARK    2  A    between atoms: C_2  and  C_4
REMARK    3  A    between atoms: C_2  and  C_16
REMARK    4  A    between atoms: C_4  and  C_5
REMARK    5  A    between atoms: C_5  and  O_7
REMARK    6  A    between atoms: C_5  and  C_8
REMARK    7  A    between atoms: C_8  and  C_9
REMARK    8  A    between atoms: C_17  and  C_18
REMARK                            x       y       z     vdW  Elec       q    Type
REMARK                         _______ _______ _______ _____ _____    ______ ____
ROOT
ATOM      1  C   LIG A   1      -7.608   3.807 124.853  0.00  0.00    +0.067 C 
ENDROOT
BRANCH   1   2
ATOM      2  C   LIG A   1      -8.359   2.991 123.794  0.00  0.00    +0.140 C 
BRANCH   2   3
ATOM      3  O   LIG A   1      -8.336   3.731 122.574  0.00  0.00    -0.388 OA
ATOM      4  H   LIG A   1      -8.206   4.666 122.810  0.00  0.00    +0.210 HD
ENDBRANCH   2   3
BRANCH   2   5
ATOM      5  C   LIG A   1      -7.809   1.608 123.569  0.00  0.00    +0.004 C 
ATOM      6  C   LIG A   1      -7.185   0.838 124.479  0.00  0.00    +0.006 C 
BRANCH   6   7
ATOM      7  C   LIG A   1      -6.592  -0.473 124.183  0.00  0.00    -0.025 A 
ATOM      8  C   LIG A   1      -6.627  -1.039 122.902  0.00  0.00    +0.008 A 
ATOM      9  C   LIG A   1      -6.027  -2.274 122.655  0.00  0.00    +0.001 A 
ATOM     10  C   LIG A   1      -5.405  -2.967 123.690  0.00  0.00    +0.000 A 
ATOM     11  C   LIG A   1      -5.392  -2.431 124.977  0.00  0.00    +0.001 A 
ATOM     12  C   LIG A   1      -5.988  -1.193 125.223  0.00  0.00    +0.008 A 
ENDBRANCH   6   7
ENDBRANCH   2   5
ENDBRANCH   1   2
BRANCH   1  13
ATOM     13  C   LIG A   1      -6.350   4.561 124.399  0.00  0.00    +0.121 C 
BRANCH  13  14
ATOM     14  O   LIG A   1      -6.428   5.883 124.944  0.00  0.00    -0.392 OA
ATOM     15  H   LIG A   1      -5.710   6.408 124.545  0.00  0.00    +0.210 HD
ENDBRANCH  13  14
BRANCH  13  16
ATOM     16  C   LIG A   1      -5.038   3.935 124.895  0.00  0.00    +0.076 C 
BRANCH  16  17
ATOM     17  C   LIG A   1      -5.125   3.482 126.368  0.00  0.00    +0.183 C 
ATOM     18  O   LIG A   1      -5.178   4.650 127.227  0.00  0.00    -0.458 OA
ATOM     19  C   LIG A   1      -4.046   5.308 127.557  0.00  0.00    +0.332 C 
ATOM     20  C   LIG A   1      -2.771   4.580 127.374  0.00  0.00    +0.087 C 
ATOM     21  C   LIG A   1      -2.734   3.295 127.048  0.00  0.00    -0.016 C 
ATOM     22  C   LIG A   1      -3.992   2.540 126.784  0.00  0.00    +0.072 C 
ATOM     23  O   LIG A   1      -4.064   6.444 127.999  0.00  0.00    -0.246 OA
ENDBRANCH  16  17
ENDBRANCH  13  16
ENDBRANCH   1  13
TORSDOF 8
ENDMDL
MODEL 5
REMARK VINA RESULT:      -7.2      8.870     10.661
REMARK  Name = NuBBE_554
REMARK  8 active torsions:
REMARK  status: ('A' for Active; 'I' for Inactive)
REMARK    1  A    between atoms: O_1  and  C_2
REMARK    2  A    between atoms: C_2  and  C_4
REMARK    3  A    between atoms: C_2  and  C_16
REMARK    4  A    between atoms: C_4  and  C_5
REMARK    5  A    between atoms: C_5  and  O_7
REMARK    6  A    between atoms: C_5  and  C_8
REMARK    7  A    between atoms: C_8  and  C_9
REMARK    8  A    between atoms: C_17  and  C_18
REMARK                            x       y       z     vdW  Elec       q    Type
REMARK                         _______ _______ _______ _____ _____    ______ ____
ROOT
ATOM      1  C   LIG A   1      -6.993   1.938 125.265  0.00  0.00    +0.067 C 
ENDROOT
BRANCH   1   2
ATOM      2  C   LIG A   1      -8.171   2.554 124.500  0.00  0.00    +0.140 C 
BRANCH   2   3
ATOM      3  O   LIG A   1      -8.907   3.368 125.412  0.00  0.00    -0.388 OA
ATOM      4  H   LIG A   1      -8.607   4.284 125.283  0.00  0.00    +0.210 HD
ENDBRANCH   2   3
BRANCH   2   5
ATOM      5  C   LIG A   1      -7.775   3.359 123.292  0.00  0.00    +0.004 C 
ATOM      6  C   LIG A   1      -7.056   2.925 122.242  0.00  0.00    +0.006 C 
BRANCH   6   7
ATOM      7  C   LIG A   1      -6.625   3.779 121.126  0.00  0.00    -0.025 A 
ATOM      8  C   LIG A   1      -7.418   3.982 119.990  0.00  0.00    +0.008 A 
ATOM      9  C   LIG A   1      -6.985   4.823 118.964  0.00  0.00    +0.001 A 
ATOM     10  C   LIG A   1      -5.746   5.452 119.053  0.00  0.00    +0.000 A 
ATOM     11  C   LIG A   1      -4.932   5.231 120.163  0.00  0.00    +0.001 A 
ATOM     12  C   LIG A   1      -5.367   4.394 121.192  0.00  0.00    +0.008 A 
ENDBRANCH   6   7
ENDBRANCH   2   5
ENDBRANCH   1   2
BRANCH   1  13
ATOM     13  C   LIG A   1      -7.092   0.450 125.630  0.00  0.00    +0.121 C 
BRANCH  13  14
ATOM     14  O   LIG A   1      -7.393   0.375 127.028  0.00  0.00    -0.392 OA
ATOM     15  H   LIG A   1      -6.763  -0.250 127.431  0.00  0.00    +0.210 HD
ENDBRANCH  13  14
BRANCH  13  16
ATOM     16  C   LIG A   1      -8.203  -0.299 124.880  0.00  0.00    +0.076 C 
BRANCH  16  17
ATOM     17  C   LIG A   1      -7.683  -1.001 123.608  0.00  0.00    +0.183 C 
ATOM     18  O   LIG A   1      -8.751  -1.791 123.024  0.00  0.00    -0.458 OA
ATOM     19  C   LIG A   1      -9.040  -3.016 123.511  0.00  0.00    +0.332 C 
ATOM     20  C   LIG A   1      -8.001  -3.670 124.336  0.00  0.00    +0.087 C 
ATOM     21  C   LIG A   1      -6.785  -3.158 124.474  0.00  0.00    -0.016 C 
ATOM     22  C   LIG A   1      -6.433  -1.853 123.848  0.00  0.00    +0.072 C 
ATOM     23  O   LIG A   1     -10.099  -3.571 123.275  0.00  0.00    -0.246 OA
ENDBRANCH  16  17
ENDBRANCH  13  16
ENDBRANCH   1  13
TORSDOF 8
ENDMDL
MODEL 6
REMARK VINA RESULT:      -7.0      9.526     10.900
REMARK  Name = NuBBE_554
REMARK  8 active torsions:
REMARK  status: ('A' for Active; 'I' for Inactive)
REMARK    1  A    between atoms: O_1  and  C_2
REMARK    2  A    between atoms: C_2  and  C_4
REMARK    3  A    between atoms: C_2  and  C_16
REMARK    4  A    between atoms: C_4  and  C_5
REMARK    5  A    between atoms: C_5  and  O_7
REMARK    6  A    between atoms: C_5  and  C_8
REMARK    7  A    between atoms: C_8  and  C_9
REMARK    8  A    between atoms: C_17  and  C_18
REMARK                            x       y       z     vdW  Elec       q    Type
REMARK                         _______ _______ _______ _____ _____    ______ ____
ROOT
ATOM      1  C   LIG A   1      -8.522   0.450 125.546  0.00  0.00    +0.067 C 
ENDROOT
BRANCH   1   2
ATOM      2  C   LIG A   1      -8.928  -0.744 126.420  0.00  0.00    +0.140 C 
BRANCH   2   3
ATOM      3  O   LIG A   1      -9.688  -1.640 125.609  0.00  0.00    -0.388 OA
ATOM      4  H   LIG A   1     -10.053  -2.320 126.200  0.00  0.00    +0.210 HD
ENDBRANCH   2   3
BRANCH   2   5
ATOM      5  C   LIG A   1      -7.775  -1.472 127.053  0.00  0.00    +0.004 C 
ATOM      6  C   LIG A   1      -7.804  -2.170 128.203  0.00  0.00    +0.006 C 
BRANCH   6   7
ATOM      7  C   LIG A   1      -6.626  -2.793 128.821  0.00  0.00    -0.025 A 
ATOM      8  C   LIG A   1      -5.323  -2.536 128.376  0.00  0.00    +0.008 A 
ATOM      9  C   LIG A   1      -4.228  -3.126 129.008  0.00  0.00    +0.001 A 
ATOM     10  C   LIG A   1      -4.424  -3.997 130.076  0.00  0.00    +0.000 A 
ATOM     11  C   LIG A   1      -5.717  -4.287 130.508  0.00  0.00    +0.001 A 
ATOM     12  C   LIG A   1      -6.813  -3.693 129.880  0.00  0.00    +0.008 A 
ENDBRANCH   6   7
ENDBRANCH   2   5
ENDBRANCH   1   2
BRANCH   1  13
ATOM     13  C   LIG A   1      -8.313   0.186 124.048  0.00  0.00    +0.121 C 
BRANCH  13  14
ATOM     14  O   LIG A   1      -8.404   1.449 123.379  0.00  0.00    -0.392 OA
ATOM     15  H   LIG A   1      -9.328   1.752 123.447  0.00  0.00    +0.210 HD
ENDBRANCH  13  14
BRANCH  13  16
ATOM     16  C   LIG A   1      -6.942  -0.416 123.710  0.00  0.00    +0.076 C 
BRANCH  16  17
ATOM     17  C   LIG A   1      -7.048  -1.601 122.727  0.00  0.00    +0.183 C 
ATOM     18  O   LIG A   1      -7.894  -2.629 123.303  0.00  0.00    -0.458 OA
ATOM     19  C   LIG A   1      -7.394  -3.499 124.207  0.00  0.00    +0.332 C 
ATOM     20  C   LIG A   1      -5.922  -3.635 124.262  0.00  0.00    +0.087 C 
ATOM     21  C   LIG A   1      -5.127  -3.052 123.374  0.00  0.00    -0.016 C 
ATOM     22  C   LIG A   1      -5.690  -2.173 122.310  0.00  0.00    +0.072 C 
ATOM     23  O   LIG A   1      -8.115  -4.156 124.937  0.00  0.00    -0.246 OA
ENDBRANCH  16  17
ENDBRANCH  13  16
ENDBRANCH   1  13
TORSDOF 8
ENDMDL
MODEL 7
REMARK VINA RESULT:      -7.0      7.215     10.086
REMARK  Name = NuBBE_554
REMARK  8 active torsions:
REMARK  status: ('A' for Active; 'I' for Inactive)
REMARK    1  A    between atoms: O_1  and  C_2
REMARK    2  A    between atoms: C_2  and  C_4
REMARK    3  A    between atoms: C_2  and  C_16
REMARK    4  A    between atoms: C_4  and  C_5
REMARK    5  A    between atoms: C_5  and  O_7
REMARK    6  A    between atoms: C_5  and  C_8
REMARK    7  A    between atoms: C_8  and  C_9
REMARK    8  A    between atoms: C_17  and  C_18
REMARK                            x       y       z     vdW  Elec       q    Type
REMARK                         _______ _______ _______ _____ _____    ______ ____
ROOT
ATOM      1  C   LIG A   1      -6.472   3.041 123.524  0.00  0.00    +0.067 C 
ENDROOT
BRANCH   1   2
ATOM      2  C   LIG A   1      -7.998   2.920 123.626  0.00  0.00    +0.140 C 
BRANCH   2   3
ATOM      3  O   LIG A   1      -8.568   3.629 122.527  0.00  0.00    -0.388 OA
ATOM      4  H   LIG A   1      -9.277   4.190 122.886  0.00  0.00    +0.210 HD
ENDBRANCH   2   3
BRANCH   2   5
ATOM      5  C   LIG A   1      -8.509   1.505 123.649  0.00  0.00    +0.004 C 
ATOM      6  C   LIG A   1      -8.043   0.498 124.409  0.00  0.00    +0.006 C 
BRANCH   6   7
ATOM      7  C   LIG A   1      -8.525  -0.888 124.330  0.00  0.00    -0.025 A 
ATOM      8  C   LIG A   1      -8.644  -1.571 123.113  0.00  0.00    +0.008 A 
ATOM      9  C   LIG A   1      -9.078  -2.896 123.083  0.00  0.00    +0.001 A 
ATOM     10  C   LIG A   1      -9.420  -3.546 124.266  0.00  0.00    +0.000 A 
ATOM     11  C   LIG A   1      -9.339  -2.867 125.481  0.00  0.00    +0.001 A 
ATOM     12  C   LIG A   1      -8.899  -1.543 125.512  0.00  0.00    +0.008 A 
ENDBRANCH   6   7
ENDBRANCH   2   5
ENDBRANCH   1   2
BRANCH   1  13
ATOM     13  C   LIG A   1      -5.840   4.365 123.974  0.00  0.00    +0.121 C 
BRANCH  13  14
ATOM     14  O   LIG A   1      -6.846   5.093 124.690  0.00  0.00    -0.392 OA
ATOM     15  H   LIG A   1      -7.630   5.152 124.114  0.00  0.00    +0.210 HD
ENDBRANCH  13  14
BRANCH  13  16
ATOM     16  C   LIG A   1      -4.640   4.191 124.917  0.00  0.00    +0.076 C 
BRANCH  16  17
ATOM     17  C   LIG A   1      -5.073   3.904 126.370  0.00  0.00    +0.183 C 
ATOM     18  O   LIG A   1      -5.153   5.153 127.104  0.00  0.00    -0.458 OA
ATOM     19  C   LIG A   1      -4.038   5.722 127.609  0.00  0.00    +0.332 C 
ATOM     20  C   LIG A   1      -2.851   4.851 127.756  0.00  0.00    +0.087 C 
ATOM     21  C   LIG A   1      -2.906   3.542 127.548  0.00  0.00    -0.016 C 
ATOM     22  C   LIG A   1      -4.169   2.898 127.089  0.00  0.00    +0.072 C 
ATOM     23  O   LIG A   1      -4.005   6.893 127.945  0.00  0.00    -0.246 OA
ENDBRANCH  16  17
ENDBRANCH  13  16
ENDBRANCH   1  13
TORSDOF 8
ENDMDL
MODEL 8
REMARK VINA RESULT:      -6.8      4.348      5.869
REMARK  Name = NuBBE_554
REMARK  8 active torsions:
REMARK  status: ('A' for Active; 'I' for Inactive)
REMARK    1  A    between atoms: O_1  and  C_2
REMARK    2  A    between atoms: C_2  and  C_4
REMARK    3  A    between atoms: C_2  and  C_16
REMARK    4  A    between atoms: C_4  and  C_5
REMARK    5  A    between atoms: C_5  and  O_7
REMARK    6  A    between atoms: C_5  and  C_8
REMARK    7  A    between atoms: C_8  and  C_9
REMARK    8  A    between atoms: C_17  and  C_18
REMARK                            x       y       z     vdW  Elec       q    Type
REMARK                         _______ _______ _______ _____ _____    ______ ____
ROOT
ATOM      1  C   LIG A   1      -8.577   4.057 134.438  0.00  0.00    +0.067 C 
ENDROOT
BRANCH   1   2
ATOM      2  C   LIG A   1      -7.402   4.810 135.077  0.00  0.00    +0.140 C 
BRANCH   2   3
ATOM      3  O   LIG A   1      -6.444   5.073 134.052  0.00  0.00    -0.388 OA
ATOM      4  H   LIG A   1      -6.188   4.215 133.673  0.00  0.00    +0.210 HD
ENDBRANCH   2   3
BRANCH   2   5
ATOM      5  C   LIG A   1      -7.786   6.091 135.766  0.00  0.00    +0.004 C 
ATOM      6  C   LIG A   1      -7.816   6.306 137.094  0.00  0.00    +0.006 C 
BRANCH   6   7
ATOM      7  C   LIG A   1      -8.280   7.553 137.718  0.00  0.00    -0.025 A 
ATOM      8  C   LIG A   1      -9.385   8.265 137.235  0.00  0.00    +0.008 A 
ATOM      9  C   LIG A   1      -9.811   9.431 137.873  0.00  0.00    +0.001 A 
ATOM     10  C   LIG A   1      -9.125   9.908 138.986  0.00  0.00    +0.000 A 
ATOM     11  C   LIG A   1      -8.003   9.227 139.457  0.00  0.00    +0.001 A 
ATOM     12  C   LIG A   1      -7.579   8.059 138.822  0.00  0.00    +0.008 A 
ENDBRANCH   6   7
ENDBRANCH   2   5
ENDBRANCH   1   2
BRANCH   1  13
ATOM     13  C   LIG A   1      -8.465   3.715 132.947  0.00  0.00    +0.121 C 
BRANCH  13  14
ATOM     14  O   LIG A   1      -8.752   2.318 132.809  0.00  0.00    -0.392 OA
ATOM     15  H   LIG A   1      -7.902   1.852 132.708  0.00  0.00    +0.210 HD
ENDBRANCH  13  14
BRANCH  13  16
ATOM     16  C   LIG A   1      -9.459   4.478 132.058  0.00  0.00    +0.076 C 
BRANCH  16  17
ATOM     17  C   LIG A   1      -9.409   6.001 132.297  0.00  0.00    +0.183 C 
ATOM     18  O   LIG A   1     -10.751   6.493 132.546  0.00  0.00    -0.458 OA
ATOM     19  C   LIG A   1     -11.590   6.740 131.518  0.00  0.00    +0.332 C 
ATOM     20  C   LIG A   1     -10.981   6.897 130.179  0.00  0.00    +0.087 C 
ATOM     21  C   LIG A   1      -9.666   6.946 130.005  0.00  0.00    -0.016 C 
ATOM     22  C   LIG A   1      -8.739   6.776 131.159  0.00  0.00    +0.072 C 
ATOM     23  O   LIG A   1     -12.794   6.845 131.677  0.00  0.00    -0.246 OA
ENDBRANCH  16  17
ENDBRANCH  13  16
ENDBRANCH   1  13
TORSDOF 8
ENDMDL
MODEL 9
REMARK VINA RESULT:      -6.7      3.717      5.133
REMARK  Name = NuBBE_554
REMARK  8 active torsions:
REMARK  status: ('A' for Active; 'I' for Inactive)
REMARK    1  A    between atoms: O_1  and  C_2
REMARK    2  A    between atoms: C_2  and  C_4
REMARK    3  A    between atoms: C_2  and  C_16
REMARK    4  A    between atoms: C_4  and  C_5
REMARK    5  A    between atoms: C_5  and  O_7
REMARK    6  A    between atoms: C_5  and  C_8
REMARK    7  A    between atoms: C_8  and  C_9
REMARK    8  A    between atoms: C_17  and  C_18
REMARK                            x       y       z     vdW  Elec       q    Type
REMARK                         _______ _______ _______ _____ _____    ______ ____
ROOT
ATOM      1  C   LIG A   1      -8.829   5.072 131.865  0.00  0.00    +0.067 C 
ENDROOT
BRANCH   1   2
ATOM      2  C   LIG A   1      -8.624   3.648 132.398  0.00  0.00    +0.140 C 
BRANCH   2   3
ATOM      3  O   LIG A   1      -9.734   3.332 133.238  0.00  0.00    -0.388 OA
ATOM      4  H   LIG A   1     -10.437   3.973 133.036  0.00  0.00    +0.210 HD
ENDBRANCH   2   3
BRANCH   2   5
ATOM      5  C   LIG A   1      -8.471   2.600 131.329  0.00  0.00    +0.004 C 
ATOM      6  C   LIG A   1      -8.325   1.276 131.523  0.00  0.00    +0.006 C 
BRANCH   6   7
ATOM      7  C   LIG A   1      -8.094   0.305 130.445  0.00  0.00    -0.025 A 
ATOM      8  C   LIG A   1      -7.892   0.697 129.115  0.00  0.00    +0.008 A 
ATOM      9  C   LIG A   1      -7.647  -0.256 128.125  0.00  0.00    +0.001 A 
ATOM     10  C   LIG A   1      -7.625  -1.609 128.448  0.00  0.00    +0.000 A 
ATOM     11  C   LIG A   1      -7.858  -2.015 129.762  0.00  0.00    +0.001 A 
ATOM     12  C   LIG A   1      -8.098  -1.063 130.754  0.00  0.00    +0.008 A 
ENDBRANCH   6   7
ENDBRANCH   2   5
ENDBRANCH   1   2
BRANCH   1  13
ATOM     13  C   LIG A   1     -10.260   5.627 131.877  0.00  0.00    +0.121 C 
BRANCH  13  14
ATOM     14  O   LIG A   1     -10.378   6.471 133.029  0.00  0.00    -0.392 OA
ATOM     15  H   LIG A   1     -10.551   7.376 132.713  0.00  0.00    +0.210 HD
ENDBRANCH  13  14
BRANCH  13  16
ATOM     16  C   LIG A   1     -10.605   6.480 130.647  0.00  0.00    +0.076 C 
BRANCH  16  17
ATOM     17  C   LIG A   1     -12.116   6.474 130.334  0.00  0.00    +0.183 C 
ATOM     18  O   LIG A   1     -12.318   6.122 128.941  0.00  0.00    -0.458 OA
ATOM     19  C   LIG A   1     -12.180   7.053 127.974  0.00  0.00    +0.332 C 
ATOM     20  C   LIG A   1     -12.240   8.469 128.395  0.00  0.00    +0.087 C 
ATOM     21  C   LIG A   1     -12.562   8.824 129.632  0.00  0.00    -0.016 C 
ATOM     22  C   LIG A   1     -12.816   7.792 130.677  0.00  0.00    +0.072 C 
ATOM     23  O   LIG A   1     -12.028   6.750 126.803  0.00  0.00    -0.246 OA
ENDBRANCH  16  17
ENDBRANCH  13  16
ENDBRANCH   1  13
TORSDOF 8
ENDMDL
