MODEL 1
REMARK VINA RESULT:      -8.0      0.000      0.000
REMARK  Name = NuBBE_999
REMARK  10 active torsions:
REMARK  status: ('A' for Active; 'I' for Inactive)
REMARK    1  A    between atoms: C_1  and  C_2
REMARK    2  A    between atoms: C_6  and  C_8
REMARK    3  A    between atoms: C_8  and  C_9
REMARK    4  A    between atoms: C_16  and  O_18
REMARK    5  A    between atoms: O_18  and  C_19
REMARK    6  A    between atoms: C_19  and  C_20
REMARK    7  A    between atoms: C_22  and  O_24
REMARK    8  A    between atoms: O_24  and  C_25
REMARK    9  A    between atoms: C_25  and  C_26
REMARK   10  A    between atoms: C_29  and  C_30
REMARK                            x       y       z     vdW  Elec       q    Type
REMARK                         _______ _______ _______ _____ _____    ______ ____
ROOT
ATOM      1  C   LIG A   1      -4.249  -1.551 131.880  0.00  0.00    +0.012 C 
ATOM      2  C   LIG A   1      -4.693  -2.944 131.368  0.00  0.00    -0.019 C 
ATOM      3  C   LIG A   1      -6.214  -2.868 131.040  0.00  0.00    +0.006 C 
ATOM      4  C   LIG A   1      -6.965  -3.418 132.256  0.00  0.00    +0.079 C 
ATOM      5  C   LIG A   1      -5.914  -4.049 133.110  0.00  0.00    +0.137 C 
ATOM      6  C   LIG A   1      -4.547  -4.055 132.463  0.00  0.00    +0.061 C 
ATOM      7  O   LIG A   1      -6.188  -4.564 134.187  0.00  0.00    -0.297 OA
ATOM      8  C   LIG A   1      -6.630  -3.513 129.691  0.00  0.00    -0.003 C 
ATOM      9  C   LIG A   1      -8.158  -3.395 129.493  0.00  0.00    +0.004 C 
ATOM     10  C   LIG A   1      -8.651  -3.432 128.059  0.00  0.00    +0.004 C 
ATOM     11  C   LIG A   1      -7.776  -2.709 127.029  0.00  0.00    -0.001 C 
ATOM     12  C   LIG A   1      -8.628  -1.858 126.101  0.00  0.00    +0.052 C 
ATOM     13  C   LIG A   1      -7.845  -1.335 124.892  0.00  0.00    +0.217 C 
ATOM     14  C   LIG A   1      -6.504  -0.655 125.295  0.00  0.00    +0.217 C 
ATOM     15  C   LIG A   1      -5.717  -1.479 126.346  0.00  0.00    +0.055 C 
ATOM     16  C   LIG A   1      -6.559  -1.933 127.589  0.00  0.00    -0.023 C 
ATOM     17  C   LIG A   1      -6.937  -0.666 128.397  0.00  0.00    +0.012 C 
ATOM     18  C   LIG A   1      -5.792  -2.971 128.485  0.00  0.00    -0.001 C 
ATOM     19  C   LIG A   1      -4.368  -2.540 128.879  0.00  0.00    +0.005 C 
ATOM     20  C   LIG A   1      -3.868  -3.298 130.109  0.00  0.00    +0.008 C 
ENDROOT
BRANCH   6  21
ATOM     21  C   LIG A   1      -3.393  -3.857 133.459  0.00  0.00    +0.008 C 
ATOM     22  C   LIG A   1      -2.612  -5.128 133.787  0.00  0.00    +0.004 C 
ENDBRANCH   6  21
BRANCH  13  23
ATOM     23  O   LIG A   1      -8.666  -0.365 124.201  0.00  0.00    -0.458 OA
BRANCH  23  24
ATOM     24  C   LIG A   1      -9.323  -0.768 123.074  0.00  0.00    +0.304 C 
ATOM     25  C   LIG A   1      -8.634  -1.957 122.482  0.00  0.00    +0.136 C 
ATOM     26  O   LIG A   1     -10.257  -0.195 122.552  0.00  0.00    -0.251 OA
ENDBRANCH  23  24
ENDBRANCH  13  23
BRANCH  14  27
ATOM     27  O   LIG A   1      -6.783   0.657 125.840  0.00  0.00    -0.458 OA
BRANCH  27  28
ATOM     28  C   LIG A   1      -6.085   1.699 125.315  0.00  0.00    +0.304 C 
ATOM     29  C   LIG A   1      -4.913   2.017 126.194  0.00  0.00    +0.136 C 
ATOM     30  O   LIG A   1      -6.377   2.325 124.302  0.00  0.00    -0.251 OA
ENDBRANCH  27  28
ENDBRANCH  14  27
TORSDOF 5
ENDMDL
MODEL 2
REMARK VINA RESULT:      -8.0      4.178      7.813
REMARK  Name = NuBBE_999
REMARK  10 active torsions:
REMARK  status: ('A' for Active; 'I' for Inactive)
REMARK    1  A    between atoms: C_1  and  C_2
REMARK    2  A    between atoms: C_6  and  C_8
REMARK    3  A    between atoms: C_8  and  C_9
REMARK    4  A    between atoms: C_16  and  O_18
REMARK    5  A    between atoms: O_18  and  C_19
REMARK    6  A    between atoms: C_19  and  C_20
REMARK    7  A    between atoms: C_22  and  O_24
REMARK    8  A    between atoms: O_24  and  C_25
REMARK    9  A    between atoms: C_25  and  C_26
REMARK   10  A    between atoms: C_29  and  C_30
REMARK                            x       y       z     vdW  Elec       q    Type
REMARK                         _______ _______ _______ _____ _____    ______ ____
ROOT
ATOM      1  C   LIG A   1      -7.455  -2.604 126.151  0.00  0.00    +0.012 C 
ATOM      2  C   LIG A   1      -6.347  -1.617 125.706  0.00  0.00    -0.019 C 
ATOM      3  C   LIG A   1      -7.035  -0.278 125.306  0.00  0.00    +0.006 C 
ATOM      4  C   LIG A   1      -7.202  -0.295 123.783  0.00  0.00    +0.079 C 
ATOM      5  C   LIG A   1      -6.382  -1.452 123.314  0.00  0.00    +0.137 C 
ATOM      6  C   LIG A   1      -5.591  -2.109 124.425  0.00  0.00    +0.061 C 
ATOM      7  O   LIG A   1      -6.325  -1.759 122.130  0.00  0.00    -0.297 OA
ATOM      8  C   LIG A   1      -6.354   1.003 125.856  0.00  0.00    -0.003 C 
ATOM      9  C   LIG A   1      -7.113   2.259 125.373  0.00  0.00    +0.004 C 
ATOM     10  C   LIG A   1      -6.966   3.501 126.232  0.00  0.00    +0.004 C 
ATOM     11  C   LIG A   1      -6.935   3.269 127.747  0.00  0.00    -0.001 C 
ATOM     12  C   LIG A   1      -7.834   4.264 128.462  0.00  0.00    +0.052 C 
ATOM     13  C   LIG A   1      -7.631   4.259 129.982  0.00  0.00    +0.217 C 
ATOM     14  C   LIG A   1      -7.690   2.828 130.589  0.00  0.00    +0.217 C 
ATOM     15  C   LIG A   1      -6.873   1.802 129.762  0.00  0.00    +0.055 C 
ATOM     16  C   LIG A   1      -7.170   1.815 128.222  0.00  0.00    -0.023 C 
ATOM     17  C   LIG A   1      -8.620   1.310 128.012  0.00  0.00    +0.012 C 
ATOM     18  C   LIG A   1      -6.142   0.949 127.407  0.00  0.00    -0.001 C 
ATOM     19  C   LIG A   1      -5.948  -0.480 127.944  0.00  0.00    +0.005 C 
ATOM     20  C   LIG A   1      -5.363  -1.409 126.880  0.00  0.00    +0.008 C 
ENDROOT
BRANCH   6  21
ATOM     21  C   LIG A   1      -5.466  -3.633 124.273  0.00  0.00    +0.008 C 
ATOM     22  C   LIG A   1      -4.170  -4.102 123.615  0.00  0.00    +0.004 C 
ENDBRANCH   6  21
BRANCH  13  23
ATOM     23  O   LIG A   1      -8.674   5.061 130.585  0.00  0.00    -0.458 OA
BRANCH  23  24
ATOM     24  C   LIG A   1      -8.305   6.030 131.473  0.00  0.00    +0.304 C 
ATOM     25  C   LIG A   1      -6.898   6.460 131.199  0.00  0.00    +0.136 C 
ATOM     26  O   LIG A   1      -8.961   6.416 132.418  0.00  0.00    -0.251 OA
ENDBRANCH  23  24
ENDBRANCH  13  23
BRANCH  14  27
ATOM     27  O   LIG A   1      -9.070   2.393 130.645  0.00  0.00    -0.458 OA
BRANCH  27  28
ATOM     28  C   LIG A   1      -9.458   1.733 131.769  0.00  0.00    +0.304 C 
ATOM     29  C   LIG A   1      -9.369   2.650 132.951  0.00  0.00    +0.136 C 
ATOM     30  O   LIG A   1      -9.792   0.555 131.833  0.00  0.00    -0.251 OA
ENDBRANCH  27  28
ENDBRANCH  14  27
TORSDOF 5
ENDMDL
MODEL 3
REMARK VINA RESULT:      -8.0      3.955      7.202
REMARK  Name = NuBBE_999
REMARK  10 active torsions:
REMARK  status: ('A' for Active; 'I' for Inactive)
REMARK    1  A    between atoms: C_1  and  C_2
REMARK    2  A    between atoms: C_6  and  C_8
REMARK    3  A    between atoms: C_8  and  C_9
REMARK    4  A    between atoms: C_16  and  O_18
REMARK    5  A    between atoms: O_18  and  C_19
REMARK    6  A    between atoms: C_19  and  C_20
REMARK    7  A    between atoms: C_22  and  O_24
REMARK    8  A    between atoms: O_24  and  C_25
REMARK    9  A    between atoms: C_25  and  C_26
REMARK   10  A    between atoms: C_29  and  C_30
REMARK                            x       y       z     vdW  Elec       q    Type
REMARK                         _______ _______ _______ _____ _____    ______ ____
ROOT
ATOM      1  C   LIG A   1      -6.016  -1.992 125.927  0.00  0.00    +0.012 C 
ATOM      2  C   LIG A   1      -7.404  -1.483 126.388  0.00  0.00    -0.019 C 
ATOM      3  C   LIG A   1      -7.320  -1.187 127.915  0.00  0.00    +0.006 C 
ATOM      4  C   LIG A   1      -7.873  -2.416 128.643  0.00  0.00    +0.079 C 
ATOM      5  C   LIG A   1      -8.513  -3.244 127.577  0.00  0.00    +0.137 C 
ATOM      6  C   LIG A   1      -8.522  -2.568 126.224  0.00  0.00    +0.061 C 
ATOM      7  O   LIG A   1      -9.032  -4.324 127.831  0.00  0.00    -0.297 OA
ATOM      8  C   LIG A   1      -7.956   0.156 128.363  0.00  0.00    -0.003 C 
ATOM      9  C   LIG A   1      -7.830   0.321 129.893  0.00  0.00    +0.004 C 
ATOM     10  C   LIG A   1      -7.858   1.745 130.417  0.00  0.00    +0.004 C 
ATOM     11  C   LIG A   1      -7.133   2.789 129.560  0.00  0.00    -0.001 C 
ATOM     12  C   LIG A   1      -6.273   3.694 130.428  0.00  0.00    +0.052 C 
ATOM     13  C   LIG A   1      -5.747   4.917 129.668  0.00  0.00    +0.217 C 
ATOM     14  C   LIG A   1      -5.075   4.540 128.316  0.00  0.00    +0.217 C 
ATOM     15  C   LIG A   1      -5.909   3.510 127.511  0.00  0.00    +0.055 C 
ATOM     16  C   LIG A   1      -6.366   2.251 128.328  0.00  0.00    -0.023 C 
ATOM     17  C   LIG A   1      -5.101   1.429 128.683  0.00  0.00    +0.012 C 
ATOM     18  C   LIG A   1      -7.412   1.377 127.547  0.00  0.00    -0.001 C 
ATOM     19  C   LIG A   1      -6.989   1.010 126.113  0.00  0.00    +0.005 C 
ATOM     20  C   LIG A   1      -7.756  -0.205 125.591  0.00  0.00    +0.008 C 
ENDROOT
BRANCH   6  21
ATOM     21  C   LIG A   1      -8.335  -3.541 125.048  0.00  0.00    +0.008 C 
ATOM     22  C   LIG A   1      -9.302  -3.327 123.886  0.00  0.00    +0.004 C 
ENDBRANCH   6  21
BRANCH  13  23
ATOM     23  O   LIG A   1      -4.770   5.586 130.499  0.00  0.00    -0.458 OA
BRANCH  23  24
ATOM     24  C   LIG A   1      -4.798   6.951 130.549  0.00  0.00    +0.304 C 
ATOM     25  C   LIG A   1      -3.478   7.468 131.028  0.00  0.00    +0.136 C 
ATOM     26  O   LIG A   1      -5.770   7.649 130.350  0.00  0.00    -0.251 OA
ENDBRANCH  23  24
ENDBRANCH  13  23
BRANCH  14  27
ATOM     27  O   LIG A   1      -3.765   3.981 128.577  0.00  0.00    -0.458 OA
BRANCH  27  28
ATOM     28  C   LIG A   1      -2.726   4.505 127.874  0.00  0.00    +0.304 C 
ATOM     29  C   LIG A   1      -2.097   3.436 127.031  0.00  0.00    +0.136 C 
ATOM     30  O   LIG A   1      -2.322   5.660 127.937  0.00  0.00    -0.251 OA
ENDBRANCH  27  28
ENDBRANCH  14  27
TORSDOF 5
ENDMDL
MODEL 4
REMARK VINA RESULT:      -7.7      3.952      6.934
REMARK  Name = NuBBE_999
REMARK  10 active torsions:
REMARK  status: ('A' for Active; 'I' for Inactive)
REMARK    1  A    between atoms: C_1  and  C_2
REMARK    2  A    between atoms: C_6  and  C_8
REMARK    3  A    between atoms: C_8  and  C_9
REMARK    4  A    between atoms: C_16  and  O_18
REMARK    5  A    between atoms: O_18  and  C_19
REMARK    6  A    between atoms: C_19  and  C_20
REMARK    7  A    between atoms: C_22  and  O_24
REMARK    8  A    between atoms: O_24  and  C_25
REMARK    9  A    between atoms: C_25  and  C_26
REMARK   10  A    between atoms: C_29  and  C_30
REMARK                            x       y       z     vdW  Elec       q    Type
REMARK                         _______ _______ _______ _____ _____    ______ ____
ROOT
ATOM      1  C   LIG A   1      -3.760   3.079 130.188  0.00  0.00    +0.012 C 
ATOM      2  C   LIG A   1      -4.455   4.188 129.359  0.00  0.00    -0.019 C 
ATOM      3  C   LIG A   1      -4.076   3.973 127.864  0.00  0.00    +0.006 C 
ATOM      4  C   LIG A   1      -2.902   4.908 127.556  0.00  0.00    +0.079 C 
ATOM      5  C   LIG A   1      -2.814   5.822 128.735  0.00  0.00    +0.137 C 
ATOM      6  C   LIG A   1      -3.938   5.620 129.729  0.00  0.00    +0.061 C 
ATOM      7  O   LIG A   1      -1.947   6.683 128.815  0.00  0.00    -0.297 OA
ATOM      8  C   LIG A   1      -5.256   4.085 126.861  0.00  0.00    -0.003 C 
ATOM      9  C   LIG A   1      -4.749   3.876 125.417  0.00  0.00    +0.004 C 
ATOM     10  C   LIG A   1      -5.776   3.389 124.412  0.00  0.00    +0.004 C 
ATOM     11  C   LIG A   1      -6.788   2.361 124.932  0.00  0.00    -0.001 C 
ATOM     12  C   LIG A   1      -6.951   1.219 123.941  0.00  0.00    +0.052 C 
ATOM     13  C   LIG A   1      -8.141   0.312 124.275  0.00  0.00    +0.217 C 
ATOM     14  C   LIG A   1      -8.141  -0.155 125.760  0.00  0.00    +0.217 C 
ATOM     15  C   LIG A   1      -7.837   1.005 126.742  0.00  0.00    +0.055 C 
ATOM     16  C   LIG A   1      -6.572   1.859 126.380  0.00  0.00    -0.023 C 
ATOM     17  C   LIG A   1      -5.323   0.958 126.554  0.00  0.00    +0.012 C 
ATOM     18  C   LIG A   1      -6.460   3.162 127.250  0.00  0.00    -0.001 C 
ATOM     19  C   LIG A   1      -6.580   2.927 128.766  0.00  0.00    +0.005 C 
ATOM     20  C   LIG A   1      -5.983   4.084 129.567  0.00  0.00    +0.008 C 
ENDROOT
BRANCH   6  21
ATOM     21  C   LIG A   1      -3.508   5.813 131.192  0.00  0.00    +0.008 C 
ATOM     22  C   LIG A   1      -3.845   7.182 131.778  0.00  0.00    +0.004 C 
ENDBRANCH   6  21
BRANCH  13  23
ATOM     23  O   LIG A   1      -8.078  -0.856 123.423  0.00  0.00    -0.458 OA
BRANCH  23  24
ATOM     24  C   LIG A   1      -9.254  -1.444 123.054  0.00  0.00    +0.304 C 
ATOM     25  C   LIG A   1      -9.154  -2.927 123.218  0.00  0.00    +0.136 C 
ATOM     26  O   LIG A   1     -10.206  -0.878 122.558  0.00  0.00    -0.251 OA
ENDBRANCH  23  24
ENDBRANCH  13  23
BRANCH  14  27
ATOM     27  O   LIG A   1      -7.142  -1.189 125.931  0.00  0.00    -0.458 OA
BRANCH  27  28
ATOM     28  C   LIG A   1      -7.329  -2.055 126.963  0.00  0.00    +0.304 C 
ATOM     29  C   LIG A   1      -8.655  -2.741 126.813  0.00  0.00    +0.136 C 
ATOM     30  O   LIG A   1      -6.564  -2.231 127.904  0.00  0.00    -0.251 OA
ENDBRANCH  27  28
ENDBRANCH  14  27
TORSDOF 5
ENDMDL
MODEL 5
REMARK VINA RESULT:      -7.6      5.546      7.847
REMARK  Name = NuBBE_999
REMARK  10 active torsions:
REMARK  status: ('A' for Active; 'I' for Inactive)
REMARK    1  A    between atoms: C_1  and  C_2
REMARK    2  A    between atoms: C_6  and  C_8
REMARK    3  A    between atoms: C_8  and  C_9
REMARK    4  A    between atoms: C_16  and  O_18
REMARK    5  A    between atoms: O_18  and  C_19
REMARK    6  A    between atoms: C_19  and  C_20
REMARK    7  A    between atoms: C_22  and  O_24
REMARK    8  A    between atoms: O_24  and  C_25
REMARK    9  A    between atoms: C_25  and  C_26
REMARK   10  A    between atoms: C_29  and  C_30
REMARK                            x       y       z     vdW  Elec       q    Type
REMARK                         _______ _______ _______ _____ _____    ______ ____
ROOT
ATOM      1  C   LIG A   1      -3.754   8.049 130.701  0.00  0.00    +0.012 C 
ATOM      2  C   LIG A   1      -2.879   6.845 131.129  0.00  0.00    -0.019 C 
ATOM      3  C   LIG A   1      -3.824   5.633 131.378  0.00  0.00    +0.006 C 
ATOM      4  C   LIG A   1      -4.095   5.575 132.885  0.00  0.00    +0.079 C 
ATOM      5  C   LIG A   1      -3.116   6.525 133.493  0.00  0.00    +0.137 C 
ATOM      6  C   LIG A   1      -2.141   7.098 132.488  0.00  0.00    +0.061 C 
ATOM      7  O   LIG A   1      -3.090   6.733 134.700  0.00  0.00    -0.297 OA
ATOM      8  C   LIG A   1      -3.348   4.288 130.767  0.00  0.00    -0.003 C 
ATOM      9  C   LIG A   1      -4.354   3.165 131.102  0.00  0.00    +0.004 C 
ATOM     10  C   LIG A   1      -4.372   1.980 130.155  0.00  0.00    +0.004 C 
ATOM     11  C   LIG A   1      -4.190   2.306 128.668  0.00  0.00    -0.001 C 
ATOM     12  C   LIG A   1      -5.200   1.546 127.823  0.00  0.00    +0.052 C 
ATOM     13  C   LIG A   1      -4.890   1.619 126.323  0.00  0.00    +0.217 C 
ATOM     14  C   LIG A   1      -4.645   3.074 125.831  0.00  0.00    +0.217 C 
ATOM     15  C   LIG A   1      -3.719   3.871 126.785  0.00  0.00    +0.055 C 
ATOM     16  C   LIG A   1      -4.123   3.807 128.299  0.00  0.00    -0.023 C 
ATOM     17  C   LIG A   1      -5.470   4.557 128.464  0.00  0.00    +0.012 C 
ATOM     18  C   LIG A   1      -3.018   4.409 129.241  0.00  0.00    -0.001 C 
ATOM     19  C   LIG A   1      -2.531   5.810 128.833  0.00  0.00    +0.005 C 
ATOM     20  C   LIG A   1      -1.866   6.539 130.001  0.00  0.00    +0.008 C 
ENDROOT
BRANCH   6  21
ATOM     21  C   LIG A   1      -1.753   8.559 132.770  0.00  0.00    +0.008 C 
ATOM     22  C   LIG A   1      -0.340   8.747 133.316  0.00  0.00    +0.004 C 
ENDBRANCH   6  21
BRANCH  13  23
ATOM     23  O   LIG A   1      -6.014   1.068 125.597  0.00  0.00    -0.458 OA
BRANCH  23  24
ATOM     24  C   LIG A   1      -6.401  -0.209 125.887  0.00  0.00    +0.304 C 
ATOM     25  C   LIG A   1      -5.402  -1.178 125.340  0.00  0.00    +0.136 C 
ATOM     26  O   LIG A   1      -7.449  -0.534 126.407  0.00  0.00    -0.251 OA
ENDBRANCH  23  24
ENDBRANCH  13  23
BRANCH  14  27
ATOM     27  O   LIG A   1      -5.916   3.761 125.730  0.00  0.00    -0.458 OA
BRANCH  27  28
ATOM     28  C   LIG A   1      -5.998   4.764 124.816  0.00  0.00    +0.304 C 
ATOM     29  C   LIG A   1      -5.673   4.233 123.452  0.00  0.00    +0.136 C 
ATOM     30  O   LIG A   1      -6.254   5.938 125.056  0.00  0.00    -0.251 OA
ENDBRANCH  27  28
ENDBRANCH  14  27
TORSDOF 5
ENDMDL
MODEL 6
REMARK VINA RESULT:      -7.6      4.479      8.305
REMARK  Name = NuBBE_999
REMARK  10 active torsions:
REMARK  status: ('A' for Active; 'I' for Inactive)
REMARK    1  A    between atoms: C_1  and  C_2
REMARK    2  A    between atoms: C_6  and  C_8
REMARK    3  A    between atoms: C_8  and  C_9
REMARK    4  A    between atoms: C_16  and  O_18
REMARK    5  A    between atoms: O_18  and  C_19
REMARK    6  A    between atoms: C_19  and  C_20
REMARK    7  A    between atoms: C_22  and  O_24
REMARK    8  A    between atoms: O_24  and  C_25
REMARK    9  A    between atoms: C_25  and  C_26
REMARK   10  A    between atoms: C_29  and  C_30
REMARK                            x       y       z     vdW  Elec       q    Type
REMARK                         _______ _______ _______ _____ _____    ______ ____
ROOT
ATOM      1  C   LIG A   1      -8.608  -1.234 126.404  0.00  0.00    +0.012 C 
ATOM      2  C   LIG A   1      -7.794  -0.840 125.146  0.00  0.00    -0.019 C 
ATOM      3  C   LIG A   1      -7.988   0.688 124.912  0.00  0.00    +0.006 C 
ATOM      4  C   LIG A   1      -9.095   0.847 123.866  0.00  0.00    +0.079 C 
ATOM      5  C   LIG A   1      -9.311  -0.525 123.317  0.00  0.00    +0.137 C 
ATOM      6  C   LIG A   1      -8.325  -1.541 123.850  0.00  0.00    +0.061 C 
ATOM      7  O   LIG A   1     -10.164  -0.748 122.466  0.00  0.00    -0.297 OA
ATOM      8  C   LIG A   1      -6.690   1.475 124.588  0.00  0.00    -0.003 C 
ATOM      9  C   LIG A   1      -7.017   2.967 124.355  0.00  0.00    +0.004 C 
ATOM     10  C   LIG A   1      -5.882   3.945 124.596  0.00  0.00    +0.004 C 
ATOM     11  C   LIG A   1      -4.964   3.629 125.782  0.00  0.00    -0.001 C 
ATOM     12  C   LIG A   1      -4.701   4.878 126.608  0.00  0.00    +0.052 C 
ATOM     13  C   LIG A   1      -3.581   4.684 127.635  0.00  0.00    +0.217 C 
ATOM     14  C   LIG A   1      -3.775   3.404 128.499  0.00  0.00    +0.217 C 
ATOM     15  C   LIG A   1      -4.176   2.173 127.646  0.00  0.00    +0.055 C 
ATOM     16  C   LIG A   1      -5.369   2.418 126.658  0.00  0.00    -0.023 C 
ATOM     17  C   LIG A   1      -6.647   2.651 127.502  0.00  0.00    +0.012 C 
ATOM     18  C   LIG A   1      -5.563   1.232 125.647  0.00  0.00    -0.001 C 
ATOM     19  C   LIG A   1      -5.637  -0.158 126.304  0.00  0.00    +0.005 C 
ATOM     20  C   LIG A   1      -6.306  -1.182 125.388  0.00  0.00    +0.008 C 
ENDROOT
BRANCH   6  21
ATOM     21  C   LIG A   1      -8.929  -2.940 124.052  0.00  0.00    +0.008 C 
ATOM     22  C   LIG A   1      -7.909  -4.037 124.348  0.00  0.00    +0.004 C 
ENDBRANCH   6  21
BRANCH  13  23
ATOM     23  O   LIG A   1      -3.560   5.835 128.512  0.00  0.00    -0.458 OA
BRANCH  23  24
ATOM     24  C   LIG A   1      -2.393   6.536 128.622  0.00  0.00    +0.304 C 
ATOM     25  C   LIG A   1      -1.888   6.463 130.028  0.00  0.00    +0.136 C 
ATOM     26  O   LIG A   1      -1.888   7.215 127.753  0.00  0.00    -0.251 OA
ENDBRANCH  23  24
ENDBRANCH  13  23
BRANCH  14  27
ATOM     27  O   LIG A   1      -4.808   3.649 129.484  0.00  0.00    -0.458 OA
BRANCH  27  28
ATOM     28  C   LIG A   1      -4.704   2.975 130.660  0.00  0.00    +0.304 C 
ATOM     29  C   LIG A   1      -3.736   3.680 131.563  0.00  0.00    +0.136 C 
ATOM     30  O   LIG A   1      -5.272   1.927 130.942  0.00  0.00    -0.251 OA
ENDBRANCH  27  28
ENDBRANCH  14  27
TORSDOF 5
ENDMDL
MODEL 7
REMARK VINA RESULT:      -7.4      4.762      8.402
REMARK  Name = NuBBE_999
REMARK  10 active torsions:
REMARK  status: ('A' for Active; 'I' for Inactive)
REMARK    1  A    between atoms: C_1  and  C_2
REMARK    2  A    between atoms: C_6  and  C_8
REMARK    3  A    between atoms: C_8  and  C_9
REMARK    4  A    between atoms: C_16  and  O_18
REMARK    5  A    between atoms: O_18  and  C_19
REMARK    6  A    between atoms: C_19  and  C_20
REMARK    7  A    between atoms: C_22  and  O_24
REMARK    8  A    between atoms: O_24  and  C_25
REMARK    9  A    between atoms: C_25  and  C_26
REMARK   10  A    between atoms: C_29  and  C_30
REMARK                            x       y       z     vdW  Elec       q    Type
REMARK                         _______ _______ _______ _____ _____    ______ ____
ROOT
ATOM      1  C   LIG A   1      -9.499   0.091 125.590  0.00  0.00    +0.012 C 
ATOM      2  C   LIG A   1      -8.030  -0.317 125.865  0.00  0.00    -0.019 C 
ATOM      3  C   LIG A   1      -7.115   0.857 125.404  0.00  0.00    +0.006 C 
ATOM      4  C   LIG A   1      -6.622   0.516 123.994  0.00  0.00    +0.079 C 
ATOM      5  C   LIG A   1      -6.997  -0.916 123.786  0.00  0.00    +0.137 C 
ATOM      6  C   LIG A   1      -7.588  -1.560 125.021  0.00  0.00    +0.061 C 
ATOM      7  O   LIG A   1      -6.763  -1.492 122.731  0.00  0.00    -0.297 OA
ATOM      8  C   LIG A   1      -5.986   1.243 126.395  0.00  0.00    -0.003 C 
ATOM      9  C   LIG A   1      -5.139   2.397 125.815  0.00  0.00    +0.004 C 
ATOM     10  C   LIG A   1      -4.404   3.260 126.824  0.00  0.00    +0.004 C 
ATOM     11  C   LIG A   1      -5.157   3.559 128.125  0.00  0.00    -0.001 C 
ATOM     12  C   LIG A   1      -5.042   5.031 128.488  0.00  0.00    +0.052 C 
ATOM     13  C   LIG A   1      -5.536   5.332 129.907  0.00  0.00    +0.217 C 
ATOM     14  C   LIG A   1      -6.944   4.735 130.191  0.00  0.00    +0.217 C 
ATOM     15  C   LIG A   1      -7.078   3.274 129.689  0.00  0.00    +0.055 C 
ATOM     16  C   LIG A   1      -6.613   3.043 128.209  0.00  0.00    -0.023 C 
ATOM     17  C   LIG A   1      -7.600   3.791 127.277  0.00  0.00    +0.012 C 
ATOM     18  C   LIG A   1      -6.527   1.518 127.839  0.00  0.00    -0.001 C 
ATOM     19  C   LIG A   1      -7.791   0.709 128.179  0.00  0.00    +0.005 C 
ATOM     20  C   LIG A   1      -7.863  -0.591 127.378  0.00  0.00    +0.008 C 
ENDROOT
BRANCH   6  21
ATOM     21  C   LIG A   1      -8.697  -2.580 124.712  0.00  0.00    +0.008 C 
ATOM     22  C   LIG A   1      -8.275  -4.040 124.856  0.00  0.00    +0.004 C 
ENDBRANCH   6  21
BRANCH  13  23
ATOM     23  O   LIG A   1      -5.599   6.767 130.075  0.00  0.00    -0.458 OA
BRANCH  23  24
ATOM     24  C   LIG A   1      -4.426   7.447 130.236  0.00  0.00    +0.304 C 
ATOM     25  C   LIG A   1      -3.878   7.195 131.605  0.00  0.00    +0.136 C 
ATOM     26  O   LIG A   1      -3.943   8.230 129.445  0.00  0.00    -0.251 OA
ENDBRANCH  23  24
ENDBRANCH  13  23
BRANCH  14  27
ATOM     27  O   LIG A   1      -7.945   5.550 129.535  0.00  0.00    -0.458 OA
BRANCH  27  28
ATOM     28  C   LIG A   1      -9.169   5.607 130.124  0.00  0.00    +0.304 C 
ATOM     29  C   LIG A   1      -9.100   6.463 131.353  0.00  0.00    +0.136 C 
ATOM     30  O   LIG A   1     -10.178   5.021 129.748  0.00  0.00    -0.251 OA
ENDBRANCH  27  28
ENDBRANCH  14  27
TORSDOF 5
ENDMDL
MODEL 8
REMARK VINA RESULT:      -7.2      5.026      8.954
REMARK  Name = NuBBE_999
REMARK  10 active torsions:
REMARK  status: ('A' for Active; 'I' for Inactive)
REMARK    1  A    between atoms: C_1  and  C_2
REMARK    2  A    between atoms: C_6  and  C_8
REMARK    3  A    between atoms: C_8  and  C_9
REMARK    4  A    between atoms: C_16  and  O_18
REMARK    5  A    between atoms: O_18  and  C_19
REMARK    6  A    between atoms: C_19  and  C_20
REMARK    7  A    between atoms: C_22  and  O_24
REMARK    8  A    between atoms: O_24  and  C_25
REMARK    9  A    between atoms: C_25  and  C_26
REMARK   10  A    between atoms: C_29  and  C_30
REMARK                            x       y       z     vdW  Elec       q    Type
REMARK                         _______ _______ _______ _____ _____    ______ ____
ROOT
ATOM      1  C   LIG A   1      -8.635   1.298 127.303  0.00  0.00    +0.012 C 
ATOM      2  C   LIG A   1      -7.249   0.652 127.053  0.00  0.00    -0.019 C 
ATOM      3  C   LIG A   1      -6.338   1.722 126.381  0.00  0.00    +0.006 C 
ATOM      4  C   LIG A   1      -6.385   1.469 124.871  0.00  0.00    +0.079 C 
ATOM      5  C   LIG A   1      -7.050   0.139 124.720  0.00  0.00    +0.137 C 
ATOM      6  C   LIG A   1      -7.322  -0.543 126.043  0.00  0.00    +0.061 C 
ATOM      7  O   LIG A   1      -7.268  -0.346 123.617  0.00  0.00    -0.297 OA
ATOM      8  C   LIG A   1      -4.904   1.827 126.963  0.00  0.00    -0.003 C 
ATOM      9  C   LIG A   1      -4.097   2.901 126.201  0.00  0.00    +0.004 C 
ATOM     10  C   LIG A   1      -2.941   3.531 126.956  0.00  0.00    +0.004 C 
ATOM     11  C   LIG A   1      -3.178   3.793 128.447  0.00  0.00    -0.001 C 
ATOM     12  C   LIG A   1      -2.699   5.183 128.832  0.00  0.00    +0.052 C 
ATOM     13  C   LIG A   1      -2.656   5.396 130.350  0.00  0.00    +0.217 C 
ATOM     14  C   LIG A   1      -3.984   4.985 131.050  0.00  0.00    +0.217 C 
ATOM     15  C   LIG A   1      -4.522   3.623 130.540  0.00  0.00    +0.055 C 
ATOM     16  C   LIG A   1      -4.599   3.490 128.979  0.00  0.00    -0.023 C 
ATOM     17  C   LIG A   1      -5.684   4.472 128.470  0.00  0.00    +0.012 C 
ATOM     18  C   LIG A   1      -4.902   2.019 128.518  0.00  0.00    -0.001 C 
ATOM     19  C   LIG A   1      -6.114   1.372 129.211  0.00  0.00    +0.005 C 
ATOM     20  C   LIG A   1      -6.662   0.192 128.408  0.00  0.00    +0.008 C 
ENDROOT
BRANCH   6  21
ATOM     21  C   LIG A   1      -8.631  -1.349 126.062  0.00  0.00    +0.008 C 
ATOM     22  C   LIG A   1      -8.545  -2.684 126.798  0.00  0.00    +0.004 C 
ENDBRANCH   6  21
BRANCH  13  23
ATOM     23  O   LIG A   1      -2.412   6.798 130.608  0.00  0.00    -0.458 OA
BRANCH  23  24
ATOM     24  C   LIG A   1      -1.983   7.155 131.855  0.00  0.00    +0.304 C 
ATOM     25  C   LIG A   1      -0.712   6.437 132.179  0.00  0.00    +0.136 C 
ATOM     26  O   LIG A   1      -2.586   7.857 132.640  0.00  0.00    -0.251 OA
ENDBRANCH  23  24
ENDBRANCH  13  23
BRANCH  14  27
ATOM     27  O   LIG A   1      -4.983   6.005 130.809  0.00  0.00    -0.458 OA
BRANCH  27  28
ATOM     28  C   LIG A   1      -5.832   6.284 131.833  0.00  0.00    +0.304 C 
ATOM     29  C   LIG A   1      -7.132   6.794 131.288  0.00  0.00    +0.136 C 
ATOM     30  O   LIG A   1      -5.578   6.182 133.028  0.00  0.00    -0.251 OA
ENDBRANCH  27  28
ENDBRANCH  14  27
TORSDOF 5
ENDMDL
MODEL 9
REMARK VINA RESULT:      -7.2      4.516      8.097
REMARK  Name = NuBBE_999
REMARK  10 active torsions:
REMARK  status: ('A' for Active; 'I' for Inactive)
REMARK    1  A    between atoms: C_1  and  C_2
REMARK    2  A    between atoms: C_6  and  C_8
REMARK    3  A    between atoms: C_8  and  C_9
REMARK    4  A    between atoms: C_16  and  O_18
REMARK    5  A    between atoms: O_18  and  C_19
REMARK    6  A    between atoms: C_19  and  C_20
REMARK    7  A    between atoms: C_22  and  O_24
REMARK    8  A    between atoms: O_24  and  C_25
REMARK    9  A    between atoms: C_25  and  C_26
REMARK   10  A    between atoms: C_29  and  C_30
REMARK                            x       y       z     vdW  Elec       q    Type
REMARK                         _______ _______ _______ _____ _____    ______ ____
ROOT
ATOM      1  C   LIG A   1      -7.605   0.920 124.107  0.00  0.00    +0.012 C 
ATOM      2  C   LIG A   1      -7.558  -0.227 125.147  0.00  0.00    -0.019 C 
ATOM      3  C   LIG A   1      -6.407   0.084 126.148  0.00  0.00    +0.006 C 
ATOM      4  C   LIG A   1      -5.179  -0.704 125.682  0.00  0.00    +0.079 C 
ATOM      5  C   LIG A   1      -5.693  -1.646 124.642  0.00  0.00    +0.137 C 
ATOM      6  C   LIG A   1      -7.199  -1.606 124.497  0.00  0.00    +0.061 C 
ATOM      7  O   LIG A   1      -4.946  -2.409 124.043  0.00  0.00    -0.297 OA
ATOM      8  C   LIG A   1      -6.761  -0.120 127.646  0.00  0.00    -0.003 C 
ATOM      9  C   LIG A   1      -5.535   0.196 128.531  0.00  0.00    +0.004 C 
ATOM     10  C   LIG A   1      -5.832   0.604 129.962  0.00  0.00    +0.004 C 
ATOM     11  C   LIG A   1      -7.063   1.495 130.164  0.00  0.00    -0.001 C 
ATOM     12  C   LIG A   1      -6.745   2.648 131.102  0.00  0.00    +0.052 C 
ATOM     13  C   LIG A   1      -7.998   3.406 131.555  0.00  0.00    +0.217 C 
ATOM     14  C   LIG A   1      -8.914   3.815 130.365  0.00  0.00    +0.217 C 
ATOM     15  C   LIG A   1      -9.112   2.659 129.351  0.00  0.00    +0.055 C 
ATOM     16  C   LIG A   1      -7.788   1.964 128.879  0.00  0.00    -0.023 C 
ATOM     17  C   LIG A   1      -6.984   2.989 128.041  0.00  0.00    +0.012 C 
ATOM     18  C   LIG A   1      -8.059   0.649 128.063  0.00  0.00    -0.001 C 
ATOM     19  C   LIG A   1      -9.065   0.814 126.910  0.00  0.00    +0.005 C 
ATOM     20  C   LIG A   1      -8.922  -0.299 125.872  0.00  0.00    +0.008 C 
ENDROOT
BRANCH   6  21
ATOM     21  C   LIG A   1      -7.684  -1.805 123.051  0.00  0.00    +0.008 C 
ATOM     22  C   LIG A   1      -8.964  -2.625 122.917  0.00  0.00    +0.004 C 
ENDBRANCH   6  21
BRANCH  13  23
ATOM     23  O   LIG A   1      -7.581   4.605 132.251  0.00  0.00    -0.458 OA
BRANCH  23  24
ATOM     24  C   LIG A   1      -8.048   4.806 133.518  0.00  0.00    +0.304 C 
ATOM     25  C   LIG A   1      -9.028   3.733 133.874  0.00  0.00    +0.136 C 
ATOM     26  O   LIG A   1      -7.805   5.765 134.221  0.00  0.00    -0.251 OA
ENDBRANCH  23  24
ENDBRANCH  13  23
BRANCH  14  27
ATOM     27  O   LIG A   1      -8.324   4.945 129.680  0.00  0.00    -0.458 OA
BRANCH  27  28
ATOM     28  C   LIG A   1      -9.175   5.921 129.265  0.00  0.00    +0.304 C 
ATOM     29  C   LIG A   1      -9.546   6.796 130.425  0.00  0.00    +0.136 C 
ATOM     30  O   LIG A   1      -9.619   6.057 128.130  0.00  0.00    -0.251 OA
ENDBRANCH  27  28
ENDBRANCH  14  27
TORSDOF 5
ENDMDL
