MODEL 1
REMARK VINA RESULT:      -6.4      0.000      0.000
REMARK  Name = NuBBE_354
REMARK  11 active torsions:
REMARK  status: ('A' for Active; 'I' for Inactive)
REMARK    1  A    between atoms: C_2  and  O_3
REMARK    2  A    between atoms: C_2  and  C_5
REMARK    3  A    between atoms: O_3  and  C_4
REMARK    4  A    between atoms: C_7  and  C_8
REMARK    5  A    between atoms: C_8  and  C_9
REMARK    6  A    between atoms: C_9  and  O_10
REMARK    7  A    between atoms: C_9  and  C_11
REMARK    8  A    between atoms: C_11  and  C_12
REMARK    9  A    between atoms: C_11  and  O_13
REMARK   10  A    between atoms: C_11  and  C_14
REMARK   11  A    between atoms: C_15  and  O_16
REMARK                            x       y       z     vdW  Elec       q    Type
REMARK                         _______ _______ _______ _____ _____    ______ ____
ROOT
ATOM      1  C   LIG A   1      -7.227   6.459 131.621  0.00  0.00    +0.059 A 
ATOM      2  C   LIG A   1      -8.190   6.988 130.745  0.00  0.00    +0.022 A 
ATOM      3  C   LIG A   1      -9.571   6.801 130.954  0.00  0.00    -0.003 A 
ATOM      4  C   LIG A   1      -9.937   6.062 132.095  0.00  0.00    +0.120 A 
ATOM      5  C   LIG A   1      -8.979   5.485 132.934  0.00  0.00    +0.046 A 
ATOM      6  C   LIG A   1      -7.625   5.673 132.706  0.00  0.00    +0.018 A 
ENDROOT
BRANCH   1   8
ATOM      7  O   LIG A   1      -4.892   6.412 132.114  0.00  0.00    -0.245 OA
ATOM      8  C   LIG A   1      -5.812   6.844 131.441  0.00  0.00    +0.339 C 
BRANCH   8   9
ATOM      9  O   LIG A   1      -5.715   7.591 130.313  0.00  0.00    -0.465 OA
ATOM     10  C   LIG A   1      -4.381   7.929 129.938  0.00  0.00    +0.280 C 
ENDBRANCH   8   9
ENDBRANCH   1   8
BRANCH   4  11
ATOM     11  O   LIG A   1     -11.205   5.850 132.541  0.00  0.00    -0.506 OA
ATOM     12  H   LIG A   1     -11.186   5.594 133.483  0.00  0.00    +0.292 HD
ENDBRANCH   4  11
BRANCH   3  13
ATOM     13  C   LIG A   1     -10.516   7.519 129.993  0.00  0.00    +0.073 C 
BRANCH  13  14
ATOM     14  C   LIG A   1     -11.120   6.718 128.821  0.00  0.00    +0.150 C 
BRANCH  14  15
ATOM     15  C   LIG A   1     -11.962   7.539 127.802  0.00  0.00    +0.086 C 
ATOM     16  C   LIG A   1     -13.440   7.123 127.885  0.00  0.00    +0.043 C 
ATOM     17  C   LIG A   1     -11.478   7.432 126.359  0.00  0.00    +0.043 C 
BRANCH  15  18
ATOM     18  O   LIG A   1     -11.883   8.918 128.216  0.00  0.00    -0.387 OA
ATOM     19  H   LIG A   1     -11.283   8.965 128.982  0.00  0.00    +0.210 HD
ENDBRANCH  15  18
ENDBRANCH  14  15
BRANCH  14  20
ATOM     20  O   LIG A   1     -12.051   5.769 129.388  0.00  0.00    -0.389 OA
ATOM     21  H   LIG A   1     -11.809   4.909 128.963  0.00  0.00    +0.210 HD
ENDBRANCH  14  20
ENDBRANCH  13  14
ENDBRANCH   3  13
TORSDOF 8
ENDMDL
MODEL 2
REMARK VINA RESULT:      -6.2      2.114      5.683
REMARK  Name = NuBBE_354
REMARK  11 active torsions:
REMARK  status: ('A' for Active; 'I' for Inactive)
REMARK    1  A    between atoms: C_2  and  O_3
REMARK    2  A    between atoms: C_2  and  C_5
REMARK    3  A    between atoms: O_3  and  C_4
REMARK    4  A    between atoms: C_7  and  C_8
REMARK    5  A    between atoms: C_8  and  C_9
REMARK    6  A    between atoms: C_9  and  O_10
REMARK    7  A    between atoms: C_9  and  C_11
REMARK    8  A    between atoms: C_11  and  C_12
REMARK    9  A    between atoms: C_11  and  O_13
REMARK   10  A    between atoms: C_11  and  C_14
REMARK   11  A    between atoms: C_15  and  O_16
REMARK                            x       y       z     vdW  Elec       q    Type
REMARK                         _______ _______ _______ _____ _____    ______ ____
ROOT
ATOM      1  C   LIG A   1     -11.860   7.898 129.666  0.00  0.00    +0.059 A 
ATOM      2  C   LIG A   1     -10.497   7.561 129.728  0.00  0.00    +0.022 A 
ATOM      3  C   LIG A   1      -9.963   6.803 130.790  0.00  0.00    -0.003 A 
ATOM      4  C   LIG A   1     -10.873   6.392 131.783  0.00  0.00    +0.120 A 
ATOM      5  C   LIG A   1     -12.216   6.777 131.754  0.00  0.00    +0.046 A 
ATOM      6  C   LIG A   1     -12.719   7.531 130.705  0.00  0.00    +0.018 A 
ENDROOT
BRANCH   1   8
ATOM      7  O   LIG A   1     -13.244   9.398 128.428  0.00  0.00    -0.245 OA
ATOM      8  C   LIG A   1     -12.380   8.537 128.441  0.00  0.00    +0.339 C 
BRANCH   8   9
ATOM      9  O   LIG A   1     -11.615   8.138 127.394  0.00  0.00    -0.465 OA
ATOM     10  C   LIG A   1     -12.221   7.157 126.555  0.00  0.00    +0.280 C 
ENDBRANCH   8   9
ENDBRANCH   1   8
BRANCH   4  11
ATOM     11  O   LIG A   1     -10.596   5.573 132.835  0.00  0.00    -0.506 OA
ATOM     12  H   LIG A   1      -9.630   5.480 132.938  0.00  0.00    +0.292 HD
ENDBRANCH   4  11
BRANCH   3  13
ATOM     13  C   LIG A   1      -8.492   6.409 130.684  0.00  0.00    +0.073 C 
BRANCH  13  14
ATOM     14  C   LIG A   1      -8.125   5.160 129.855  0.00  0.00    +0.150 C 
BRANCH  14  15
ATOM     15  C   LIG A   1      -8.311   3.793 130.573  0.00  0.00    +0.086 C 
ATOM     16  C   LIG A   1      -7.182   2.829 130.169  0.00  0.00    +0.043 C 
ATOM     17  C   LIG A   1      -9.663   3.132 130.323  0.00  0.00    +0.043 C 
BRANCH  15  18
ATOM     18  O   LIG A   1      -8.173   4.044 131.986  0.00  0.00    -0.387 OA
ATOM     19  H   LIG A   1      -9.018   4.407 132.307  0.00  0.00    +0.210 HD
ENDBRANCH  15  18
ENDBRANCH  14  15
BRANCH  14  20
ATOM     20  O   LIG A   1      -6.710   5.238 129.570  0.00  0.00    -0.389 OA
ATOM     21  H   LIG A   1      -6.330   5.699 130.358  0.00  0.00    +0.210 HD
ENDBRANCH  14  20
ENDBRANCH  13  14
ENDBRANCH   3  13
TORSDOF 8
ENDMDL
MODEL 3
REMARK VINA RESULT:      -6.0      1.766      5.684
REMARK  Name = NuBBE_354
REMARK  11 active torsions:
REMARK  status: ('A' for Active; 'I' for Inactive)
REMARK    1  A    between atoms: C_2  and  O_3
REMARK    2  A    between atoms: C_2  and  C_5
REMARK    3  A    between atoms: O_3  and  C_4
REMARK    4  A    between atoms: C_7  and  C_8
REMARK    5  A    between atoms: C_8  and  C_9
REMARK    6  A    between atoms: C_9  and  O_10
REMARK    7  A    between atoms: C_9  and  C_11
REMARK    8  A    between atoms: C_11  and  C_12
REMARK    9  A    between atoms: C_11  and  O_13
REMARK   10  A    between atoms: C_11  and  C_14
REMARK   11  A    between atoms: C_15  and  O_16
REMARK                            x       y       z     vdW  Elec       q    Type
REMARK                         _______ _______ _______ _____ _____    ______ ____
ROOT
ATOM      1  C   LIG A   1     -11.393   7.777 129.670  0.00  0.00    +0.059 A 
ATOM      2  C   LIG A   1     -10.021   7.605 129.919  0.00  0.00    +0.022 A 
ATOM      3  C   LIG A   1      -9.549   6.846 131.008  0.00  0.00    -0.003 A 
ATOM      4  C   LIG A   1     -10.529   6.257 131.831  0.00  0.00    +0.120 A 
ATOM      5  C   LIG A   1     -11.893   6.477 131.620  0.00  0.00    +0.046 A 
ATOM      6  C   LIG A   1     -12.336   7.235 130.548  0.00  0.00    +0.018 A 
ENDROOT
BRANCH   1   8
ATOM      7  O   LIG A   1     -12.866   9.032 128.272  0.00  0.00    -0.245 OA
ATOM      8  C   LIG A   1     -11.813   8.433 128.415  0.00  0.00    +0.339 C 
BRANCH   8   9
ATOM      9  O   LIG A   1     -10.768   8.406 127.550  0.00  0.00    -0.465 OA
ATOM     10  C   LIG A   1     -11.001   7.653 126.362  0.00  0.00    +0.280 C 
ENDBRANCH   8   9
ENDBRANCH   1   8
BRANCH   4  11
ATOM     11  O   LIG A   1     -10.300   5.406 132.868  0.00  0.00    -0.506 OA
ATOM     12  H   LIG A   1      -9.971   5.905 133.640  0.00  0.00    +0.292 HD
ENDBRANCH   4  11
BRANCH   3  13
ATOM     13  C   LIG A   1      -8.039   6.643 131.104  0.00  0.00    +0.073 C 
BRANCH  13  14
ATOM     14  C   LIG A   1      -7.432   5.358 130.503  0.00  0.00    +0.150 C 
BRANCH  14  15
ATOM     15  C   LIG A   1      -5.890   5.372 130.291  0.00  0.00    +0.086 C 
ATOM     16  C   LIG A   1      -5.249   4.174 131.012  0.00  0.00    +0.043 C 
ATOM     17  C   LIG A   1      -5.209   6.663 130.735  0.00  0.00    +0.043 C 
BRANCH  15  18
ATOM     18  O   LIG A   1      -5.664   5.192 128.879  0.00  0.00    -0.387 OA
ATOM     19  H   LIG A   1      -5.893   4.271 128.657  0.00  0.00    +0.210 HD
ENDBRANCH  15  18
ENDBRANCH  14  15
BRANCH  14  20
ATOM     20  O   LIG A   1      -7.984   5.205 129.176  0.00  0.00    -0.389 OA
ATOM     21  H   LIG A   1      -7.678   4.309 128.889  0.00  0.00    +0.210 HD
ENDBRANCH  14  20
ENDBRANCH  13  14
ENDBRANCH   3  13
TORSDOF 8
ENDMDL
MODEL 4
REMARK VINA RESULT:      -6.0      8.980     10.432
REMARK  Name = NuBBE_354
REMARK  11 active torsions:
REMARK  status: ('A' for Active; 'I' for Inactive)
REMARK    1  A    between atoms: C_2  and  O_3
REMARK    2  A    between atoms: C_2  and  C_5
REMARK    3  A    between atoms: O_3  and  C_4
REMARK    4  A    between atoms: C_7  and  C_8
REMARK    5  A    between atoms: C_8  and  C_9
REMARK    6  A    between atoms: C_9  and  O_10
REMARK    7  A    between atoms: C_9  and  C_11
REMARK    8  A    between atoms: C_11  and  C_12
REMARK    9  A    between atoms: C_11  and  O_13
REMARK   10  A    between atoms: C_11  and  C_14
REMARK   11  A    between atoms: C_15  and  O_16
REMARK                            x       y       z     vdW  Elec       q    Type
REMARK                         _______ _______ _______ _____ _____    ______ ____
ROOT
ATOM      1  C   LIG A   1      -7.160   2.970 122.762  0.00  0.00    +0.059 A 
ATOM      2  C   LIG A   1      -6.949   1.879 123.621  0.00  0.00    +0.022 A 
ATOM      3  C   LIG A   1      -7.948   0.913 123.859  0.00  0.00    -0.003 A 
ATOM      4  C   LIG A   1      -9.168   1.094 123.180  0.00  0.00    +0.120 A 
ATOM      5  C   LIG A   1      -9.399   2.211 122.373  0.00  0.00    +0.046 A 
ATOM      6  C   LIG A   1      -8.408   3.155 122.159  0.00  0.00    +0.018 A 
ENDROOT
BRANCH   1   8
ATOM      7  O   LIG A   1      -5.497   4.626 123.195  0.00  0.00    -0.245 OA
ATOM      8  C   LIG A   1      -6.017   3.841 122.422  0.00  0.00    +0.339 C 
BRANCH   8   9
ATOM      9  O   LIG A   1      -5.556   3.479 121.198  0.00  0.00    -0.465 OA
ATOM     10  C   LIG A   1      -5.481   4.544 120.252  0.00  0.00    +0.280 C 
ENDBRANCH   8   9
ENDBRANCH   1   8
BRANCH   4  11
ATOM     11  O   LIG A   1     -10.223   0.235 123.182  0.00  0.00    -0.506 OA
ATOM     12  H   LIG A   1     -10.560   0.121 122.273  0.00  0.00    +0.292 HD
ENDBRANCH   4  11
BRANCH   3  13
ATOM     13  C   LIG A   1      -7.557  -0.283 124.724  0.00  0.00    +0.073 C 
BRANCH  13  14
ATOM     14  C   LIG A   1      -7.557  -1.686 124.080  0.00  0.00    +0.150 C 
BRANCH  14  15
ATOM     15  C   LIG A   1      -8.735  -2.617 124.487  0.00  0.00    +0.086 C 
ATOM     16  C   LIG A   1      -8.216  -3.764 125.372  0.00  0.00    +0.043 C 
ATOM     17  C   LIG A   1      -9.517  -3.190 123.310  0.00  0.00    +0.043 C 
BRANCH  15  18
ATOM     18  O   LIG A   1      -9.629  -1.826 125.296  0.00  0.00    -0.387 OA
ATOM     19  H   LIG A   1     -10.392  -1.580 124.741  0.00  0.00    +0.210 HD
ENDBRANCH  15  18
ENDBRANCH  14  15
BRANCH  14  20
ATOM     20  O   LIG A   1      -6.370  -2.368 124.544  0.00  0.00    -0.389 OA
ATOM     21  H   LIG A   1      -5.875  -2.582 123.716  0.00  0.00    +0.210 HD
ENDBRANCH  14  20
ENDBRANCH  13  14
ENDBRANCH   3  13
TORSDOF 8
ENDMDL
MODEL 5
REMARK VINA RESULT:      -5.8      7.204      9.673
REMARK  Name = NuBBE_354
REMARK  11 active torsions:
REMARK  status: ('A' for Active; 'I' for Inactive)
REMARK    1  A    between atoms: C_2  and  O_3
REMARK    2  A    between atoms: C_2  and  C_5
REMARK    3  A    between atoms: O_3  and  C_4
REMARK    4  A    between atoms: C_7  and  C_8
REMARK    5  A    between atoms: C_8  and  C_9
REMARK    6  A    between atoms: C_9  and  O_10
REMARK    7  A    between atoms: C_9  and  C_11
REMARK    8  A    between atoms: C_11  and  C_12
REMARK    9  A    between atoms: C_11  and  O_13
REMARK   10  A    between atoms: C_11  and  C_14
REMARK   11  A    between atoms: C_15  and  O_16
REMARK                            x       y       z     vdW  Elec       q    Type
REMARK                         _______ _______ _______ _____ _____    ______ ____
ROOT
ATOM      1  C   LIG A   1      -5.743   3.923 122.534  0.00  0.00    +0.059 A 
ATOM      2  C   LIG A   1      -5.338   4.066 123.872  0.00  0.00    +0.022 A 
ATOM      3  C   LIG A   1      -5.782   3.191 124.884  0.00  0.00    -0.003 A 
ATOM      4  C   LIG A   1      -6.648   2.157 124.480  0.00  0.00    +0.120 A 
ATOM      5  C   LIG A   1      -7.099   2.050 123.161  0.00  0.00    +0.046 A 
ATOM      6  C   LIG A   1      -6.658   2.926 122.183  0.00  0.00    +0.018 A 
ENDROOT
BRANCH   1   8
ATOM      7  O   LIG A   1      -4.151   5.497 121.707  0.00  0.00    -0.245 OA
ATOM      8  C   LIG A   1      -5.101   4.762 121.502  0.00  0.00    +0.339 C 
BRANCH   8   9
ATOM      9  O   LIG A   1      -5.627   4.429 120.296  0.00  0.00    -0.465 OA
ATOM     10  C   LIG A   1      -5.524   5.447 119.302  0.00  0.00    +0.280 C 
ENDBRANCH   8   9
ENDBRANCH   1   8
BRANCH   4  11
ATOM     11  O   LIG A   1      -7.112   1.147 125.265  0.00  0.00    -0.506 OA
ATOM     12  H   LIG A   1      -6.366   0.708 125.717  0.00  0.00    +0.292 HD
ENDBRANCH   4  11
BRANCH   3  13
ATOM     13  C   LIG A   1      -5.182   3.385 126.274  0.00  0.00    +0.073 C 
BRANCH  13  14
ATOM     14  C   LIG A   1      -4.087   4.457 126.458  0.00  0.00    +0.150 C 
BRANCH  14  15
ATOM     15  C   LIG A   1      -2.937   4.089 127.438  0.00  0.00    +0.086 C 
ATOM     16  C   LIG A   1      -1.949   3.129 126.752  0.00  0.00    +0.043 C 
ATOM     17  C   LIG A   1      -3.406   3.485 128.757  0.00  0.00    +0.043 C 
BRANCH  15  18
ATOM     18  O   LIG A   1      -2.222   5.309 127.716  0.00  0.00    -0.387 OA
ATOM     19  H   LIG A   1      -2.472   5.962 127.036  0.00  0.00    +0.210 HD
ENDBRANCH  15  18
ENDBRANCH  14  15
BRANCH  14  20
ATOM     20  O   LIG A   1      -4.719   5.615 127.049  0.00  0.00    -0.389 OA
ATOM     21  H   LIG A   1      -4.503   5.543 128.012  0.00  0.00    +0.210 HD
ENDBRANCH  14  20
ENDBRANCH  13  14
ENDBRANCH   3  13
TORSDOF 8
ENDMDL
MODEL 6
REMARK VINA RESULT:      -5.8      9.266     10.443
REMARK  Name = NuBBE_354
REMARK  11 active torsions:
REMARK  status: ('A' for Active; 'I' for Inactive)
REMARK    1  A    between atoms: C_2  and  O_3
REMARK    2  A    between atoms: C_2  and  C_5
REMARK    3  A    between atoms: O_3  and  C_4
REMARK    4  A    between atoms: C_7  and  C_8
REMARK    5  A    between atoms: C_8  and  C_9
REMARK    6  A    between atoms: C_9  and  O_10
REMARK    7  A    between atoms: C_9  and  C_11
REMARK    8  A    between atoms: C_11  and  C_12
REMARK    9  A    between atoms: C_11  and  O_13
REMARK   10  A    between atoms: C_11  and  C_14
REMARK   11  A    between atoms: C_15  and  O_16
REMARK                            x       y       z     vdW  Elec       q    Type
REMARK                         _______ _______ _______ _____ _____    ______ ____
ROOT
ATOM      1  C   LIG A   1      -7.395  -1.850 123.675  0.00  0.00    +0.059 A 
ATOM      2  C   LIG A   1      -6.955  -0.584 124.095  0.00  0.00    +0.022 A 
ATOM      3  C   LIG A   1      -7.737   0.576 123.914  0.00  0.00    -0.003 A 
ATOM      4  C   LIG A   1      -8.990   0.395 123.298  0.00  0.00    +0.120 A 
ATOM      5  C   LIG A   1      -9.402  -0.854 122.826  0.00  0.00    +0.046 A 
ATOM      6  C   LIG A   1      -8.614  -1.980 123.004  0.00  0.00    +0.018 A 
ENDROOT
BRANCH   1   8
ATOM      7  O   LIG A   1      -7.088  -4.129 124.317  0.00  0.00    -0.245 OA
ATOM      8  C   LIG A   1      -6.606  -3.040 124.054  0.00  0.00    +0.339 C 
BRANCH   8   9
ATOM      9  O   LIG A   1      -5.292  -2.753 123.879  0.00  0.00    -0.465 OA
ATOM     10  C   LIG A   1      -4.471  -3.883 123.588  0.00  0.00    +0.280 C 
ENDBRANCH   8   9
ENDBRANCH   1   8
BRANCH   4  11
ATOM     11  O   LIG A   1      -9.942   1.351 123.120  0.00  0.00    -0.506 OA
ATOM     12  H   LIG A   1     -10.271   1.657 123.986  0.00  0.00    +0.292 HD
ENDBRANCH   4  11
BRANCH   3  13
ATOM     13  C   LIG A   1      -7.196   1.871 124.515  0.00  0.00    +0.073 C 
BRANCH  13  14
ATOM     14  C   LIG A   1      -7.016   3.091 123.587  0.00  0.00    +0.150 C 
BRANCH  14  15
ATOM     15  C   LIG A   1      -5.914   4.105 124.008  0.00  0.00    +0.086 C 
ATOM     16  C   LIG A   1      -5.076   4.509 122.783  0.00  0.00    +0.043 C 
ATOM     17  C   LIG A   1      -4.994   3.606 125.117  0.00  0.00    +0.043 C 
BRANCH  15  18
ATOM     18  O   LIG A   1      -6.594   5.290 124.469  0.00  0.00    -0.387 OA
ATOM     19  H   LIG A   1      -5.916   5.939 124.729  0.00  0.00    +0.210 HD
ENDBRANCH  15  18
ENDBRANCH  14  15
BRANCH  14  20
ATOM     20  O   LIG A   1      -8.248   3.846 123.632  0.00  0.00    -0.389 OA
ATOM     21  H   LIG A   1      -8.853   3.290 124.182  0.00  0.00    +0.210 HD
ENDBRANCH  14  20
ENDBRANCH  13  14
ENDBRANCH   3  13
TORSDOF 8
ENDMDL
MODEL 7
REMARK VINA RESULT:      -5.7      8.659      9.393
REMARK  Name = NuBBE_354
REMARK  11 active torsions:
REMARK  status: ('A' for Active; 'I' for Inactive)
REMARK    1  A    between atoms: C_2  and  O_3
REMARK    2  A    between atoms: C_2  and  C_5
REMARK    3  A    between atoms: O_3  and  C_4
REMARK    4  A    between atoms: C_7  and  C_8
REMARK    5  A    between atoms: C_8  and  C_9
REMARK    6  A    between atoms: C_9  and  O_10
REMARK    7  A    between atoms: C_9  and  C_11
REMARK    8  A    between atoms: C_11  and  C_12
REMARK    9  A    between atoms: C_11  and  O_13
REMARK   10  A    between atoms: C_11  and  C_14
REMARK   11  A    between atoms: C_15  and  O_16
REMARK                            x       y       z     vdW  Elec       q    Type
REMARK                         _______ _______ _______ _____ _____    ______ ____
ROOT
ATOM      1  C   LIG A   1      -7.832  -2.511 128.664  0.00  0.00    +0.059 A 
ATOM      2  C   LIG A   1      -7.718  -1.484 127.711  0.00  0.00    +0.022 A 
ATOM      3  C   LIG A   1      -8.359  -1.554 126.458  0.00  0.00    -0.003 A 
ATOM      4  C   LIG A   1      -9.131  -2.706 126.214  0.00  0.00    +0.120 A 
ATOM      5  C   LIG A   1      -9.196  -3.755 127.137  0.00  0.00    +0.046 A 
ATOM      6  C   LIG A   1      -8.551  -3.670 128.359  0.00  0.00    +0.018 A 
ENDROOT
BRANCH   1   8
ATOM      7  O   LIG A   1      -7.802  -1.584 130.863  0.00  0.00    -0.245 OA
ATOM      8  C   LIG A   1      -7.282  -2.291 130.017  0.00  0.00    +0.339 C 
BRANCH   8   9
ATOM      9  O   LIG A   1      -6.237  -3.138 130.194  0.00  0.00    -0.465 OA
ATOM     10  C   LIG A   1      -6.179  -3.750 131.481  0.00  0.00    +0.280 C 
ENDBRANCH   8   9
ENDBRANCH   1   8
BRANCH   4  11
ATOM     11  O   LIG A   1      -9.912  -2.933 125.123  0.00  0.00    -0.506 OA
ATOM     12  H   LIG A   1     -10.627  -2.270 125.083  0.00  0.00    +0.292 HD
ENDBRANCH   4  11
BRANCH   3  13
ATOM     13  C   LIG A   1      -8.248  -0.326 125.558  0.00  0.00    +0.073 C 
BRANCH  13  14
ATOM     14  C   LIG A   1      -9.459   0.625 125.462  0.00  0.00    +0.150 C 
BRANCH  14  15
ATOM     15  C   LIG A   1      -9.819   1.120 124.031  0.00  0.00    +0.086 C 
ATOM     16  C   LIG A   1      -9.572  -0.002 123.009  0.00  0.00    +0.043 C 
ATOM     17  C   LIG A   1      -9.078   2.381 123.599  0.00  0.00    +0.043 C 
BRANCH  15  18
ATOM     18  O   LIG A   1     -11.235   1.393 124.031  0.00  0.00    -0.387 OA
ATOM     19  H   LIG A   1     -11.515   1.510 123.104  0.00  0.00    +0.210 HD
ENDBRANCH  15  18
ENDBRANCH  14  15
BRANCH  14  20
ATOM     20  O   LIG A   1      -9.118   1.825 126.192  0.00  0.00    -0.389 OA
ATOM     21  H   LIG A   1      -8.945   1.507 127.112  0.00  0.00    +0.210 HD
ENDBRANCH  14  20
ENDBRANCH  13  14
ENDBRANCH   3  13
TORSDOF 8
ENDMDL
MODEL 8
REMARK VINA RESULT:      -5.6      3.212      4.293
REMARK  Name = NuBBE_354
REMARK  11 active torsions:
REMARK  status: ('A' for Active; 'I' for Inactive)
REMARK    1  A    between atoms: C_2  and  O_3
REMARK    2  A    between atoms: C_2  and  C_5
REMARK    3  A    between atoms: O_3  and  C_4
REMARK    4  A    between atoms: C_7  and  C_8
REMARK    5  A    between atoms: C_8  and  C_9
REMARK    6  A    between atoms: C_9  and  O_10
REMARK    7  A    between atoms: C_9  and  C_11
REMARK    8  A    between atoms: C_11  and  C_12
REMARK    9  A    between atoms: C_11  and  O_13
REMARK   10  A    between atoms: C_11  and  C_14
REMARK   11  A    between atoms: C_15  and  O_16
REMARK                            x       y       z     vdW  Elec       q    Type
REMARK                         _______ _______ _______ _____ _____    ______ ____
ROOT
ATOM      1  C   LIG A   1      -9.075   2.442 132.286  0.00  0.00    +0.059 A 
ATOM      2  C   LIG A   1      -9.842   3.120 131.323  0.00  0.00    +0.022 A 
ATOM      3  C   LIG A   1     -10.222   4.468 131.486  0.00  0.00    -0.003 A 
ATOM      4  C   LIG A   1      -9.784   5.103 132.663  0.00  0.00    +0.120 A 
ATOM      5  C   LIG A   1      -9.073   4.413 133.649  0.00  0.00    +0.046 A 
ATOM      6  C   LIG A   1      -8.717   3.085 133.474  0.00  0.00    +0.018 A 
ENDROOT
BRANCH   1   8
ATOM      7  O   LIG A   1      -8.657   0.562 130.876  0.00  0.00    -0.245 OA
ATOM      8  C   LIG A   1      -8.565   1.093 131.970  0.00  0.00    +0.339 C 
BRANCH   8   9
ATOM      9  O   LIG A   1      -7.838   0.654 133.028  0.00  0.00    -0.465 OA
ATOM     10  C   LIG A   1      -6.670  -0.087 132.681  0.00  0.00    +0.280 C 
ENDBRANCH   8   9
ENDBRANCH   1   8
BRANCH   4  11
ATOM     11  O   LIG A   1      -9.947   6.418 132.974  0.00  0.00    -0.506 OA
ATOM     12  H   LIG A   1      -9.430   6.637 133.772  0.00  0.00    +0.292 HD
ENDBRANCH   4  11
BRANCH   3  13
ATOM     13  C   LIG A   1     -10.957   5.121 130.318  0.00  0.00    +0.073 C 
BRANCH  13  14
ATOM     14  C   LIG A   1     -10.307   6.341 129.632  0.00  0.00    +0.150 C 
BRANCH  14  15
ATOM     15  C   LIG A   1     -11.289   7.337 128.951  0.00  0.00    +0.086 C 
ATOM     16  C   LIG A   1     -10.499   8.419 128.194  0.00  0.00    +0.043 C 
ATOM     17  C   LIG A   1     -12.276   7.998 129.908  0.00  0.00    +0.043 C 
BRANCH  15  18
ATOM     18  O   LIG A   1     -12.029   6.584 127.969  0.00  0.00    -0.387 OA
ATOM     19  H   LIG A   1     -11.899   5.638 128.160  0.00  0.00    +0.210 HD
ENDBRANCH  15  18
ENDBRANCH  14  15
BRANCH  14  20
ATOM     20  O   LIG A   1      -9.487   5.836 128.554  0.00  0.00    -0.389 OA
ATOM     21  H   LIG A   1      -9.324   6.628 127.983  0.00  0.00    +0.210 HD
ENDBRANCH  14  20
ENDBRANCH  13  14
ENDBRANCH   3  13
TORSDOF 8
ENDMDL
MODEL 9
REMARK VINA RESULT:      -5.5      9.186     10.214
REMARK  Name = NuBBE_354
REMARK  11 active torsions:
REMARK  status: ('A' for Active; 'I' for Inactive)
REMARK    1  A    between atoms: C_2  and  O_3
REMARK    2  A    between atoms: C_2  and  C_5
REMARK    3  A    between atoms: O_3  and  C_4
REMARK    4  A    between atoms: C_7  and  C_8
REMARK    5  A    between atoms: C_8  and  C_9
REMARK    6  A    between atoms: C_9  and  O_10
REMARK    7  A    between atoms: C_9  and  C_11
REMARK    8  A    between atoms: C_11  and  C_12
REMARK    9  A    between atoms: C_11  and  O_13
REMARK   10  A    between atoms: C_11  and  C_14
REMARK   11  A    between atoms: C_15  and  O_16
REMARK                            x       y       z     vdW  Elec       q    Type
REMARK                         _______ _______ _______ _____ _____    ______ ____
ROOT
ATOM      1  C   LIG A   1      -6.996  -1.703 123.724  0.00  0.00    +0.059 A 
ATOM      2  C   LIG A   1      -7.037  -0.305 123.588  0.00  0.00    +0.022 A 
ATOM      3  C   LIG A   1      -8.194   0.368 123.147  0.00  0.00    -0.003 A 
ATOM      4  C   LIG A   1      -9.313  -0.437 122.859  0.00  0.00    +0.120 A 
ATOM      5  C   LIG A   1      -9.255  -1.831 122.937  0.00  0.00    +0.046 A 
ATOM      6  C   LIG A   1      -8.104  -2.474 123.364  0.00  0.00    +0.018 A 
ENDROOT
BRANCH   1   8
ATOM      7  O   LIG A   1      -5.673  -2.460 125.561  0.00  0.00    -0.245 OA
ATOM      8  C   LIG A   1      -5.814  -2.323 124.358  0.00  0.00    +0.339 C 
BRANCH   8   9
ATOM      9  O   LIG A   1      -5.038  -2.856 123.382  0.00  0.00    -0.465 OA
ATOM     10  C   LIG A   1      -4.502  -4.143 123.685  0.00  0.00    +0.280 C 
ENDBRANCH   8   9
ENDBRANCH   1   8
BRANCH   4  11
ATOM     11  O   LIG A   1     -10.555   0.007 122.521  0.00  0.00    -0.506 OA
ATOM     12  H   LIG A   1     -10.710   0.889 122.911  0.00  0.00    +0.292 HD
ENDBRANCH   4  11
BRANCH   3  13
ATOM     13  C   LIG A   1      -8.146   1.893 123.148  0.00  0.00    +0.073 C 
BRANCH  13  14
ATOM     14  C   LIG A   1      -8.841   2.649 124.301  0.00  0.00    +0.150 C 
BRANCH  14  15
ATOM     15  C   LIG A   1      -8.075   2.668 125.655  0.00  0.00    +0.086 C 
ATOM     16  C   LIG A   1      -6.561   2.754 125.402  0.00  0.00    +0.043 C 
ATOM     17  C   LIG A   1      -8.377   1.480 126.563  0.00  0.00    +0.043 C 
BRANCH  15  18
ATOM     18  O   LIG A   1      -8.464   3.879 126.334  0.00  0.00    -0.387 OA
ATOM     19  H   LIG A   1      -7.986   4.620 125.917  0.00  0.00    +0.210 HD
ENDBRANCH  15  18
ENDBRANCH  14  15
BRANCH  14  20
ATOM     20  O   LIG A   1     -10.075   1.952 124.585  0.00  0.00    -0.389 OA
ATOM     21  H   LIG A   1     -10.389   2.353 125.432  0.00  0.00    +0.210 HD
ENDBRANCH  14  20
ENDBRANCH  13  14
ENDBRANCH   3  13
TORSDOF 8
ENDMDL
