MODEL 1
REMARK VINA RESULT:      -8.5      0.000      0.000
REMARK  Name = NuBBE_102
REMARK  12 active torsions:
REMARK  status: ('A' for Active; 'I' for Inactive)
REMARK    1  A    between atoms: C_2  and  C_3
REMARK    2  A    between atoms: C_4  and  O_28
REMARK    3  A    between atoms: C_8  and  C_25
REMARK    4  A    between atoms: C_9  and  C_10
REMARK    5  A    between atoms: C_10  and  C_11
REMARK    6  A    between atoms: C_25  and  O_26
REMARK    7  A    between atoms: O_28  and  C_29
REMARK    8  A    between atoms: C_32  and  C_40
REMARK    9  A    between atoms: C_34  and  O_39
REMARK   10  A    between atoms: C_36  and  O_38
REMARK   11  A    between atoms: C_40  and  O_41
REMARK   12  A    between atoms: C_42  and  O_44
REMARK                            x       y       z     vdW  Elec       q    Type
REMARK                         _______ _______ _______ _____ _____    ______ ____
ROOT
ATOM      1  C   LIG A   1      -6.902   1.924 128.872  0.00  0.00    +0.088 C 
ATOM      2  C   LIG A   1      -7.373   3.335 129.408  0.00  0.00    +0.316 C 
ATOM      3  O   LIG A   1      -6.292   4.272 129.295  0.00  0.00    -0.470 OA
ATOM      4  C   LIG A   1      -5.439   4.162 128.244  0.00  0.00    +0.201 C 
ATOM      5  C   LIG A   1      -5.353   3.147 127.372  0.00  0.00    +0.074 C 
ATOM      6  C   LIG A   1      -6.264   1.938 127.421  0.00  0.00    +0.043 C 
ENDROOT
BRANCH   1   8
ATOM      7  C   LIG A   1      -8.282   0.407 130.405  0.00  0.00    +0.004 C 
ATOM      8  C   LIG A   1      -7.667   0.668 129.246  0.00  0.00    -0.025 C 
ENDBRANCH   1   8
BRANCH   5   9
ATOM      9  C   LIG A   1      -4.108   3.087 126.570  0.00  0.00    +0.336 C 
ATOM     10  O   LIG A   1      -3.630   4.005 125.964  0.00  0.00    -0.245 OA
BRANCH   9  11
ATOM     11  O   LIG A   1      -3.506   1.882 126.614  0.00  0.00    -0.477 OA
ATOM     12  H   LIG A   1      -3.654   1.490 125.732  0.00  0.00    +0.295 HD
ENDBRANCH   9  11
ENDBRANCH   5   9
BRANCH   6  13
ATOM     13  C   LIG A   1      -7.285   1.755 126.250  0.00  0.00    +0.034 C 
BRANCH  13  14
ATOM     14  C   LIG A   1      -8.039   2.992 125.626  0.00  0.00    +0.101 C 
ATOM     15  C   LIG A   1      -7.309   3.413 124.371  0.00  0.00    +0.037 A 
ATOM     16  C   LIG A   1      -7.651   3.058 123.078  0.00  0.00    -0.016 A 
ATOM     17  C   LIG A   1      -8.916   2.330 122.779  0.00  0.00    +0.052 C 
ATOM     18  C   LIG A   1      -9.565   1.819 124.086  0.00  0.00    +0.086 C 
ATOM     19  N   LIG A   1      -9.431   2.776 125.199  0.00  0.00    -0.308 NA
ATOM     20  C   LIG A   1      -6.632   3.525 122.213  0.00  0.00    +0.003 A 
ATOM     21  C   LIG A   1      -6.380   3.397 120.833  0.00  0.00    +0.010 A 
ATOM     22  C   LIG A   1      -5.271   4.045 120.280  0.00  0.00    +0.001 A 
ATOM     23  C   LIG A   1      -4.436   4.826 121.077  0.00  0.00    +0.002 A 
ATOM     24  C   LIG A   1      -4.662   4.960 122.451  0.00  0.00    +0.026 A 
ATOM     25  C   LIG A   1      -5.757   4.281 122.996  0.00  0.00    +0.047 A 
ATOM     26  N   LIG A   1      -6.198   4.207 124.303  0.00  0.00    -0.356 N 
ATOM     27  H   LIG A   1     -10.041   2.557 125.970  0.00  0.00    +0.123 HD
ATOM     28  H   LIG A   1      -5.748   4.661 125.085  0.00  0.00    +0.166 HD
ENDBRANCH  13  14
ENDBRANCH   6  13
BRANCH   2  29
ATOM     29  O   LIG A   1      -8.604   3.940 128.930  0.00  0.00    -0.309 OA
BRANCH  29  30
ATOM     30  C   LIG A   1      -9.580   3.945 130.021  0.00  0.00    +0.286 C 
ATOM     31  O   LIG A   1     -10.824   4.583 129.689  0.00  0.00    -0.340 OA
ATOM     32  C   LIG A   1     -10.903   6.009 129.821  0.00  0.00    +0.178 C 
ATOM     33  C   LIG A   1     -10.360   6.536 131.164  0.00  0.00    +0.177 C 
ATOM     34  C   LIG A   1      -8.979   5.936 131.475  0.00  0.00    +0.179 C 
ATOM     35  C   LIG A   1      -9.041   4.409 131.396  0.00  0.00    +0.201 C 
BRANCH  34  36
ATOM     36  O   LIG A   1      -7.996   6.468 130.590  0.00  0.00    -0.386 OA
ATOM     37  H   LIG A   1      -8.437   6.671 129.741  0.00  0.00    +0.210 HD
ENDBRANCH  34  36
BRANCH  33  38
ATOM     38  O   LIG A   1     -11.276   6.171 132.218  0.00  0.00    -0.387 OA
ATOM     39  H   LIG A   1     -11.720   5.347 131.936  0.00  0.00    +0.210 HD
ENDBRANCH  33  38
BRANCH  35  40
ATOM     40  O   LIG A   1      -9.882   3.905 132.457  0.00  0.00    -0.384 OA
ATOM     41  H   LIG A   1      -9.297   3.681 133.216  0.00  0.00    +0.210 HD
ENDBRANCH  35  40
BRANCH  32  42
ATOM     42  C   LIG A   1     -10.305   6.701 128.599  0.00  0.00    +0.190 C 
BRANCH  42  43
ATOM     43  O   LIG A   1      -9.833   8.008 128.893  0.00  0.00    -0.392 OA
ATOM     44  H   LIG A   1      -9.119   8.192 128.254  0.00  0.00    +0.209 HD
ENDBRANCH  42  43
ENDBRANCH  32  42
ENDBRANCH  29  30
ENDBRANCH   2  29
TORSDOF 12
ENDMDL
MODEL 2
REMARK VINA RESULT:      -8.3      3.521      5.825
REMARK  Name = NuBBE_102
REMARK  12 active torsions:
REMARK  status: ('A' for Active; 'I' for Inactive)
REMARK    1  A    between atoms: C_2  and  C_3
REMARK    2  A    between atoms: C_4  and  O_28
REMARK    3  A    between atoms: C_8  and  C_25
REMARK    4  A    between atoms: C_9  and  C_10
REMARK    5  A    between atoms: C_10  and  C_11
REMARK    6  A    between atoms: C_25  and  O_26
REMARK    7  A    between atoms: O_28  and  C_29
REMARK    8  A    between atoms: C_32  and  C_40
REMARK    9  A    between atoms: C_34  and  O_39
REMARK   10  A    between atoms: C_36  and  O_38
REMARK   11  A    between atoms: C_40  and  O_41
REMARK   12  A    between atoms: C_42  and  O_44
REMARK                            x       y       z     vdW  Elec       q    Type
REMARK                         _______ _______ _______ _____ _____    ______ ____
ROOT
ATOM      1  C   LIG A   1      -4.871   3.426 126.128  0.00  0.00    +0.088 C 
ATOM      2  C   LIG A   1      -4.892   4.935 126.600  0.00  0.00    +0.316 C 
ATOM      3  O   LIG A   1      -5.862   5.660 125.831  0.00  0.00    -0.470 OA
ATOM      4  C   LIG A   1      -6.997   5.023 125.443  0.00  0.00    +0.201 C 
ATOM      5  C   LIG A   1      -7.257   3.710 125.519  0.00  0.00    +0.074 C 
ATOM      6  C   LIG A   1      -6.285   2.710 126.109  0.00  0.00    +0.043 C 
ENDROOT
BRANCH   1   8
ATOM      7  C   LIG A   1      -2.395   2.894 126.510  0.00  0.00    +0.004 C 
ATOM      8  C   LIG A   1      -3.683   2.538 126.453  0.00  0.00    -0.025 C 
ENDBRANCH   1   8
BRANCH   5   9
ATOM      9  C   LIG A   1      -8.384   3.223 124.689  0.00  0.00    +0.336 C 
ATOM     10  O   LIG A   1      -9.280   2.528 125.078  0.00  0.00    -0.245 OA
BRANCH   9  11
ATOM     11  O   LIG A   1      -8.347   3.680 123.422  0.00  0.00    -0.477 OA
ATOM     12  H   LIG A   1      -9.113   3.268 122.978  0.00  0.00    +0.295 HD
ENDBRANCH   9  11
ENDBRANCH   5   9
BRANCH   6  13
ATOM     13  C   LIG A   1      -6.689   2.016 127.452  0.00  0.00    +0.034 C 
BRANCH  13  14
ATOM     14  C   LIG A   1      -7.577   0.713 127.460  0.00  0.00    +0.101 C 
ATOM     15  C   LIG A   1      -7.124  -0.182 126.329  0.00  0.00    +0.037 A 
ATOM     16  C   LIG A   1      -6.257  -1.254 126.442  0.00  0.00    -0.016 A 
ATOM     17  C   LIG A   1      -5.794  -1.745 127.770  0.00  0.00    +0.052 C 
ATOM     18  C   LIG A   1      -6.180  -0.739 128.880  0.00  0.00    +0.086 C 
ATOM     19  N   LIG A   1      -7.505  -0.134 128.663  0.00  0.00    -0.308 NA
ATOM     20  C   LIG A   1      -5.972  -1.725 125.137  0.00  0.00    +0.003 A 
ATOM     21  C   LIG A   1      -5.111  -2.708 124.614  0.00  0.00    +0.010 A 
ATOM     22  C   LIG A   1      -5.113  -2.953 123.238  0.00  0.00    +0.001 A 
ATOM     23  C   LIG A   1      -5.970  -2.251 122.394  0.00  0.00    +0.002 A 
ATOM     24  C   LIG A   1      -6.827  -1.263 122.890  0.00  0.00    +0.026 A 
ATOM     25  C   LIG A   1      -6.792  -1.006 124.265  0.00  0.00    +0.047 A 
ATOM     26  N   LIG A   1      -7.493  -0.083 125.016  0.00  0.00    -0.356 N 
ATOM     27  H   LIG A   1      -7.854   0.334 129.484  0.00  0.00    +0.123 HD
ATOM     28  H   LIG A   1      -8.160   0.574 124.638  0.00  0.00    +0.166 HD
ENDBRANCH  13  14
ENDBRANCH   6  13
BRANCH   2  29
ATOM     29  O   LIG A   1      -5.022   5.272 128.007  0.00  0.00    -0.309 OA
BRANCH  29  30
ATOM     30  C   LIG A   1      -3.685   5.345 128.598  0.00  0.00    +0.286 C 
ATOM     31  O   LIG A   1      -3.581   4.717 129.887  0.00  0.00    -0.340 OA
ATOM     32  C   LIG A   1      -3.962   5.482 131.039  0.00  0.00    +0.178 C 
ATOM     33  C   LIG A   1      -3.350   6.897 131.070  0.00  0.00    +0.177 C 
ATOM     34  C   LIG A   1      -3.550   7.615 129.725  0.00  0.00    +0.179 C 
ATOM     35  C   LIG A   1      -3.023   6.744 128.582  0.00  0.00    +0.201 C 
BRANCH  34  36
ATOM     36  O   LIG A   1      -4.925   7.948 129.540  0.00  0.00    -0.386 OA
ATOM     37  H   LIG A   1      -5.021   8.910 129.686  0.00  0.00    +0.210 HD
ENDBRANCH  34  36
BRANCH  33  38
ATOM     38  O   LIG A   1      -1.935   6.793 131.337  0.00  0.00    -0.387 OA
ATOM     39  H   LIG A   1      -1.830   6.142 132.058  0.00  0.00    +0.210 HD
ENDBRANCH  33  38
BRANCH  35  40
ATOM     40  O   LIG A   1      -1.588   6.618 128.695  0.00  0.00    -0.384 OA
ATOM     41  H   LIG A   1      -1.236   7.497 128.966  0.00  0.00    +0.210 HD
ENDBRANCH  35  40
BRANCH  32  42
ATOM     42  C   LIG A   1      -5.476   5.460 131.229  0.00  0.00    +0.190 C 
BRANCH  42  43
ATOM     43  O   LIG A   1      -5.938   6.541 132.026  0.00  0.00    -0.392 OA
ATOM     44  H   LIG A   1      -5.212   6.757 132.642  0.00  0.00    +0.209 HD
ENDBRANCH  42  43
ENDBRANCH  32  42
ENDBRANCH  29  30
ENDBRANCH   2  29
TORSDOF 12
ENDMDL
MODEL 3
REMARK VINA RESULT:      -8.3      2.281      3.452
REMARK  Name = NuBBE_102
REMARK  12 active torsions:
REMARK  status: ('A' for Active; 'I' for Inactive)
REMARK    1  A    between atoms: C_2  and  C_3
REMARK    2  A    between atoms: C_4  and  O_28
REMARK    3  A    between atoms: C_8  and  C_25
REMARK    4  A    between atoms: C_9  and  C_10
REMARK    5  A    between atoms: C_10  and  C_11
REMARK    6  A    between atoms: C_25  and  O_26
REMARK    7  A    between atoms: O_28  and  C_29
REMARK    8  A    between atoms: C_32  and  C_40
REMARK    9  A    between atoms: C_34  and  O_39
REMARK   10  A    between atoms: C_36  and  O_38
REMARK   11  A    between atoms: C_40  and  O_41
REMARK   12  A    between atoms: C_42  and  O_44
REMARK                            x       y       z     vdW  Elec       q    Type
REMARK                         _______ _______ _______ _____ _____    ______ ____
ROOT
ATOM      1  C   LIG A   1      -7.273   1.582 127.975  0.00  0.00    +0.088 C 
ATOM      2  C   LIG A   1      -7.663   2.648 129.075  0.00  0.00    +0.316 C 
ATOM      3  O   LIG A   1      -6.484   3.349 129.497  0.00  0.00    -0.470 OA
ATOM      4  C   LIG A   1      -5.510   3.597 128.585  0.00  0.00    +0.201 C 
ATOM      5  C   LIG A   1      -5.410   3.092 127.346  0.00  0.00    +0.074 C 
ATOM      6  C   LIG A   1      -6.441   2.154 126.753  0.00  0.00    +0.043 C 
ENDROOT
BRANCH   1   8
ATOM      7  C   LIG A   1      -7.917  -0.873 127.635  0.00  0.00    +0.004 C 
ATOM      8  C   LIG A   1      -8.211   0.432 127.656  0.00  0.00    -0.025 C 
ENDBRANCH   1   8
BRANCH   5   9
ATOM      9  C   LIG A   1      -4.079   3.207 126.705  0.00  0.00    +0.336 C 
ATOM     10  O   LIG A   1      -3.593   4.225 126.299  0.00  0.00    -0.245 OA
BRANCH   9  11
ATOM     11  O   LIG A   1      -3.411   2.038 126.653  0.00  0.00    -0.477 OA
ATOM     12  H   LIG A   1      -3.565   1.694 125.753  0.00  0.00    +0.295 HD
ENDBRANCH   9  11
ENDBRANCH   5   9
BRANCH   6  13
ATOM     13  C   LIG A   1      -7.302   2.688 125.562  0.00  0.00    +0.034 C 
BRANCH  13  14
ATOM     14  C   LIG A   1      -7.053   2.189 124.087  0.00  0.00    +0.101 C 
ATOM     15  C   LIG A   1      -7.283   0.695 124.043  0.00  0.00    +0.037 A 
ATOM     16  C   LIG A   1      -8.446   0.068 123.633  0.00  0.00    -0.016 A 
ATOM     17  C   LIG A   1      -9.570   0.831 123.021  0.00  0.00    +0.052 C 
ATOM     18  C   LIG A   1      -9.344   2.351 123.195  0.00  0.00    +0.086 C 
ATOM     19  N   LIG A   1      -7.931   2.738 123.040  0.00  0.00    -0.308 NA
ATOM     20  C   LIG A   1      -8.308  -1.318 123.889  0.00  0.00    +0.003 A 
ATOM     21  C   LIG A   1      -9.165  -2.429 123.773  0.00  0.00    +0.010 A 
ATOM     22  C   LIG A   1      -8.676  -3.703 124.077  0.00  0.00    +0.001 A 
ATOM     23  C   LIG A   1      -7.350  -3.877 124.469  0.00  0.00    +0.002 A 
ATOM     24  C   LIG A   1      -6.483  -2.788 124.601  0.00  0.00    +0.026 A 
ATOM     25  C   LIG A   1      -6.995  -1.516 124.324  0.00  0.00    +0.047 A 
ATOM     26  N   LIG A   1      -6.389  -0.276 124.396  0.00  0.00    -0.356 N 
ATOM     27  H   LIG A   1      -7.814   3.731 122.922  0.00  0.00    +0.123 HD
ATOM     28  H   LIG A   1      -5.434  -0.123 124.687  0.00  0.00    +0.166 HD
ENDBRANCH  13  14
ENDBRANCH   6  13
BRANCH   2  29
ATOM     29  O   LIG A   1      -8.745   3.590 128.848  0.00  0.00    -0.309 OA
BRANCH  29  30
ATOM     30  C   LIG A   1      -9.658   3.543 129.992  0.00  0.00    +0.286 C 
ATOM     31  O   LIG A   1     -10.821   4.375 129.846  0.00  0.00    -0.340 OA
ATOM     32  C   LIG A   1     -10.703   5.760 130.197  0.00  0.00    +0.178 C 
ATOM     33  C   LIG A   1     -10.030   5.996 131.564  0.00  0.00    +0.177 C 
ATOM     34  C   LIG A   1      -8.728   5.188 131.685  0.00  0.00    +0.179 C 
ATOM     35  C   LIG A   1      -8.995   3.712 131.380  0.00  0.00    +0.201 C 
BRANCH  34  36
ATOM     36  O   LIG A   1      -7.726   5.728 130.825  0.00  0.00    -0.386 OA
ATOM     37  H   LIG A   1      -7.238   6.411 131.327  0.00  0.00    +0.210 HD
ENDBRANCH  34  36
BRANCH  33  38
ATOM     38  O   LIG A   1     -10.934   5.584 132.611  0.00  0.00    -0.387 OA
ATOM     39  H   LIG A   1     -10.824   4.619 132.717  0.00  0.00    +0.210 HD
ENDBRANCH  33  38
BRANCH  35  40
ATOM     40  O   LIG A   1      -9.844   3.155 132.409  0.00  0.00    -0.384 OA
ATOM     41  H   LIG A   1     -10.767   3.436 132.213  0.00  0.00    +0.210 HD
ENDBRANCH  35  40
BRANCH  32  42
ATOM     42  C   LIG A   1     -10.078   6.558 129.055  0.00  0.00    +0.190 C 
BRANCH  42  43
ATOM     43  O   LIG A   1      -9.506   7.780 129.498  0.00  0.00    -0.392 OA
ATOM     44  H   LIG A   1      -8.538   7.668 129.438  0.00  0.00    +0.209 HD
ENDBRANCH  42  43
ENDBRANCH  32  42
ENDBRANCH  29  30
ENDBRANCH   2  29
TORSDOF 12
ENDMDL
MODEL 4
REMARK VINA RESULT:      -8.2      2.914      5.464
REMARK  Name = NuBBE_102
REMARK  12 active torsions:
REMARK  status: ('A' for Active; 'I' for Inactive)
REMARK    1  A    between atoms: C_2  and  C_3
REMARK    2  A    between atoms: C_4  and  O_28
REMARK    3  A    between atoms: C_8  and  C_25
REMARK    4  A    between atoms: C_9  and  C_10
REMARK    5  A    between atoms: C_10  and  C_11
REMARK    6  A    between atoms: C_25  and  O_26
REMARK    7  A    between atoms: O_28  and  C_29
REMARK    8  A    between atoms: C_32  and  C_40
REMARK    9  A    between atoms: C_34  and  O_39
REMARK   10  A    between atoms: C_36  and  O_38
REMARK   11  A    between atoms: C_40  and  O_41
REMARK   12  A    between atoms: C_42  and  O_44
REMARK                            x       y       z     vdW  Elec       q    Type
REMARK                         _______ _______ _______ _____ _____    ______ ____
ROOT
ATOM      1  C   LIG A   1      -3.989   3.863 126.413  0.00  0.00    +0.088 C 
ATOM      2  C   LIG A   1      -4.740   5.047 127.143  0.00  0.00    +0.316 C 
ATOM      3  O   LIG A   1      -5.514   5.783 126.184  0.00  0.00    -0.470 OA
ATOM      4  C   LIG A   1      -6.085   5.112 125.152  0.00  0.00    +0.201 C 
ATOM      5  C   LIG A   1      -5.860   3.841 124.786  0.00  0.00    +0.074 C 
ATOM      6  C   LIG A   1      -4.915   2.923 125.533  0.00  0.00    +0.043 C 
ENDROOT
BRANCH   1   8
ATOM      7  C   LIG A   1      -1.569   3.042 126.563  0.00  0.00    +0.004 C 
ATOM      8  C   LIG A   1      -2.798   3.191 127.069  0.00  0.00    -0.025 C 
ENDBRANCH   1   8
BRANCH   5   9
ATOM      9  C   LIG A   1      -6.303   3.472 123.421  0.00  0.00    +0.336 C 
ATOM     10  O   LIG A   1      -6.865   2.454 123.128  0.00  0.00    -0.245 OA
BRANCH   9  11
ATOM     11  O   LIG A   1      -6.057   4.429 122.505  0.00  0.00    -0.477 OA
ATOM     12  H   LIG A   1      -5.499   5.085 122.964  0.00  0.00    +0.295 HD
ENDBRANCH   9  11
ENDBRANCH   5   9
BRANCH   6  13
ATOM     13  C   LIG A   1      -5.541   1.712 126.299  0.00  0.00    +0.034 C 
BRANCH  13  14
ATOM     14  C   LIG A   1      -7.077   1.676 126.652  0.00  0.00    +0.101 C 
ATOM     15  C   LIG A   1      -7.688   0.455 126.001  0.00  0.00    +0.037 A 
ATOM     16  C   LIG A   1      -7.926  -0.759 126.621  0.00  0.00    -0.016 A 
ATOM     17  C   LIG A   1      -7.742  -0.934 128.089  0.00  0.00    +0.052 C 
ATOM     18  C   LIG A   1      -7.009   0.289 128.688  0.00  0.00    +0.086 C 
ATOM     19  N   LIG A   1      -7.431   1.561 128.077  0.00  0.00    -0.308 NA
ATOM     20  C   LIG A   1      -8.358  -1.676 125.632  0.00  0.00    +0.003 A 
ATOM     21  C   LIG A   1      -8.659  -3.052 125.633  0.00  0.00    +0.010 A 
ATOM     22  C   LIG A   1      -9.117  -3.650 124.455  0.00  0.00    +0.001 A 
ATOM     23  C   LIG A   1      -9.295  -2.893 123.299  0.00  0.00    +0.002 A 
ATOM     24  C   LIG A   1      -8.994  -1.528 123.272  0.00  0.00    +0.026 A 
ATOM     25  C   LIG A   1      -8.507  -0.949 124.449  0.00  0.00    +0.047 A 
ATOM     26  N   LIG A   1      -8.105   0.349 124.703  0.00  0.00    -0.356 N 
ATOM     27  H   LIG A   1      -7.137   2.362 128.612  0.00  0.00    +0.123 HD
ATOM     28  H   LIG A   1      -8.106   1.091 124.020  0.00  0.00    +0.166 HD
ENDBRANCH  13  14
ENDBRANCH   6  13
BRANCH   2  29
ATOM     29  O   LIG A   1      -5.533   4.802 128.335  0.00  0.00    -0.309 OA
BRANCH  29  30
ATOM     30  C   LIG A   1      -4.628   4.588 129.466  0.00  0.00    +0.286 C 
ATOM     31  O   LIG A   1      -5.213   3.848 130.551  0.00  0.00    -0.340 OA
ATOM     32  C   LIG A   1      -5.992   4.572 131.513  0.00  0.00    +0.178 C 
ATOM     33  C   LIG A   1      -5.302   5.849 132.032  0.00  0.00    +0.177 C 
ATOM     34  C   LIG A   1      -4.765   6.699 130.869  0.00  0.00    +0.179 C 
ATOM     35  C   LIG A   1      -3.874   5.845 129.963  0.00  0.00    +0.201 C 
BRANCH  34  36
ATOM     36  O   LIG A   1      -5.844   7.283 130.142  0.00  0.00    -0.386 OA
ATOM     37  H   LIG A   1      -6.632   7.276 130.721  0.00  0.00    +0.210 HD
ENDBRANCH  34  36
BRANCH  33  38
ATOM     38  O   LIG A   1      -4.199   5.475 132.884  0.00  0.00    -0.387 OA
ATOM     39  H   LIG A   1      -4.279   6.005 133.701  0.00  0.00    +0.210 HD
ENDBRANCH  33  38
BRANCH  35  40
ATOM     40  O   LIG A   1      -2.683   5.459 130.685  0.00  0.00    -0.384 OA
ATOM     41  H   LIG A   1      -2.597   6.064 131.457  0.00  0.00    +0.210 HD
ENDBRANCH  35  40
BRANCH  32  42
ATOM     42  C   LIG A   1      -7.411   4.802 131.000  0.00  0.00    +0.190 C 
BRANCH  42  43
ATOM     43  O   LIG A   1      -7.833   3.786 130.101  0.00  0.00    -0.392 OA
ATOM     44  H   LIG A   1      -7.023   3.425 129.695  0.00  0.00    +0.209 HD
ENDBRANCH  42  43
ENDBRANCH  32  42
ENDBRANCH  29  30
ENDBRANCH   2  29
TORSDOF 12
ENDMDL
MODEL 5
REMARK VINA RESULT:      -8.0      1.655      2.059
REMARK  Name = NuBBE_102
REMARK  12 active torsions:
REMARK  status: ('A' for Active; 'I' for Inactive)
REMARK    1  A    between atoms: C_2  and  C_3
REMARK    2  A    between atoms: C_4  and  O_28
REMARK    3  A    between atoms: C_8  and  C_25
REMARK    4  A    between atoms: C_9  and  C_10
REMARK    5  A    between atoms: C_10  and  C_11
REMARK    6  A    between atoms: C_25  and  O_26
REMARK    7  A    between atoms: O_28  and  C_29
REMARK    8  A    between atoms: C_32  and  C_40
REMARK    9  A    between atoms: C_34  and  O_39
REMARK   10  A    between atoms: C_36  and  O_38
REMARK   11  A    between atoms: C_40  and  O_41
REMARK   12  A    between atoms: C_42  and  O_44
REMARK                            x       y       z     vdW  Elec       q    Type
REMARK                         _______ _______ _______ _____ _____    ______ ____
ROOT
ATOM      1  C   LIG A   1      -5.171   1.186 129.180  0.00  0.00    +0.088 C 
ATOM      2  C   LIG A   1      -5.821   2.249 130.153  0.00  0.00    +0.316 C 
ATOM      3  O   LIG A   1      -4.878   3.302 130.404  0.00  0.00    -0.470 OA
ATOM      4  C   LIG A   1      -4.036   3.677 129.407  0.00  0.00    +0.201 C 
ATOM      5  C   LIG A   1      -3.827   3.046 128.242  0.00  0.00    +0.074 C 
ATOM      6  C   LIG A   1      -4.563   1.784 127.843  0.00  0.00    +0.043 C 
ENDROOT
BRANCH   1   8
ATOM      7  C   LIG A   1      -5.118  -1.372 129.280  0.00  0.00    +0.004 C 
ATOM      8  C   LIG A   1      -5.752  -0.212 129.075  0.00  0.00    -0.025 C 
ENDBRANCH   1   8
BRANCH   5   9
ATOM      9  C   LIG A   1      -2.598   3.432 127.509  0.00  0.00    +0.336 C 
ATOM     10  O   LIG A   1      -2.212   4.556 127.349  0.00  0.00    -0.245 OA
BRANCH   9  11
ATOM     11  O   LIG A   1      -1.895   2.375 127.056  0.00  0.00    -0.477 OA
ATOM     12  H   LIG A   1      -0.983   2.518 127.377  0.00  0.00    +0.295 HD
ENDBRANCH   9  11
ENDBRANCH   5   9
BRANCH   6  13
ATOM     13  C   LIG A   1      -5.568   1.882 126.649  0.00  0.00    +0.034 C 
BRANCH  13  14
ATOM     14  C   LIG A   1      -6.400   3.197 126.389  0.00  0.00    +0.101 C 
ATOM     15  C   LIG A   1      -6.322   3.528 124.917  0.00  0.00    +0.037 A 
ATOM     16  C   LIG A   1      -7.276   3.214 123.964  0.00  0.00    -0.016 A 
ATOM     17  C   LIG A   1      -8.595   2.637 124.344  0.00  0.00    +0.052 C 
ATOM     18  C   LIG A   1      -8.586   2.207 125.830  0.00  0.00    +0.086 C 
ATOM     19  N   LIG A   1      -7.841   3.143 126.689  0.00  0.00    -0.308 NA
ATOM     20  C   LIG A   1      -6.754   3.559 122.694  0.00  0.00    +0.003 A 
ATOM     21  C   LIG A   1      -7.207   3.400 121.370  0.00  0.00    +0.010 A 
ATOM     22  C   LIG A   1      -6.439   3.915 120.321  0.00  0.00    +0.001 A 
ATOM     23  C   LIG A   1      -5.252   4.595 120.579  0.00  0.00    +0.002 A 
ATOM     24  C   LIG A   1      -4.777   4.756 121.885  0.00  0.00    +0.026 A 
ATOM     25  C   LIG A   1      -5.539   4.209 122.923  0.00  0.00    +0.047 A 
ATOM     26  N   LIG A   1      -5.306   4.189 124.285  0.00  0.00    -0.356 N 
ATOM     27  H   LIG A   1      -8.025   2.997 127.668  0.00  0.00    +0.123 HD
ATOM     28  H   LIG A   1      -4.493   4.589 124.731  0.00  0.00    +0.166 HD
ENDBRANCH  13  14
ENDBRANCH   6  13
BRANCH   2  29
ATOM     29  O   LIG A   1      -7.130   2.811 129.873  0.00  0.00    -0.309 OA
BRANCH  29  30
ATOM     30  C   LIG A   1      -8.035   2.467 130.971  0.00  0.00    +0.286 C 
ATOM     31  O   LIG A   1      -9.371   2.971 130.807  0.00  0.00    -0.340 OA
ATOM     32  C   LIG A   1      -9.635   4.319 131.220  0.00  0.00    +0.178 C 
ATOM     33  C   LIG A   1      -9.094   4.651 132.624  0.00  0.00    +0.177 C 
ATOM     34  C   LIG A   1      -7.629   4.209 132.772  0.00  0.00    +0.179 C 
ATOM     35  C   LIG A   1      -7.487   2.733 132.394  0.00  0.00    +0.201 C 
BRANCH  34  36
ATOM     36  O   LIG A   1      -6.778   5.037 131.980  0.00  0.00    -0.386 OA
ATOM     37  H   LIG A   1      -6.851   5.951 132.321  0.00  0.00    +0.210 HD
ENDBRANCH  34  36
BRANCH  33  38
ATOM     38  O   LIG A   1      -9.891   3.963 133.611  0.00  0.00    -0.387 OA
ATOM     39  H   LIG A   1     -10.069   3.069 133.259  0.00  0.00    +0.210 HD
ENDBRANCH  33  38
BRANCH  35  40
ATOM     40  O   LIG A   1      -8.191   1.919 133.359  0.00  0.00    -0.384 OA
ATOM     41  H   LIG A   1      -7.655   1.911 134.185  0.00  0.00    +0.210 HD
ENDBRANCH  35  40
BRANCH  32  42
ATOM     42  C   LIG A   1      -9.206   5.311 130.141  0.00  0.00    +0.190 C 
BRANCH  42  43
ATOM     43  O   LIG A   1      -9.252   4.747 128.838  0.00  0.00    -0.392 OA
ATOM     44  H   LIG A   1      -8.592   5.232 128.307  0.00  0.00    +0.209 HD
ENDBRANCH  42  43
ENDBRANCH  32  42
ENDBRANCH  29  30
ENDBRANCH   2  29
TORSDOF 12
ENDMDL
MODEL 6
REMARK VINA RESULT:      -7.9      2.640      4.580
REMARK  Name = NuBBE_102
REMARK  12 active torsions:
REMARK  status: ('A' for Active; 'I' for Inactive)
REMARK    1  A    between atoms: C_2  and  C_3
REMARK    2  A    between atoms: C_4  and  O_28
REMARK    3  A    between atoms: C_8  and  C_25
REMARK    4  A    between atoms: C_9  and  C_10
REMARK    5  A    between atoms: C_10  and  C_11
REMARK    6  A    between atoms: C_25  and  O_26
REMARK    7  A    between atoms: O_28  and  C_29
REMARK    8  A    between atoms: C_32  and  C_40
REMARK    9  A    between atoms: C_34  and  O_39
REMARK   10  A    between atoms: C_36  and  O_38
REMARK   11  A    between atoms: C_40  and  O_41
REMARK   12  A    between atoms: C_42  and  O_44
REMARK                            x       y       z     vdW  Elec       q    Type
REMARK                         _______ _______ _______ _____ _____    ______ ____
ROOT
ATOM      1  C   LIG A   1      -5.104   3.225 128.716  0.00  0.00    +0.088 C 
ATOM      2  C   LIG A   1      -6.355   4.085 129.155  0.00  0.00    +0.316 C 
ATOM      3  O   LIG A   1      -6.872   4.788 128.015  0.00  0.00    -0.470 OA
ATOM      4  C   LIG A   1      -6.815   4.191 126.797  0.00  0.00    +0.201 C 
ATOM      5  C   LIG A   1      -6.147   3.075 126.472  0.00  0.00    +0.074 C 
ATOM      6  C   LIG A   1      -5.350   2.268 127.476  0.00  0.00    +0.043 C 
ENDROOT
BRANCH   1   8
ATOM      7  C   LIG A   1      -4.009   3.116 131.028  0.00  0.00    +0.004 C 
ATOM      8  C   LIG A   1      -4.118   2.722 129.754  0.00  0.00    -0.025 C 
ENDBRANCH   1   8
BRANCH   5   9
ATOM      9  C   LIG A   1      -5.929   2.850 125.023  0.00  0.00    +0.336 C 
ATOM     10  O   LIG A   1      -6.347   1.916 124.398  0.00  0.00    -0.245 OA
BRANCH   9  11
ATOM     11  O   LIG A   1      -5.235   3.840 124.430  0.00  0.00    -0.477 OA
ATOM     12  H   LIG A   1      -5.076   3.531 123.517  0.00  0.00    +0.295 HD
ENDBRANCH   9  11
ENDBRANCH   5   9
BRANCH   6  13
ATOM     13  C   LIG A   1      -5.879   0.842 127.840  0.00  0.00    +0.034 C 
BRANCH  13  14
ATOM     14  C   LIG A   1      -7.417   0.578 128.071  0.00  0.00    +0.101 C 
ATOM     15  C   LIG A   1      -7.921  -0.315 126.960  0.00  0.00    +0.037 A 
ATOM     16  C   LIG A   1      -8.082  -1.687 127.034  0.00  0.00    -0.016 A 
ATOM     17  C   LIG A   1      -7.919  -2.422 128.319  0.00  0.00    +0.052 C 
ATOM     18  C   LIG A   1      -7.292  -1.500 129.391  0.00  0.00    +0.086 C 
ATOM     19  N   LIG A   1      -7.793  -0.117 129.314  0.00  0.00    -0.308 NA
ATOM     20  C   LIG A   1      -8.423  -2.157 125.743  0.00  0.00    +0.003 A 
ATOM     21  C   LIG A   1      -8.621  -3.433 125.182  0.00  0.00    +0.010 A 
ATOM     22  C   LIG A   1      -9.006  -3.537 123.842  0.00  0.00    +0.001 A 
ATOM     23  C   LIG A   1      -9.214  -2.394 123.074  0.00  0.00    +0.002 A 
ATOM     24  C   LIG A   1      -9.014  -1.116 123.606  0.00  0.00    +0.026 A 
ATOM     25  C   LIG A   1      -8.598  -1.028 124.939  0.00  0.00    +0.047 A 
ATOM     26  N   LIG A   1      -8.299   0.081 125.707  0.00  0.00    -0.356 N 
ATOM     27  H   LIG A   1      -7.571   0.420 130.137  0.00  0.00    +0.123 HD
ATOM     28  H   LIG A   1      -8.339   1.034 125.375  0.00  0.00    +0.166 HD
ENDBRANCH  13  14
ENDBRANCH   6  13
BRANCH   2  29
ATOM     29  O   LIG A   1      -7.446   3.485 129.903  0.00  0.00    -0.309 OA
BRANCH  29  30
ATOM     30  C   LIG A   1      -7.520   4.121 131.219  0.00  0.00    +0.286 C 
ATOM     31  O   LIG A   1      -8.646   3.703 132.007  0.00  0.00    -0.340 OA
ATOM     32  C   LIG A   1      -9.900   4.364 131.790  0.00  0.00    +0.178 C 
ATOM     33  C   LIG A   1      -9.791   5.902 131.766  0.00  0.00    +0.177 C 
ATOM     34  C   LIG A   1      -8.652   6.360 130.841  0.00  0.00    +0.179 C 
ATOM     35  C   LIG A   1      -7.348   5.659 131.226  0.00  0.00    +0.201 C 
BRANCH  34  36
ATOM     36  O   LIG A   1      -8.994   6.119 129.476  0.00  0.00    -0.386 OA
ATOM     37  H   LIG A   1      -9.582   6.844 129.184  0.00  0.00    +0.210 HD
ENDBRANCH  34  36
BRANCH  33  38
ATOM     38  O   LIG A   1      -9.525   6.376 133.103  0.00  0.00    -0.387 OA
ATOM     39  H   LIG A   1     -10.155   7.103 133.277  0.00  0.00    +0.210 HD
ENDBRANCH  33  38
BRANCH  35  40
ATOM     40  O   LIG A   1      -6.929   6.107 132.535  0.00  0.00    -0.384 OA
ATOM     41  H   LIG A   1      -7.690   5.981 133.147  0.00  0.00    +0.210 HD
ENDBRANCH  35  40
BRANCH  32  42
ATOM     42  C   LIG A   1     -10.621   3.777 130.580  0.00  0.00    +0.190 C 
BRANCH  42  43
ATOM     43  O   LIG A   1     -11.552   4.687 130.010  0.00  0.00    -0.392 OA
ATOM     44  H   LIG A   1     -11.193   5.580 130.169  0.00  0.00    +0.209 HD
ENDBRANCH  42  43
ENDBRANCH  32  42
ENDBRANCH  29  30
ENDBRANCH   2  29
TORSDOF 12
ENDMDL
MODEL 7
REMARK VINA RESULT:      -7.9      3.456      5.731
REMARK  Name = NuBBE_102
REMARK  12 active torsions:
REMARK  status: ('A' for Active; 'I' for Inactive)
REMARK    1  A    between atoms: C_2  and  C_3
REMARK    2  A    between atoms: C_4  and  O_28
REMARK    3  A    between atoms: C_8  and  C_25
REMARK    4  A    between atoms: C_9  and  C_10
REMARK    5  A    between atoms: C_10  and  C_11
REMARK    6  A    between atoms: C_25  and  O_26
REMARK    7  A    between atoms: O_28  and  C_29
REMARK    8  A    between atoms: C_32  and  C_40
REMARK    9  A    between atoms: C_34  and  O_39
REMARK   10  A    between atoms: C_36  and  O_38
REMARK   11  A    between atoms: C_40  and  O_41
REMARK   12  A    between atoms: C_42  and  O_44
REMARK                            x       y       z     vdW  Elec       q    Type
REMARK                         _______ _______ _______ _____ _____    ______ ____
ROOT
ATOM      1  C   LIG A   1      -4.229   3.704 130.608  0.00  0.00    +0.088 C 
ATOM      2  C   LIG A   1      -5.375   4.788 130.502  0.00  0.00    +0.316 C 
ATOM      3  O   LIG A   1      -5.348   5.382 129.195  0.00  0.00    -0.470 OA
ATOM      4  C   LIG A   1      -5.004   4.609 128.133  0.00  0.00    +0.201 C 
ATOM      5  C   LIG A   1      -4.481   3.375 128.164  0.00  0.00    +0.074 C 
ATOM      6  C   LIG A   1      -4.223   2.620 129.451  0.00  0.00    +0.043 C 
ENDROOT
BRANCH   1   8
ATOM      7  C   LIG A   1      -2.679   3.647 132.644  0.00  0.00    +0.004 C 
ATOM      8  C   LIG A   1      -3.752   3.225 131.966  0.00  0.00    -0.025 C 
ENDBRANCH   1   8
BRANCH   5   9
ATOM      9  C   LIG A   1      -3.842   2.911 126.909  0.00  0.00    +0.336 C 
ATOM     10  O   LIG A   1      -3.023   3.522 126.283  0.00  0.00    -0.245 OA
BRANCH   9  11
ATOM     11  O   LIG A   1      -4.236   1.677 126.537  0.00  0.00    -0.477 OA
ATOM     12  H   LIG A   1      -3.550   1.365 125.916  0.00  0.00    +0.295 HD
ENDBRANCH   9  11
ENDBRANCH   5   9
BRANCH   6  13
ATOM     13  C   LIG A   1      -5.095   1.352 129.732  0.00  0.00    +0.034 C 
BRANCH  13  14
ATOM     14  C   LIG A   1      -6.667   1.443 129.801  0.00  0.00    +0.101 C 
ATOM     15  C   LIG A   1      -7.246   0.178 129.210  0.00  0.00    +0.037 A 
ATOM     16  C   LIG A   1      -7.678  -0.926 129.923  0.00  0.00    -0.016 A 
ATOM     17  C   LIG A   1      -7.764  -0.907 131.410  0.00  0.00    +0.052 C 
ATOM     18  C   LIG A   1      -7.057   0.348 131.974  0.00  0.00    +0.086 C 
ATOM     19  N   LIG A   1      -7.271   1.544 131.141  0.00  0.00    -0.308 NA
ATOM     20  C   LIG A   1      -7.999  -1.947 128.996  0.00  0.00    +0.003 A 
ATOM     21  C   LIG A   1      -8.398  -3.292 129.116  0.00  0.00    +0.010 A 
ATOM     22  C   LIG A   1      -8.688  -4.022 127.959  0.00  0.00    +0.001 A 
ATOM     23  C   LIG A   1      -8.606  -3.423 126.704  0.00  0.00    +0.002 A 
ATOM     24  C   LIG A   1      -8.203  -2.092 126.560  0.00  0.00    +0.026 A 
ATOM     25  C   LIG A   1      -7.886  -1.382 127.724  0.00  0.00    +0.047 A 
ATOM     26  N   LIG A   1      -7.439  -0.084 127.881  0.00  0.00    -0.356 N 
ATOM     27  H   LIG A   1      -7.014   2.395 131.615  0.00  0.00    +0.123 HD
ATOM     28  H   LIG A   1      -7.265   0.557 127.121  0.00  0.00    +0.166 HD
ENDBRANCH  13  14
ENDBRANCH   6  13
BRANCH   2  29
ATOM     29  O   LIG A   1      -6.742   4.464 130.871  0.00  0.00    -0.309 OA
BRANCH  29  30
ATOM     30  C   LIG A   1      -7.600   5.604 130.543  0.00  0.00    +0.286 C 
ATOM     31  O   LIG A   1      -7.971   6.401 131.680  0.00  0.00    -0.340 OA
ATOM     32  C   LIG A   1      -9.099   5.976 132.458  0.00  0.00    +0.178 C 
ATOM     33  C   LIG A   1     -10.337   5.624 131.610  0.00  0.00    +0.177 C 
ATOM     34  C   LIG A   1      -9.964   4.685 130.451  0.00  0.00    +0.179 C 
ATOM     35  C   LIG A   1      -8.815   5.285 129.638  0.00  0.00    +0.201 C 
BRANCH  34  36
ATOM     36  O   LIG A   1      -9.633   3.389 130.949  0.00  0.00    -0.386 OA
ATOM     37  H   LIG A   1      -9.525   3.461 131.918  0.00  0.00    +0.210 HD
ENDBRANCH  34  36
BRANCH  33  38
ATOM     38  O   LIG A   1     -10.896   6.838 131.065  0.00  0.00    -0.387 OA
ATOM     39  H   LIG A   1     -11.859   6.805 131.226  0.00  0.00    +0.210 HD
ENDBRANCH  33  38
BRANCH  35  40
ATOM     40  O   LIG A   1      -9.271   6.486 128.976  0.00  0.00    -0.384 OA
ATOM     41  H   LIG A   1     -10.094   6.258 128.486  0.00  0.00    +0.210 HD
ENDBRANCH  35  40
BRANCH  32  42
ATOM     42  C   LIG A   1      -8.696   4.885 133.446  0.00  0.00    +0.190 C 
BRANCH  42  43
ATOM     43  O   LIG A   1      -9.805   4.109 133.878  0.00  0.00    -0.392 OA
ATOM     44  H   LIG A   1      -9.973   3.456 133.173  0.00  0.00    +0.209 HD
ENDBRANCH  42  43
ENDBRANCH  32  42
ENDBRANCH  29  30
ENDBRANCH   2  29
TORSDOF 12
ENDMDL
MODEL 8
REMARK VINA RESULT:      -7.7      2.946      4.947
REMARK  Name = NuBBE_102
REMARK  12 active torsions:
REMARK  status: ('A' for Active; 'I' for Inactive)
REMARK    1  A    between atoms: C_2  and  C_3
REMARK    2  A    between atoms: C_4  and  O_28
REMARK    3  A    between atoms: C_8  and  C_25
REMARK    4  A    between atoms: C_9  and  C_10
REMARK    5  A    between atoms: C_10  and  C_11
REMARK    6  A    between atoms: C_25  and  O_26
REMARK    7  A    between atoms: O_28  and  C_29
REMARK    8  A    between atoms: C_32  and  C_40
REMARK    9  A    between atoms: C_34  and  O_39
REMARK   10  A    between atoms: C_36  and  O_38
REMARK   11  A    between atoms: C_40  and  O_41
REMARK   12  A    between atoms: C_42  and  O_44
REMARK                            x       y       z     vdW  Elec       q    Type
REMARK                         _______ _______ _______ _____ _____    ______ ____
ROOT
ATOM      1  C   LIG A   1      -6.550   2.351 129.694  0.00  0.00    +0.088 C 
ATOM      2  C   LIG A   1      -7.171   3.778 129.972  0.00  0.00    +0.316 C 
ATOM      3  O   LIG A   1      -6.168   4.783 129.758  0.00  0.00    -0.470 OA
ATOM      4  C   LIG A   1      -5.247   4.589 128.780  0.00  0.00    +0.201 C 
ATOM      5  C   LIG A   1      -5.022   3.462 128.089  0.00  0.00    +0.074 C 
ATOM      6  C   LIG A   1      -5.828   2.196 128.291  0.00  0.00    +0.043 C 
ENDROOT
BRANCH   1   8
ATOM      7  C   LIG A   1      -6.712   0.199 131.071  0.00  0.00    +0.004 C 
ATOM      8  C   LIG A   1      -7.227   1.104 130.231  0.00  0.00    -0.025 C 
ENDBRANCH   1   8
BRANCH   5   9
ATOM      9  C   LIG A   1      -3.730   3.393 127.366  0.00  0.00    +0.336 C 
ATOM     10  O   LIG A   1      -2.657   3.246 127.881  0.00  0.00    -0.245 OA
BRANCH   9  11
ATOM     11  O   LIG A   1      -3.865   3.464 126.027  0.00  0.00    -0.477 OA
ATOM     12  H   LIG A   1      -4.713   3.020 125.831  0.00  0.00    +0.295 HD
ENDBRANCH   9  11
ENDBRANCH   5   9
BRANCH   6  13
ATOM     13  C   LIG A   1      -6.756   1.736 127.120  0.00  0.00    +0.034 C 
BRANCH  13  14
ATOM     14  C   LIG A   1      -6.407   0.466 126.253  0.00  0.00    +0.101 C 
ATOM     15  C   LIG A   1      -6.165  -0.698 127.187  0.00  0.00    +0.037 A 
ATOM     16  C   LIG A   1      -7.087  -1.674 127.520  0.00  0.00    -0.016 A 
ATOM     17  C   LIG A   1      -8.409  -1.762 126.839  0.00  0.00    +0.052 C 
ATOM     18  C   LIG A   1      -8.660  -0.495 125.988  0.00  0.00    +0.086 C 
ATOM     19  N   LIG A   1      -7.442  -0.008 125.319  0.00  0.00    -0.308 NA
ATOM     20  C   LIG A   1      -6.519  -2.484 128.534  0.00  0.00    +0.003 A 
ATOM     21  C   LIG A   1      -6.994  -3.553 129.318  0.00  0.00    +0.010 A 
ATOM     22  C   LIG A   1      -6.125  -4.174 130.221  0.00  0.00    +0.001 A 
ATOM     23  C   LIG A   1      -4.800  -3.757 130.330  0.00  0.00    +0.002 A 
ATOM     24  C   LIG A   1      -4.310  -2.691 129.569  0.00  0.00    +0.026 A 
ATOM     25  C   LIG A   1      -5.198  -2.059 128.692  0.00  0.00    +0.047 A 
ATOM     26  N   LIG A   1      -5.003  -0.979 127.852  0.00  0.00    -0.356 N 
ATOM     27  H   LIG A   1      -7.642   0.662 124.594  0.00  0.00    +0.123 HD
ATOM     28  H   LIG A   1      -4.135  -0.472 127.765  0.00  0.00    +0.166 HD
ENDBRANCH  13  14
ENDBRANCH   6  13
BRANCH   2  29
ATOM     29  O   LIG A   1      -8.418   4.182 129.345  0.00  0.00    -0.309 OA
BRANCH  29  30
ATOM     30  C   LIG A   1      -9.501   4.042 130.319  0.00  0.00    +0.286 C 
ATOM     31  O   LIG A   1     -10.783   4.475 129.834  0.00  0.00    -0.340 OA
ATOM     32  C   LIG A   1     -11.096   5.872 129.920  0.00  0.00    +0.178 C 
ATOM     33  C   LIG A   1     -10.799   6.487 131.302  0.00  0.00    +0.177 C 
ATOM     34  C   LIG A   1      -9.387   6.114 131.781  0.00  0.00    +0.179 C 
ATOM     35  C   LIG A   1      -9.201   4.596 131.734  0.00  0.00    +0.201 C 
BRANCH  34  36
ATOM     36  O   LIG A   1      -8.403   6.787 130.997  0.00  0.00    -0.386 OA
ATOM     37  H   LIG A   1      -8.179   6.210 130.240  0.00  0.00    +0.210 HD
ENDBRANCH  34  36
BRANCH  33  38
ATOM     38  O   LIG A   1     -11.761   5.991 132.256  0.00  0.00    -0.387 OA
ATOM     39  H   LIG A   1     -12.119   5.157 131.892  0.00  0.00    +0.210 HD
ENDBRANCH  33  38
BRANCH  35  40
ATOM     40  O   LIG A   1     -10.070   3.974 132.706  0.00  0.00    -0.384 OA
ATOM     41  H   LIG A   1     -10.547   4.694 133.178  0.00  0.00    +0.210 HD
ENDBRANCH  35  40
BRANCH  32  42
ATOM     42  C   LIG A   1     -10.477   6.640 128.756  0.00  0.00    +0.190 C 
BRANCH  42  43
ATOM     43  O   LIG A   1     -11.354   6.736 127.642  0.00  0.00    -0.392 OA
ATOM     44  H   LIG A   1     -12.259   6.660 128.000  0.00  0.00    +0.209 HD
ENDBRANCH  42  43
ENDBRANCH  32  42
ENDBRANCH  29  30
ENDBRANCH   2  29
TORSDOF 12
ENDMDL
MODEL 9
REMARK VINA RESULT:      -7.5      3.132      5.952
REMARK  Name = NuBBE_102
REMARK  12 active torsions:
REMARK  status: ('A' for Active; 'I' for Inactive)
REMARK    1  A    between atoms: C_2  and  C_3
REMARK    2  A    between atoms: C_4  and  O_28
REMARK    3  A    between atoms: C_8  and  C_25
REMARK    4  A    between atoms: C_9  and  C_10
REMARK    5  A    between atoms: C_10  and  C_11
REMARK    6  A    between atoms: C_25  and  O_26
REMARK    7  A    between atoms: O_28  and  C_29
REMARK    8  A    between atoms: C_32  and  C_40
REMARK    9  A    between atoms: C_34  and  O_39
REMARK   10  A    between atoms: C_36  and  O_38
REMARK   11  A    between atoms: C_40  and  O_41
REMARK   12  A    between atoms: C_42  and  O_44
REMARK                            x       y       z     vdW  Elec       q    Type
REMARK                         _______ _______ _______ _____ _____    ______ ____
ROOT
ATOM      1  C   LIG A   1      -5.881   3.402 127.027  0.00  0.00    +0.088 C 
ATOM      2  C   LIG A   1      -6.906   4.351 127.766  0.00  0.00    +0.316 C 
ATOM      3  O   LIG A   1      -7.801   4.927 126.803  0.00  0.00    -0.470 OA
ATOM      4  C   LIG A   1      -8.172   4.183 125.729  0.00  0.00    +0.201 C 
ATOM      5  C   LIG A   1      -7.648   3.014 125.332  0.00  0.00    +0.074 C 
ATOM      6  C   LIG A   1      -6.538   2.310 126.084  0.00  0.00    +0.043 C 
ENDROOT
BRANCH   1   8
ATOM      7  C   LIG A   1      -4.357   2.888 129.019  0.00  0.00    +0.004 C 
ATOM      8  C   LIG A   1      -4.586   2.997 127.706  0.00  0.00    -0.025 C 
ENDBRANCH   1   8
BRANCH   5   9
ATOM      9  C   LIG A   1      -7.954   2.606 123.940  0.00  0.00    +0.336 C 
ATOM     10  O   LIG A   1      -7.971   1.477 123.538  0.00  0.00    -0.245 OA
BRANCH   9  11
ATOM     11  O   LIG A   1      -8.270   3.643 123.140  0.00  0.00    -0.477 OA
ATOM     12  H   LIG A   1      -9.202   3.851 123.346  0.00  0.00    +0.295 HD
ENDBRANCH   9  11
ENDBRANCH   5   9
BRANCH   6  13
ATOM     13  C   LIG A   1      -6.888   0.957 126.788  0.00  0.00    +0.034 C 
BRANCH  13  14
ATOM     14  C   LIG A   1      -6.526  -0.425 126.122  0.00  0.00    +0.101 C 
ATOM     15  C   LIG A   1      -6.170  -1.405 127.217  0.00  0.00    +0.037 A 
ATOM     16  C   LIG A   1      -7.020  -2.347 127.769  0.00  0.00    -0.016 A 
ATOM     17  C   LIG A   1      -8.374  -2.601 127.202  0.00  0.00    +0.052 C 
ATOM     18  C   LIG A   1      -8.740  -1.507 126.172  0.00  0.00    +0.086 C 
ATOM     19  N   LIG A   1      -7.590  -1.091 125.351  0.00  0.00    -0.308 NA
ATOM     20  C   LIG A   1      -6.352  -2.951 128.861  0.00  0.00    +0.003 A 
ATOM     21  C   LIG A   1      -6.723  -3.891 129.842  0.00  0.00    +0.010 A 
ATOM     22  C   LIG A   1      -5.772  -4.316 130.774  0.00  0.00    +0.001 A 
ATOM     23  C   LIG A   1      -4.466  -3.834 130.723  0.00  0.00    +0.002 A 
ATOM     24  C   LIG A   1      -4.077  -2.893 129.764  0.00  0.00    +0.026 A 
ATOM     25  C   LIG A   1      -5.047  -2.453 128.857  0.00  0.00    +0.047 A 
ATOM     26  N   LIG A   1      -4.958  -1.524 127.839  0.00  0.00    -0.356 N 
ATOM     27  H   LIG A   1      -7.867  -0.561 124.540  0.00  0.00    +0.123 HD
ATOM     28  H   LIG A   1      -4.124  -1.003 127.611  0.00  0.00    +0.166 HD
ENDBRANCH  13  14
ENDBRANCH   6  13
BRANCH   2  29
ATOM     29  O   LIG A   1      -7.655   3.883 128.920  0.00  0.00    -0.309 OA
BRANCH  29  30
ATOM     30  C   LIG A   1      -7.587   4.902 129.969  0.00  0.00    +0.286 C 
ATOM     31  O   LIG A   1      -7.454   4.366 131.296  0.00  0.00    -0.340 OA
ATOM     32  C   LIG A   1      -8.649   3.965 131.980  0.00  0.00    +0.178 C 
ATOM     33  C   LIG A   1      -9.774   5.018 131.926  0.00  0.00    +0.177 C 
ATOM     34  C   LIG A   1      -9.992   5.520 130.489  0.00  0.00    +0.179 C 
ATOM     35  C   LIG A   1      -8.668   6.007 129.897  0.00  0.00    +0.201 C 
BRANCH  34  36
ATOM     36  O   LIG A   1     -10.579   4.494 129.689  0.00  0.00    -0.386 OA
ATOM     37  H   LIG A   1     -10.290   3.632 130.050  0.00  0.00    +0.210 HD
ENDBRANCH  34  36
BRANCH  33  38
ATOM     38  O   LIG A   1      -9.412   6.137 132.761  0.00  0.00    -0.387 OA
ATOM     39  H   LIG A   1      -9.770   5.955 133.652  0.00  0.00    +0.210 HD
ENDBRANCH  33  38
BRANCH  35  40
ATOM     40  O   LIG A   1      -8.226   7.184 130.609  0.00  0.00    -0.384 OA
ATOM     41  H   LIG A   1      -8.648   7.165 131.499  0.00  0.00    +0.210 HD
ENDBRANCH  35  40
BRANCH  32  42
ATOM     42  C   LIG A   1      -9.086   2.571 131.538  0.00  0.00    +0.190 C 
BRANCH  42  43
ATOM     43  O   LIG A   1     -10.454   2.316 131.823  0.00  0.00    -0.392 OA
ATOM     44  H   LIG A   1     -10.928   3.152 131.655  0.00  0.00    +0.209 HD
ENDBRANCH  42  43
ENDBRANCH  32  42
ENDBRANCH  29  30
ENDBRANCH   2  29
TORSDOF 12
ENDMDL
