MODEL 1
REMARK VINA RESULT:      -8.6      0.000      0.000
REMARK  Name = NuBBE_1269
REMARK  11 active torsions:
REMARK  status: ('A' for Active; 'I' for Inactive)
REMARK    1  A    between atoms: C_3  and  C_4
REMARK    2  A    between atoms: C_4  and  C_5
REMARK    3  A    between atoms: C_4  and  C_6
REMARK    4  A    between atoms: C_4  and  C_7
REMARK    5  A    between atoms: C_11  and  O_12
REMARK    6  A    between atoms: C_16  and  C_17
REMARK    7  A    between atoms: C_16  and  C_18
REMARK    8  A    between atoms: C_21  and  C_22
REMARK    9  A    between atoms: C_22  and  C_23
REMARK   10  A    between atoms: C_22  and  C_25
REMARK   11  A    between atoms: C_22  and  C_26
REMARK                            x       y       z     vdW  Elec       q    Type
REMARK                         _______ _______ _______ _____ _____    ______ ____
ROOT
ATOM      1  O   LIG A   1     -11.851   6.134 132.008  0.00  0.00    -0.245 OA
ATOM      2  C   LIG A   1     -10.694   6.275 131.657  0.00  0.00    +0.341 A 
ATOM      3  C   LIG A   1     -10.294   7.090 130.465  0.00  0.00    +0.047 A 
ATOM      4  C   LIG A   1      -8.976   7.268 130.244  0.00  0.00    +0.026 A 
ATOM      5  C   LIG A   1      -7.927   6.761 131.136  0.00  0.00    +0.060 A 
ATOM      6  C   LIG A   1      -6.571   7.094 131.013  0.00  0.00    +0.138 A 
ATOM      7  C   LIG A   1      -5.620   6.582 131.912  0.00  0.00    +0.059 A 
ATOM      8  C   LIG A   1      -4.214   6.988 131.835  0.00  0.00    +0.015 C 
ATOM      9  C   LIG A   1      -3.334   6.451 132.683  0.00  0.00    +0.020 C 
ATOM     10  C   LIG A   1      -3.726   5.436 133.718  0.00  0.00    +0.123 C 
ATOM     11  C   LIG A   1      -3.139   4.064 133.363  0.00  0.00    +0.060 C 
ATOM     12  C   LIG A   1      -3.224   5.867 135.101  0.00  0.00    +0.060 C 
ATOM     13  O   LIG A   1      -5.140   5.268 133.873  0.00  0.00    -0.481 OA
ATOM     14  C   LIG A   1      -6.031   5.705 132.937  0.00  0.00    +0.140 A 
ATOM     15  C   LIG A   1      -7.381   5.304 133.086  0.00  0.00    +0.047 A 
ATOM     16  C   LIG A   1      -8.296   5.887 132.167  0.00  0.00    +0.150 A 
ATOM     17  O   LIG A   1      -9.673   5.617 132.336  0.00  0.00    -0.421 OA
ENDROOT
BRANCH   3  18
ATOM     18  C   LIG A   1     -11.434   7.635 129.558  0.00  0.00    +0.015 C 
ATOM     19  C   LIG A   1     -12.258   6.463 128.978  0.00  0.00    +0.020 C 
ATOM     20  C   LIG A   1     -12.397   8.554 130.353  0.00  0.00    +0.020 C 
BRANCH  18  21
ATOM     21  C   LIG A   1     -10.882   8.387 128.325  0.00  0.00    -0.023 C 
ATOM     22  C   LIG A   1     -10.919   8.018 127.036  0.00  0.00    +0.005 C 
ENDBRANCH  18  21
ENDBRANCH   3  18
BRANCH  15  23
ATOM     23  C   LIG A   1      -7.875   4.302 134.186  0.00  0.00    +0.015 C 
ATOM     24  C   LIG A   1      -7.982   5.037 135.551  0.00  0.00    +0.020 C 
ATOM     25  C   LIG A   1      -9.295   3.705 133.976  0.00  0.00    +0.020 C 
BRANCH  23  26
ATOM     26  C   LIG A   1      -6.946   3.081 134.222  0.00  0.00    -0.023 C 
ATOM     27  C   LIG A   1      -6.973   1.997 133.432  0.00  0.00    +0.005 C 
ENDBRANCH  23  26
ENDBRANCH  15  23
BRANCH   6  28
ATOM     28  O   LIG A   1      -6.122   7.947 130.033  0.00  0.00    -0.505 OA
ATOM     29  H   LIG A   1      -5.358   7.554 129.585  0.00  0.00    +0.292 HD
ENDBRANCH   6  28
TORSDOF 5
ENDMDL
MODEL 2
REMARK VINA RESULT:      -8.0      2.096      4.257
REMARK  Name = NuBBE_1269
REMARK  11 active torsions:
REMARK  status: ('A' for Active; 'I' for Inactive)
REMARK    1  A    between atoms: C_3  and  C_4
REMARK    2  A    between atoms: C_4  and  C_5
REMARK    3  A    between atoms: C_4  and  C_6
REMARK    4  A    between atoms: C_4  and  C_7
REMARK    5  A    between atoms: C_11  and  O_12
REMARK    6  A    between atoms: C_16  and  C_17
REMARK    7  A    between atoms: C_16  and  C_18
REMARK    8  A    between atoms: C_21  and  C_22
REMARK    9  A    between atoms: C_22  and  C_23
REMARK   10  A    between atoms: C_22  and  C_25
REMARK   11  A    between atoms: C_22  and  C_26
REMARK                            x       y       z     vdW  Elec       q    Type
REMARK                         _______ _______ _______ _____ _____    ______ ____
ROOT
ATOM      1  O   LIG A   1      -9.528   8.443 128.836  0.00  0.00    -0.245 OA
ATOM      2  C   LIG A   1      -9.782   7.401 129.410  0.00  0.00    +0.341 A 
ATOM      3  C   LIG A   1     -11.157   6.806 129.453  0.00  0.00    +0.047 A 
ATOM      4  C   LIG A   1     -11.293   5.590 130.020  0.00  0.00    +0.026 A 
ATOM      5  C   LIG A   1     -10.167   4.803 130.535  0.00  0.00    +0.060 A 
ATOM      6  C   LIG A   1     -10.275   3.471 130.957  0.00  0.00    +0.138 A 
ATOM      7  C   LIG A   1      -9.151   2.771 131.428  0.00  0.00    +0.059 A 
ATOM      8  C   LIG A   1      -9.243   1.356 131.797  0.00  0.00    +0.015 C 
ATOM      9  C   LIG A   1      -8.162   0.736 132.276  0.00  0.00    +0.020 C 
ATOM     10  C   LIG A   1      -6.845   1.435 132.457  0.00  0.00    +0.123 C 
ATOM     11  C   LIG A   1      -6.533   1.596 133.950  0.00  0.00    +0.060 C 
ATOM     12  C   LIG A   1      -5.724   0.638 131.780  0.00  0.00    +0.060 C 
ATOM     13  O   LIG A   1      -6.783   2.738 131.866  0.00  0.00    -0.481 OA
ATOM     14  C   LIG A   1      -7.903   3.423 131.497  0.00  0.00    +0.140 A 
ATOM     15  C   LIG A   1      -7.742   4.779 131.120  0.00  0.00    +0.047 A 
ATOM     16  C   LIG A   1      -8.910   5.416 130.619  0.00  0.00    +0.150 A 
ATOM     17  O   LIG A   1      -8.788   6.733 130.119  0.00  0.00    -0.421 OA
ENDROOT
BRANCH   3  18
ATOM     18  C   LIG A   1     -12.322   7.657 128.873  0.00  0.00    +0.015 C 
ATOM     19  C   LIG A   1     -13.618   6.817 128.815  0.00  0.00    +0.020 C 
ATOM     20  C   LIG A   1     -12.597   8.907 129.748  0.00  0.00    +0.020 C 
BRANCH  18  21
ATOM     21  C   LIG A   1     -12.054   8.084 127.411  0.00  0.00    -0.023 C 
ATOM     22  C   LIG A   1     -11.900   7.306 126.329  0.00  0.00    +0.005 C 
ENDBRANCH  18  21
ENDBRANCH   3  18
BRANCH  15  23
ATOM     23  C   LIG A   1      -6.383   5.554 131.217  0.00  0.00    +0.015 C 
ATOM     24  C   LIG A   1      -5.462   5.145 130.033  0.00  0.00    +0.020 C 
ATOM     25  C   LIG A   1      -6.470   7.102 131.098  0.00  0.00    +0.020 C 
BRANCH  23  26
ATOM     26  C   LIG A   1      -5.749   5.309 132.594  0.00  0.00    -0.023 C 
ATOM     27  C   LIG A   1      -6.183   5.733 133.791  0.00  0.00    +0.005 C 
ENDBRANCH  23  26
ENDBRANCH  15  23
BRANCH   6  28
ATOM     28  O   LIG A   1     -11.469   2.791 130.906  0.00  0.00    -0.505 OA
ATOM     29  H   LIG A   1     -11.350   1.959 130.423  0.00  0.00    +0.292 HD
ENDBRANCH   6  28
TORSDOF 5
ENDMDL
MODEL 3
REMARK VINA RESULT:      -7.9      1.469      3.725
REMARK  Name = NuBBE_1269
REMARK  11 active torsions:
REMARK  status: ('A' for Active; 'I' for Inactive)
REMARK    1  A    between atoms: C_3  and  C_4
REMARK    2  A    between atoms: C_4  and  C_5
REMARK    3  A    between atoms: C_4  and  C_6
REMARK    4  A    between atoms: C_4  and  C_7
REMARK    5  A    between atoms: C_11  and  O_12
REMARK    6  A    between atoms: C_16  and  C_17
REMARK    7  A    between atoms: C_16  and  C_18
REMARK    8  A    between atoms: C_21  and  C_22
REMARK    9  A    between atoms: C_22  and  C_23
REMARK   10  A    between atoms: C_22  and  C_25
REMARK   11  A    between atoms: C_22  and  C_26
REMARK                            x       y       z     vdW  Elec       q    Type
REMARK                         _______ _______ _______ _____ _____    ______ ____
ROOT
ATOM      1  O   LIG A   1      -9.596   7.890 128.824  0.00  0.00    -0.245 OA
ATOM      2  C   LIG A   1      -9.467   7.332 129.897  0.00  0.00    +0.341 A 
ATOM      3  C   LIG A   1     -10.630   6.917 130.748  0.00  0.00    +0.047 A 
ATOM      4  C   LIG A   1     -10.366   6.203 131.860  0.00  0.00    +0.026 A 
ATOM      5  C   LIG A   1      -9.019   5.764 132.244  0.00  0.00    +0.060 A 
ATOM      6  C   LIG A   1      -8.760   4.873 133.293  0.00  0.00    +0.138 A 
ATOM      7  C   LIG A   1      -7.444   4.483 133.599  0.00  0.00    +0.059 A 
ATOM      8  C   LIG A   1      -7.174   3.493 134.644  0.00  0.00    +0.015 C 
ATOM      9  C   LIG A   1      -5.908   3.178 134.930  0.00  0.00    +0.020 C 
ATOM     10  C   LIG A   1      -4.741   3.803 134.222  0.00  0.00    +0.123 C 
ATOM     11  C   LIG A   1      -3.974   4.724 135.179  0.00  0.00    +0.060 C 
ATOM     12  C   LIG A   1      -3.799   2.716 133.690  0.00  0.00    +0.060 C 
ATOM     13  O   LIG A   1      -5.096   4.581 133.073  0.00  0.00    -0.481 OA
ATOM     14  C   LIG A   1      -6.370   5.012 132.853  0.00  0.00    +0.140 A 
ATOM     15  C   LIG A   1      -6.570   5.945 131.806  0.00  0.00    +0.047 A 
ATOM     16  C   LIG A   1      -7.927   6.267 131.526  0.00  0.00    +0.150 A 
ATOM     17  O   LIG A   1      -8.198   7.103 130.419  0.00  0.00    -0.421 OA
ENDROOT
BRANCH   3  18
ATOM     18  C   LIG A   1     -12.045   7.377 130.295  0.00  0.00    +0.015 C 
ATOM     19  C   LIG A   1     -12.641   6.362 129.294  0.00  0.00    +0.020 C 
ATOM     20  C   LIG A   1     -13.013   7.489 131.501  0.00  0.00    +0.020 C 
BRANCH  18  21
ATOM     21  C   LIG A   1     -11.999   8.719 129.528  0.00  0.00    -0.023 C 
ATOM     22  C   LIG A   1     -12.986   9.331 128.856  0.00  0.00    +0.005 C 
ENDBRANCH  18  21
ENDBRANCH   3  18
BRANCH  15  23
ATOM     23  C   LIG A   1      -5.404   6.587 130.978  0.00  0.00    +0.015 C 
ATOM     24  C   LIG A   1      -5.039   5.660 129.785  0.00  0.00    +0.020 C 
ATOM     25  C   LIG A   1      -5.719   7.951 130.302  0.00  0.00    +0.020 C 
BRANCH  23  26
ATOM     26  C   LIG A   1      -4.217   6.882 131.906  0.00  0.00    -0.023 C 
ATOM     27  C   LIG A   1      -3.284   7.838 131.777  0.00  0.00    +0.005 C 
ENDBRANCH  23  26
ENDBRANCH  15  23
BRANCH   6  28
ATOM     28  O   LIG A   1      -9.773   4.328 134.047  0.00  0.00    -0.505 OA
ATOM     29  H   LIG A   1     -10.487   4.030 133.465  0.00  0.00    +0.292 HD
ENDBRANCH   6  28
TORSDOF 5
ENDMDL
MODEL 4
REMARK VINA RESULT:      -7.8      4.913      7.096
REMARK  Name = NuBBE_1269
REMARK  11 active torsions:
REMARK  status: ('A' for Active; 'I' for Inactive)
REMARK    1  A    between atoms: C_3  and  C_4
REMARK    2  A    between atoms: C_4  and  C_5
REMARK    3  A    between atoms: C_4  and  C_6
REMARK    4  A    between atoms: C_4  and  C_7
REMARK    5  A    between atoms: C_11  and  O_12
REMARK    6  A    between atoms: C_16  and  C_17
REMARK    7  A    between atoms: C_16  and  C_18
REMARK    8  A    between atoms: C_21  and  C_22
REMARK    9  A    between atoms: C_22  and  C_23
REMARK   10  A    between atoms: C_22  and  C_25
REMARK   11  A    between atoms: C_22  and  C_26
REMARK                            x       y       z     vdW  Elec       q    Type
REMARK                         _______ _______ _______ _____ _____    ______ ____
ROOT
ATOM      1  O   LIG A   1      -9.241   5.596 128.481  0.00  0.00    -0.245 OA
ATOM      2  C   LIG A   1      -8.875   4.656 129.161  0.00  0.00    +0.341 A 
ATOM      3  C   LIG A   1      -8.825   4.700 130.659  0.00  0.00    +0.047 A 
ATOM      4  C   LIG A   1      -8.513   3.560 131.307  0.00  0.00    +0.026 A 
ATOM      5  C   LIG A   1      -8.284   2.278 130.632  0.00  0.00    +0.060 A 
ATOM      6  C   LIG A   1      -8.141   1.057 131.305  0.00  0.00    +0.138 A 
ATOM      7  C   LIG A   1      -7.936  -0.137 130.594  0.00  0.00    +0.059 A 
ATOM      8  C   LIG A   1      -7.863  -1.426 131.287  0.00  0.00    +0.015 C 
ATOM      9  C   LIG A   1      -7.630  -2.534 130.580  0.00  0.00    +0.020 C 
ATOM     10  C   LIG A   1      -7.435  -2.515 129.091  0.00  0.00    +0.123 C 
ATOM     11  C   LIG A   1      -5.978  -2.848 128.744  0.00  0.00    +0.060 C 
ATOM     12  C   LIG A   1      -8.367  -3.530 128.421  0.00  0.00    +0.060 C 
ATOM     13  O   LIG A   1      -7.745  -1.261 128.472  0.00  0.00    -0.481 OA
ATOM     14  C   LIG A   1      -7.853  -0.105 129.186  0.00  0.00    +0.140 A 
ATOM     15  C   LIG A   1      -7.953   1.104 128.455  0.00  0.00    +0.047 A 
ATOM     16  C   LIG A   1      -8.196   2.269 129.234  0.00  0.00    +0.150 A 
ATOM     17  O   LIG A   1      -8.420   3.489 128.555  0.00  0.00    -0.421 OA
ENDROOT
BRANCH   3  18
ATOM     18  C   LIG A   1      -9.100   6.071 131.341  0.00  0.00    +0.015 C 
ATOM     19  C   LIG A   1      -9.114   5.907 132.878  0.00  0.00    +0.020 C 
ATOM     20  C   LIG A   1      -8.008   7.110 130.979  0.00  0.00    +0.020 C 
BRANCH  18  21
ATOM     21  C   LIG A   1     -10.498   6.625 130.983  0.00  0.00    -0.023 C 
ATOM     22  C   LIG A   1     -11.644   6.508 131.670  0.00  0.00    +0.005 C 
ENDBRANCH  18  21
ENDBRANCH   3  18
BRANCH  15  23
ATOM     23  C   LIG A   1      -7.829   1.192 126.895  0.00  0.00    +0.015 C 
ATOM     24  C   LIG A   1      -9.213   0.916 126.244  0.00  0.00    +0.020 C 
ATOM     25  C   LIG A   1      -7.421   2.577 126.320  0.00  0.00    +0.020 C 
BRANCH  23  26
ATOM     26  C   LIG A   1      -6.728   0.236 126.414  0.00  0.00    -0.023 C 
ATOM     27  C   LIG A   1      -5.416   0.486 126.280  0.00  0.00    +0.005 C 
ENDBRANCH  23  26
ENDBRANCH  15  23
BRANCH   6  28
ATOM     28  O   LIG A   1      -8.217   0.973 132.675  0.00  0.00    -0.505 OA
ATOM     29  H   LIG A   1      -8.953   1.516 132.994  0.00  0.00    +0.292 HD
ENDBRANCH   6  28
TORSDOF 5
ENDMDL
MODEL 5
REMARK VINA RESULT:      -7.7      2.115      3.628
REMARK  Name = NuBBE_1269
REMARK  11 active torsions:
REMARK  status: ('A' for Active; 'I' for Inactive)
REMARK    1  A    between atoms: C_3  and  C_4
REMARK    2  A    between atoms: C_4  and  C_5
REMARK    3  A    between atoms: C_4  and  C_6
REMARK    4  A    between atoms: C_4  and  C_7
REMARK    5  A    between atoms: C_11  and  O_12
REMARK    6  A    between atoms: C_16  and  C_17
REMARK    7  A    between atoms: C_16  and  C_18
REMARK    8  A    between atoms: C_21  and  C_22
REMARK    9  A    between atoms: C_22  and  C_23
REMARK   10  A    between atoms: C_22  and  C_25
REMARK   11  A    between atoms: C_22  and  C_26
REMARK                            x       y       z     vdW  Elec       q    Type
REMARK                         _______ _______ _______ _____ _____    ______ ____
ROOT
ATOM      1  O   LIG A   1      -9.707   6.005 127.474  0.00  0.00    -0.245 OA
ATOM      2  C   LIG A   1      -9.477   6.134 128.662  0.00  0.00    +0.341 A 
ATOM      3  C   LIG A   1     -10.377   6.889 129.592  0.00  0.00    +0.047 A 
ATOM      4  C   LIG A   1     -10.079   6.865 130.907  0.00  0.00    +0.026 A 
ATOM      5  C   LIG A   1      -8.965   6.095 131.473  0.00  0.00    +0.060 A 
ATOM      6  C   LIG A   1      -8.759   5.920 132.848  0.00  0.00    +0.138 A 
ATOM      7  C   LIG A   1      -7.678   5.157 133.322  0.00  0.00    +0.059 A 
ATOM      8  C   LIG A   1      -7.503   4.906 134.755  0.00  0.00    +0.015 C 
ATOM      9  C   LIG A   1      -6.442   4.209 135.169  0.00  0.00    +0.020 C 
ATOM     10  C   LIG A   1      -5.410   3.670 134.220  0.00  0.00    +0.123 C 
ATOM     11  C   LIG A   1      -4.085   4.422 134.396  0.00  0.00    +0.060 C 
ATOM     12  C   LIG A   1      -5.189   2.174 134.472  0.00  0.00    +0.060 C 
ATOM     13  O   LIG A   1      -5.774   3.763 132.838  0.00  0.00    -0.481 OA
ATOM     14  C   LIG A   1      -6.777   4.579 132.404  0.00  0.00    +0.140 A 
ATOM     15  C   LIG A   1      -6.914   4.755 131.005  0.00  0.00    +0.047 A 
ATOM     16  C   LIG A   1      -8.049   5.506 130.593  0.00  0.00    +0.150 A 
ATOM     17  O   LIG A   1      -8.305   5.619 129.207  0.00  0.00    -0.421 OA
ENDROOT
BRANCH   3  18
ATOM     18  C   LIG A   1     -11.563   7.672 128.959  0.00  0.00    +0.015 C 
ATOM     19  C   LIG A   1     -12.240   8.566 130.022  0.00  0.00    +0.020 C 
ATOM     20  C   LIG A   1     -11.082   8.582 127.800  0.00  0.00    +0.020 C 
BRANCH  18  21
ATOM     21  C   LIG A   1     -12.679   6.725 128.460  0.00  0.00    -0.023 C 
ATOM     22  C   LIG A   1     -13.836   7.042 127.859  0.00  0.00    +0.005 C 
ENDBRANCH  18  21
ENDBRANCH   3  18
BRANCH  15  23
ATOM     23  C   LIG A   1      -5.915   4.164 129.952  0.00  0.00    +0.015 C 
ATOM     24  C   LIG A   1      -5.679   2.656 130.244  0.00  0.00    +0.020 C 
ATOM     25  C   LIG A   1      -6.394   4.182 128.473  0.00  0.00    +0.020 C 
BRANCH  23  26
ATOM     26  C   LIG A   1      -4.623   4.993 129.948  0.00  0.00    -0.023 C 
ATOM     27  C   LIG A   1      -3.398   4.618 130.348  0.00  0.00    +0.005 C 
ENDBRANCH  23  26
ENDBRANCH  15  23
BRANCH   6  28
ATOM     28  O   LIG A   1      -9.611   6.460 133.782  0.00  0.00    -0.505 OA
ATOM     29  H   LIG A   1     -10.197   7.103 133.355  0.00  0.00    +0.292 HD
ENDBRANCH   6  28
TORSDOF 5
ENDMDL
MODEL 6
REMARK VINA RESULT:      -7.6      6.873      8.800
REMARK  Name = NuBBE_1269
REMARK  11 active torsions:
REMARK  status: ('A' for Active; 'I' for Inactive)
REMARK    1  A    between atoms: C_3  and  C_4
REMARK    2  A    between atoms: C_4  and  C_5
REMARK    3  A    between atoms: C_4  and  C_6
REMARK    4  A    between atoms: C_4  and  C_7
REMARK    5  A    between atoms: C_11  and  O_12
REMARK    6  A    between atoms: C_16  and  C_17
REMARK    7  A    between atoms: C_16  and  C_18
REMARK    8  A    between atoms: C_21  and  C_22
REMARK    9  A    between atoms: C_22  and  C_23
REMARK   10  A    between atoms: C_22  and  C_25
REMARK   11  A    between atoms: C_22  and  C_26
REMARK                            x       y       z     vdW  Elec       q    Type
REMARK                         _______ _______ _______ _____ _____    ______ ____
ROOT
ATOM      1  O   LIG A   1      -7.440   1.060 131.998  0.00  0.00    -0.245 OA
ATOM      2  C   LIG A   1      -7.810   1.125 130.841  0.00  0.00    +0.341 A 
ATOM      3  C   LIG A   1      -8.362   2.376 130.228  0.00  0.00    +0.047 A 
ATOM      4  C   LIG A   1      -8.630   2.358 128.907  0.00  0.00    +0.026 A 
ATOM      5  C   LIG A   1      -8.356   1.209 128.037  0.00  0.00    +0.060 A 
ATOM      6  C   LIG A   1      -8.461   1.245 126.641  0.00  0.00    +0.138 A 
ATOM      7  C   LIG A   1      -8.170   0.109 125.867  0.00  0.00    +0.059 A 
ATOM      8  C   LIG A   1      -8.204   0.164 124.403  0.00  0.00    +0.015 C 
ATOM      9  C   LIG A   1      -7.957  -0.947 123.704  0.00  0.00    +0.020 C 
ATOM     10  C   LIG A   1      -7.648  -2.262 124.360  0.00  0.00    +0.123 C 
ATOM     11  C   LIG A   1      -8.807  -3.244 124.148  0.00  0.00    +0.060 C 
ATOM     12  C   LIG A   1      -6.359  -2.854 123.779  0.00  0.00    +0.060 C 
ATOM     13  O   LIG A   1      -7.413  -2.176 125.771  0.00  0.00    -0.481 OA
ATOM     14  C   LIG A   1      -7.786  -1.089 126.505  0.00  0.00    +0.140 A 
ATOM     15  C   LIG A   1      -7.700  -1.195 127.914  0.00  0.00    +0.047 A 
ATOM     16  C   LIG A   1      -7.972   0.001 128.634  0.00  0.00    +0.150 A 
ATOM     17  O   LIG A   1      -7.790  -0.010 130.036  0.00  0.00    -0.421 OA
ENDROOT
BRANCH   3  18
ATOM     18  C   LIG A   1      -8.615   3.584 131.175  0.00  0.00    +0.015 C 
ATOM     19  C   LIG A   1      -7.271   4.154 131.681  0.00  0.00    +0.020 C 
ATOM     20  C   LIG A   1      -9.377   4.721 130.448  0.00  0.00    +0.020 C 
BRANCH  18  21
ATOM     21  C   LIG A   1      -9.381   3.167 132.452  0.00  0.00    -0.023 C 
ATOM     22  C   LIG A   1      -9.197   3.589 133.712  0.00  0.00    +0.005 C 
ENDBRANCH  18  21
ENDBRANCH   3  18
BRANCH  15  23
ATOM     23  C   LIG A   1      -7.316  -2.516 128.666  0.00  0.00    +0.015 C 
ATOM     24  C   LIG A   1      -5.769  -2.665 128.704  0.00  0.00    +0.020 C 
ATOM     25  C   LIG A   1      -7.730  -2.594 130.162  0.00  0.00    +0.020 C 
BRANCH  23  26
ATOM     26  C   LIG A   1      -8.026  -3.707 128.007  0.00  0.00    -0.023 C 
ATOM     27  C   LIG A   1      -9.316  -4.063 128.115  0.00  0.00    +0.005 C 
ENDBRANCH  23  26
ENDBRANCH  15  23
BRANCH   6  28
ATOM     28  O   LIG A   1      -8.828   2.390 125.972  0.00  0.00    -0.505 OA
ATOM     29  H   LIG A   1      -8.159   3.077 126.113  0.00  0.00    +0.292 HD
ENDBRANCH   6  28
TORSDOF 5
ENDMDL
MODEL 7
REMARK VINA RESULT:      -7.5      7.557      8.832
REMARK  Name = NuBBE_1269
REMARK  11 active torsions:
REMARK  status: ('A' for Active; 'I' for Inactive)
REMARK    1  A    between atoms: C_3  and  C_4
REMARK    2  A    between atoms: C_4  and  C_5
REMARK    3  A    between atoms: C_4  and  C_6
REMARK    4  A    between atoms: C_4  and  C_7
REMARK    5  A    between atoms: C_11  and  O_12
REMARK    6  A    between atoms: C_16  and  C_17
REMARK    7  A    between atoms: C_16  and  C_18
REMARK    8  A    between atoms: C_21  and  C_22
REMARK    9  A    between atoms: C_22  and  C_23
REMARK   10  A    between atoms: C_22  and  C_25
REMARK   11  A    between atoms: C_22  and  C_26
REMARK                            x       y       z     vdW  Elec       q    Type
REMARK                         _______ _______ _______ _____ _____    ______ ____
ROOT
ATOM      1  O   LIG A   1      -8.304  -3.868 125.434  0.00  0.00    -0.245 OA
ATOM      2  C   LIG A   1      -8.232  -2.695 125.746  0.00  0.00    +0.341 A 
ATOM      3  C   LIG A   1      -8.565  -1.576 124.806  0.00  0.00    +0.047 A 
ATOM      4  C   LIG A   1      -8.559  -0.322 125.301  0.00  0.00    +0.026 A 
ATOM      5  C   LIG A   1      -8.306  -0.006 126.711  0.00  0.00    +0.060 A 
ATOM      6  C   LIG A   1      -8.476   1.269 127.267  0.00  0.00    +0.138 A 
ATOM      7  C   LIG A   1      -8.228   1.499 128.631  0.00  0.00    +0.059 A 
ATOM      8  C   LIG A   1      -8.478   2.811 129.233  0.00  0.00    +0.015 C 
ATOM      9  C   LIG A   1      -8.194   3.000 130.524  0.00  0.00    +0.020 C 
ATOM     10  C   LIG A   1      -7.620   1.916 131.391  0.00  0.00    +0.123 C 
ATOM     11  C   LIG A   1      -6.169   2.248 131.761  0.00  0.00    +0.060 C 
ATOM     12  C   LIG A   1      -8.454   1.762 132.668  0.00  0.00    +0.060 C 
ATOM     13  O   LIG A   1      -7.620   0.617 130.788  0.00  0.00    -0.481 OA
ATOM     14  C   LIG A   1      -7.781   0.438 129.446  0.00  0.00    +0.140 A 
ATOM     15  C   LIG A   1      -7.555  -0.862 128.931  0.00  0.00    +0.047 A 
ATOM     16  C   LIG A   1      -7.861  -1.033 127.553  0.00  0.00    +0.150 A 
ATOM     17  O   LIG A   1      -7.767  -2.335 127.007  0.00  0.00    -0.421 OA
ENDROOT
BRANCH   3  18
ATOM     18  C   LIG A   1      -8.855  -1.951 123.325  0.00  0.00    +0.015 C 
ATOM     19  C   LIG A   1      -9.703  -3.241 123.258  0.00  0.00    +0.020 C 
ATOM     20  C   LIG A   1      -9.635  -0.824 122.600  0.00  0.00    +0.020 C 
BRANCH  18  21
ATOM     21  C   LIG A   1      -7.559  -2.281 122.548  0.00  0.00    -0.023 C 
ATOM     22  C   LIG A   1      -6.346  -1.723 122.672  0.00  0.00    +0.005 C 
ENDBRANCH  18  21
ENDBRANCH   3  18
BRANCH  15  23
ATOM     23  C   LIG A   1      -7.024  -2.059 129.792  0.00  0.00    +0.015 C 
ATOM     24  C   LIG A   1      -7.570  -1.944 131.242  0.00  0.00    +0.020 C 
ATOM     25  C   LIG A   1      -7.474  -3.477 129.340  0.00  0.00    +0.020 C 
BRANCH  23  26
ATOM     26  C   LIG A   1      -5.491  -2.101 129.720  0.00  0.00    -0.023 C 
ATOM     27  C   LIG A   1      -4.722  -2.613 128.746  0.00  0.00    +0.005 C 
ENDBRANCH  23  26
ENDBRANCH  15  23
BRANCH   6  28
ATOM     28  O   LIG A   1      -8.912   2.334 126.514  0.00  0.00    -0.505 OA
ATOM     29  H   LIG A   1      -9.879   2.316 126.454  0.00  0.00    +0.292 HD
ENDBRANCH   6  28
TORSDOF 5
ENDMDL
MODEL 8
REMARK VINA RESULT:      -7.4      7.138      9.674
REMARK  Name = NuBBE_1269
REMARK  11 active torsions:
REMARK  status: ('A' for Active; 'I' for Inactive)
REMARK    1  A    between atoms: C_3  and  C_4
REMARK    2  A    between atoms: C_4  and  C_5
REMARK    3  A    between atoms: C_4  and  C_6
REMARK    4  A    between atoms: C_4  and  C_7
REMARK    5  A    between atoms: C_11  and  O_12
REMARK    6  A    between atoms: C_16  and  C_17
REMARK    7  A    between atoms: C_16  and  C_18
REMARK    8  A    between atoms: C_21  and  C_22
REMARK    9  A    between atoms: C_22  and  C_23
REMARK   10  A    between atoms: C_22  and  C_25
REMARK   11  A    between atoms: C_22  and  C_26
REMARK                            x       y       z     vdW  Elec       q    Type
REMARK                         _______ _______ _______ _____ _____    ______ ____
ROOT
ATOM      1  O   LIG A   1      -8.857   3.960 129.038  0.00  0.00    -0.245 OA
ATOM      2  C   LIG A   1      -8.477   2.820 128.853  0.00  0.00    +0.341 A 
ATOM      3  C   LIG A   1      -8.001   1.926 129.958  0.00  0.00    +0.047 A 
ATOM      4  C   LIG A   1      -7.715   0.646 129.647  0.00  0.00    +0.026 A 
ATOM      5  C   LIG A   1      -7.901   0.074 128.309  0.00  0.00    +0.060 A 
ATOM      6  C   LIG A   1      -7.780  -1.292 128.021  0.00  0.00    +0.138 A 
ATOM      7  C   LIG A   1      -7.986  -1.775 126.718  0.00  0.00    +0.059 A 
ATOM      8  C   LIG A   1      -7.936  -3.210 126.428  0.00  0.00    +0.015 C 
ATOM      9  C   LIG A   1      -8.100  -3.626 125.169  0.00  0.00    +0.020 C 
ATOM     10  C   LIG A   1      -8.330  -2.676 124.029  0.00  0.00    +0.123 C 
ATOM     11  C   LIG A   1      -7.107  -2.653 123.105  0.00  0.00    +0.060 C 
ATOM     12  C   LIG A   1      -9.569  -3.098 123.231  0.00  0.00    +0.060 C 
ATOM     13  O   LIG A   1      -8.589  -1.326 124.429  0.00  0.00    -0.481 OA
ATOM     14  C   LIG A   1      -8.298  -0.870 125.681  0.00  0.00    +0.140 A 
ATOM     15  C   LIG A   1      -8.396   0.525 125.905  0.00  0.00    +0.047 A 
ATOM     16  C   LIG A   1      -8.212   0.940 127.253  0.00  0.00    +0.150 A 
ATOM     17  O   LIG A   1      -8.412   2.306 127.561  0.00  0.00    -0.421 OA
ENDROOT
BRANCH   3  18
ATOM     18  C   LIG A   1      -7.841   2.561 131.369  0.00  0.00    +0.015 C 
ATOM     19  C   LIG A   1      -7.103   1.583 132.312  0.00  0.00    +0.020 C 
ATOM     20  C   LIG A   1      -7.024   3.877 131.306  0.00  0.00    +0.020 C 
BRANCH  18  21
ATOM     21  C   LIG A   1      -9.207   2.818 132.046  0.00  0.00    -0.023 C 
ATOM     22  C   LIG A   1      -9.456   3.184 133.313  0.00  0.00    +0.005 C 
ENDBRANCH  18  21
ENDBRANCH   3  18
BRANCH  15  23
ATOM     23  C   LIG A   1      -8.702   1.568 124.777  0.00  0.00    +0.015 C 
ATOM     24  C   LIG A   1     -10.205   1.494 124.390  0.00  0.00    +0.020 C 
ATOM     25  C   LIG A   1      -8.492   3.062 125.154  0.00  0.00    +0.020 C 
BRANCH  23  26
ATOM     26  C   LIG A   1      -7.755   1.334 123.591  0.00  0.00    -0.023 C 
ATOM     27  C   LIG A   1      -6.986   2.232 122.957  0.00  0.00    +0.005 C 
ENDBRANCH  23  26
ENDBRANCH  15  23
BRANCH   6  28
ATOM     28  O   LIG A   1      -7.481  -2.213 128.998  0.00  0.00    -0.505 OA
ATOM     29  H   LIG A   1      -7.368  -3.088 128.596  0.00  0.00    +0.292 HD
ENDBRANCH   6  28
TORSDOF 5
ENDMDL
MODEL 9
REMARK VINA RESULT:      -7.1      7.089      9.102
REMARK  Name = NuBBE_1269
REMARK  11 active torsions:
REMARK  status: ('A' for Active; 'I' for Inactive)
REMARK    1  A    between atoms: C_3  and  C_4
REMARK    2  A    between atoms: C_4  and  C_5
REMARK    3  A    between atoms: C_4  and  C_6
REMARK    4  A    between atoms: C_4  and  C_7
REMARK    5  A    between atoms: C_11  and  O_12
REMARK    6  A    between atoms: C_16  and  C_17
REMARK    7  A    between atoms: C_16  and  C_18
REMARK    8  A    between atoms: C_21  and  C_22
REMARK    9  A    between atoms: C_22  and  C_23
REMARK   10  A    between atoms: C_22  and  C_25
REMARK   11  A    between atoms: C_22  and  C_26
REMARK                            x       y       z     vdW  Elec       q    Type
REMARK                         _______ _______ _______ _____ _____    ______ ____
ROOT
ATOM      1  O   LIG A   1      -6.666   0.267 123.977  0.00  0.00    -0.245 OA
ATOM      2  C   LIG A   1      -7.054  -0.184 125.038  0.00  0.00    +0.341 A 
ATOM      3  C   LIG A   1      -7.315  -1.643 125.260  0.00  0.00    +0.047 A 
ATOM      4  C   LIG A   1      -7.630  -2.038 126.510  0.00  0.00    +0.026 A 
ATOM      5  C   LIG A   1      -7.670  -1.131 127.663  0.00  0.00    +0.060 A 
ATOM      6  C   LIG A   1      -7.817  -1.561 128.988  0.00  0.00    +0.138 A 
ATOM      7  C   LIG A   1      -7.834  -0.638 130.047  0.00  0.00    +0.059 A 
ATOM      8  C   LIG A   1      -7.910  -1.088 131.440  0.00  0.00    +0.015 C 
ATOM      9  C   LIG A   1      -7.962  -0.178 132.416  0.00  0.00    +0.020 C 
ATOM     10  C   LIG A   1      -7.950   1.299 132.144  0.00  0.00    +0.123 C 
ATOM     11  C   LIG A   1      -9.316   1.910 132.480  0.00  0.00    +0.060 C 
ATOM     12  C   LIG A   1      -6.862   1.983 132.981  0.00  0.00    +0.060 C 
ATOM     13  O   LIG A   1      -7.647   1.647 130.788  0.00  0.00    -0.481 OA
ATOM     14  C   LIG A   1      -7.723   0.741 129.772  0.00  0.00    +0.140 A 
ATOM     15  C   LIG A   1      -7.610   1.236 128.450  0.00  0.00    +0.047 A 
ATOM     16  C   LIG A   1      -7.563   0.246 127.429  0.00  0.00    +0.150 A 
ATOM     17  O   LIG A   1      -7.335   0.670 126.100  0.00  0.00    -0.421 OA
ENDROOT
BRANCH   3  18
ATOM     18  C   LIG A   1      -7.237  -2.579 124.020  0.00  0.00    +0.015 C 
ATOM     19  C   LIG A   1      -7.565  -4.032 124.428  0.00  0.00    +0.020 C 
ATOM     20  C   LIG A   1      -8.245  -2.148 122.925  0.00  0.00    +0.020 C 
BRANCH  18  21
ATOM     21  C   LIG A   1      -5.809  -2.639 123.430  0.00  0.00    -0.023 C 
ATOM     22  C   LIG A   1      -4.838  -3.530 123.682  0.00  0.00    +0.005 C 
ENDBRANCH  18  21
ENDBRANCH   3  18
BRANCH  15  23
ATOM     23  C   LIG A   1      -7.523   2.760 128.095  0.00  0.00    +0.015 C 
ATOM     24  C   LIG A   1      -6.054   3.247 128.240  0.00  0.00    +0.020 C 
ATOM     25  C   LIG A   1      -7.895   3.143 126.635  0.00  0.00    +0.020 C 
BRANCH  23  26
ATOM     26  C   LIG A   1      -8.515   3.547 128.964  0.00  0.00    -0.023 C 
ATOM     27  C   LIG A   1      -8.368   4.777 129.479  0.00  0.00    +0.005 C 
ENDBRANCH  23  26
ENDBRANCH  15  23
BRANCH   6  28
ATOM     28  O   LIG A   1      -7.926  -2.894 129.308  0.00  0.00    -0.505 OA
ATOM     29  H   LIG A   1      -7.887  -3.002 130.271  0.00  0.00    +0.292 HD
ENDBRANCH   6  28
TORSDOF 5
ENDMDL
