MODEL 1
REMARK VINA RESULT:      -9.1      0.000      0.000
REMARK  Name = NuBBE_1067
REMARK  1 active torsions:
REMARK  status: ('A' for Active; 'I' for Inactive)
REMARK    1  A    between atoms: O_1  and  C_2
REMARK                            x       y       z     vdW  Elec       q    Type
REMARK                         _______ _______ _______ _____ _____    ______ ____
ROOT
ATOM      1  C   LIG A   1      -5.017   7.208 130.826  0.00  0.00    +0.143 A 
ATOM      2  C   LIG A   1      -6.282   6.789 131.252  0.00  0.00    +0.120 A 
ATOM      3  C   LIG A   1      -6.382   6.208 132.512  0.00  0.00    +0.069 A 
ATOM      4  C   LIG A   1      -5.254   6.029 133.324  0.00  0.00    +0.015 A 
ATOM      5  C   LIG A   1      -4.003   6.452 132.874  0.00  0.00    +0.004 A 
ATOM      6  C   LIG A   1      -3.883   7.047 131.619  0.00  0.00    +0.048 A 
ATOM      7  N   LIG A   1      -7.389   6.978 130.399  0.00  0.00    -0.224 NA
ATOM      8  C   LIG A   1      -8.550   6.637 130.859  0.00  0.00    +0.161 A 
ATOM      9  N   LIG A   1      -8.772   6.089 132.123  0.00  0.00    -0.291 N 
ATOM     10  C   LIG A   1     -10.106   5.584 132.497  0.00  0.00    +0.131 C 
ATOM     11  C   LIG A   1     -11.271   6.434 131.964  0.00  0.00    +0.059 C 
ATOM     12  C   LIG A   1     -11.022   6.747 130.535  0.00  0.00    -0.010 A 
ATOM     13  C   LIG A   1      -9.729   6.845 130.058  0.00  0.00    +0.087 A 
ATOM     14  N   LIG A   1      -9.807   7.175 128.731  0.00  0.00    -0.351 N 
ATOM     15  H   LIG A   1      -9.010   7.322 128.127  0.00  0.00    +0.166 HD
ATOM     16  C   LIG A   1     -11.128   7.253 128.338  0.00  0.00    +0.047 A 
ATOM     17  C   LIG A   1     -11.914   6.990 129.463  0.00  0.00    +0.004 A 
ATOM     18  C   LIG A   1     -13.316   7.012 129.336  0.00  0.00    +0.010 A 
ATOM     19  C   LIG A   1     -13.887   7.289 128.089  0.00  0.00    +0.001 A 
ATOM     20  C   LIG A   1     -13.081   7.544 126.982  0.00  0.00    +0.002 A 
ATOM     21  C   LIG A   1     -11.686   7.533 127.085  0.00  0.00    +0.026 A 
ATOM     22  C   LIG A   1      -7.715   5.782 132.967  0.00  0.00    +0.262 A 
ATOM     23  O   LIG A   1      -7.832   5.179 134.029  0.00  0.00    -0.267 OA
ENDROOT
BRANCH   1  24
ATOM     24  O   LIG A   1      -4.877   7.797 129.598  0.00  0.00    -0.505 OA
ATOM     25  H   LIG A   1      -5.410   8.614 129.660  0.00  0.00    +0.292 HD
ENDBRANCH   1  24
TORSDOF 1
ENDMDL
MODEL 2
REMARK VINA RESULT:      -9.0      1.889      6.660
REMARK  Name = NuBBE_1067
REMARK  1 active torsions:
REMARK  status: ('A' for Active; 'I' for Inactive)
REMARK    1  A    between atoms: O_1  and  C_2
REMARK                            x       y       z     vdW  Elec       q    Type
REMARK                         _______ _______ _______ _____ _____    ______ ____
ROOT
ATOM      1  C   LIG A   1     -11.101   7.195 127.236  0.00  0.00    +0.143 A 
ATOM      2  C   LIG A   1     -10.914   6.998 128.608  0.00  0.00    +0.120 A 
ATOM      3  C   LIG A   1     -12.047   6.848 129.402  0.00  0.00    +0.069 A 
ATOM      4  C   LIG A   1     -13.335   6.907 128.852  0.00  0.00    +0.015 A 
ATOM      5  C   LIG A   1     -13.494   7.108 127.480  0.00  0.00    +0.004 A 
ATOM      6  C   LIG A   1     -12.371   7.251 126.667  0.00  0.00    +0.048 A 
ATOM      7  N   LIG A   1      -9.602   6.956 129.121  0.00  0.00    -0.224 NA
ATOM      8  C   LIG A   1      -9.472   6.705 130.385  0.00  0.00    +0.161 A 
ATOM      9  N   LIG A   1     -10.536   6.493 131.263  0.00  0.00    -0.291 N 
ATOM     10  C   LIG A   1     -10.297   6.374 132.714  0.00  0.00    +0.131 C 
ATOM     11  C   LIG A   1      -9.014   5.610 133.078  0.00  0.00    +0.059 C 
ATOM     12  C   LIG A   1      -7.903   6.107 132.230  0.00  0.00    -0.010 A 
ATOM     13  C   LIG A   1      -8.158   6.603 130.966  0.00  0.00    +0.087 A 
ATOM     14  N   LIG A   1      -6.955   6.947 130.411  0.00  0.00    -0.351 N 
ATOM     15  H   LIG A   1      -6.838   7.331 129.483  0.00  0.00    +0.166 HD
ATOM     16  C   LIG A   1      -5.933   6.718 131.311  0.00  0.00    +0.047 A 
ATOM     17  C   LIG A   1      -6.508   6.182 132.466  0.00  0.00    +0.004 A 
ATOM     18  C   LIG A   1      -5.676   5.849 133.551  0.00  0.00    +0.010 A 
ATOM     19  C   LIG A   1      -4.298   6.067 133.450  0.00  0.00    +0.001 A 
ATOM     20  C   LIG A   1      -3.749   6.605 132.288  0.00  0.00    +0.002 A 
ATOM     21  C   LIG A   1      -4.556   6.940 131.195  0.00  0.00    +0.026 A 
ATOM     22  C   LIG A   1     -11.851   6.625 130.842  0.00  0.00    +0.262 A 
ATOM     23  O   LIG A   1     -12.822   6.582 131.590  0.00  0.00    -0.267 OA
ENDROOT
BRANCH   1  24
ATOM     24  O   LIG A   1     -10.012   7.335 126.418  0.00  0.00    -0.505 OA
ATOM     25  H   LIG A   1     -10.105   8.233 126.042  0.00  0.00    +0.292 HD
ENDBRANCH   1  24
TORSDOF 1
ENDMDL
MODEL 3
REMARK VINA RESULT:      -8.1      2.479      6.724
REMARK  Name = NuBBE_1067
REMARK  1 active torsions:
REMARK  status: ('A' for Active; 'I' for Inactive)
REMARK    1  A    between atoms: O_1  and  C_2
REMARK                            x       y       z     vdW  Elec       q    Type
REMARK                         _______ _______ _______ _____ _____    ______ ____
ROOT
ATOM      1  C   LIG A   1     -11.413   6.814 127.192  0.00  0.00    +0.143 A 
ATOM      2  C   LIG A   1     -11.076   6.542 128.522  0.00  0.00    +0.120 A 
ATOM      3  C   LIG A   1     -12.044   6.771 129.495  0.00  0.00    +0.069 A 
ATOM      4  C   LIG A   1     -13.310   7.273 129.161  0.00  0.00    +0.015 A 
ATOM      5  C   LIG A   1     -13.618   7.540 127.827  0.00  0.00    +0.004 A 
ATOM      6  C   LIG A   1     -12.665   7.307 126.836  0.00  0.00    +0.048 A 
ATOM      7  N   LIG A   1      -9.789   6.047 128.816  0.00  0.00    -0.224 NA
ATOM      8  C   LIG A   1      -9.543   5.746 130.052  0.00  0.00    +0.161 A 
ATOM      9  N   LIG A   1     -10.453   5.892 131.099  0.00  0.00    -0.291 N 
ATOM     10  C   LIG A   1     -10.030   5.674 132.495  0.00  0.00    +0.131 C 
ATOM     11  C   LIG A   1      -9.038   4.515 132.677  0.00  0.00    +0.059 C 
ATOM     12  C   LIG A   1      -7.982   4.619 131.639  0.00  0.00    -0.010 A 
ATOM     13  C   LIG A   1      -8.263   5.194 130.415  0.00  0.00    +0.087 A 
ATOM     14  N   LIG A   1      -7.125   5.119 129.657  0.00  0.00    -0.351 N 
ATOM     15  H   LIG A   1      -7.042   5.456 128.708  0.00  0.00    +0.166 HD
ATOM     16  C   LIG A   1      -6.105   4.541 130.388  0.00  0.00    +0.047 A 
ATOM     17  C   LIG A   1      -6.626   4.212 131.642  0.00  0.00    +0.004 A 
ATOM     18  C   LIG A   1      -5.786   3.598 132.590  0.00  0.00    +0.010 A 
ATOM     19  C   LIG A   1      -4.452   3.337 132.257  0.00  0.00    +0.001 A 
ATOM     20  C   LIG A   1      -3.957   3.677 131.000  0.00  0.00    +0.002 A 
ATOM     21  C   LIG A   1      -4.774   4.285 130.040  0.00  0.00    +0.026 A 
ATOM     22  C   LIG A   1     -11.697   6.470 130.893  0.00  0.00    +0.262 A 
ATOM     23  O   LIG A   1     -12.487   6.747 131.790  0.00  0.00    -0.267 OA
ENDROOT
BRANCH   1  24
ATOM     24  O   LIG A   1     -10.492   6.590 126.203  0.00  0.00    -0.505 OA
ATOM     25  H   LIG A   1     -10.281   5.638 126.281  0.00  0.00    +0.292 HD
ENDBRANCH   1  24
TORSDOF 1
ENDMDL
MODEL 4
REMARK VINA RESULT:      -7.7      8.017      8.882
REMARK  Name = NuBBE_1067
REMARK  1 active torsions:
REMARK  status: ('A' for Active; 'I' for Inactive)
REMARK    1  A    between atoms: O_1  and  C_2
REMARK                            x       y       z     vdW  Elec       q    Type
REMARK                         _______ _______ _______ _____ _____    ______ ____
ROOT
ATOM      1  C   LIG A   1      -3.840   2.710 128.221  0.00  0.00    +0.143 A 
ATOM      2  C   LIG A   1      -4.696   2.731 127.116  0.00  0.00    +0.120 A 
ATOM      3  C   LIG A   1      -4.835   3.931 126.426  0.00  0.00    +0.069 A 
ATOM      4  C   LIG A   1      -4.155   5.088 126.831  0.00  0.00    +0.015 A 
ATOM      5  C   LIG A   1      -3.309   5.041 127.940  0.00  0.00    +0.004 A 
ATOM      6  C   LIG A   1      -3.148   3.845 128.638  0.00  0.00    +0.048 A 
ATOM      7  N   LIG A   1      -5.370   1.548 126.748  0.00  0.00    -0.224 NA
ATOM      8  C   LIG A   1      -6.101   1.595 125.680  0.00  0.00    +0.161 A 
ATOM      9  N   LIG A   1      -6.274   2.731 124.888  0.00  0.00    -0.291 N 
ATOM     10  C   LIG A   1      -7.251   2.732 123.783  0.00  0.00    +0.131 C 
ATOM     11  C   LIG A   1      -7.326   1.406 123.011  0.00  0.00    +0.059 C 
ATOM     12  C   LIG A   1      -7.378   0.286 123.983  0.00  0.00    -0.010 A 
ATOM     13  C   LIG A   1      -6.780   0.410 125.222  0.00  0.00    +0.087 A 
ATOM     14  N   LIG A   1      -6.955  -0.776 125.882  0.00  0.00    -0.351 N 
ATOM     15  H   LIG A   1      -6.611  -0.975 126.812  0.00  0.00    +0.166 HD
ATOM     16  C   LIG A   1      -7.689  -1.649 125.103  0.00  0.00    +0.047 A 
ATOM     17  C   LIG A   1      -7.964  -1.001 123.897  0.00  0.00    +0.004 A 
ATOM     18  C   LIG A   1      -8.704  -1.679 122.910  0.00  0.00    +0.010 A 
ATOM     19  C   LIG A   1      -9.151  -2.981 123.163  0.00  0.00    +0.001 A 
ATOM     20  C   LIG A   1      -8.866  -3.604 124.375  0.00  0.00    +0.002 A 
ATOM     21  C   LIG A   1      -8.128  -2.951 125.369  0.00  0.00    +0.026 A 
ATOM     22  C   LIG A   1      -5.724   3.950 125.254  0.00  0.00    +0.262 A 
ATOM     23  O   LIG A   1      -5.947   5.010 124.676  0.00  0.00    -0.267 OA
ENDROOT
BRANCH   1  24
ATOM     24  O   LIG A   1      -3.665   1.545 128.919  0.00  0.00    -0.505 OA
ATOM     25  H   LIG A   1      -3.911   1.774 129.837  0.00  0.00    +0.292 HD
ENDBRANCH   1  24
TORSDOF 1
ENDMDL
MODEL 5
REMARK VINA RESULT:      -7.7      3.760      6.425
REMARK  Name = NuBBE_1067
REMARK  1 active torsions:
REMARK  status: ('A' for Active; 'I' for Inactive)
REMARK    1  A    between atoms: O_1  and  C_2
REMARK                            x       y       z     vdW  Elec       q    Type
REMARK                         _______ _______ _______ _____ _____    ______ ____
ROOT
ATOM      1  C   LIG A   1     -12.143   6.669 128.986  0.00  0.00    +0.143 A 
ATOM      2  C   LIG A   1     -10.987   6.235 129.643  0.00  0.00    +0.120 A 
ATOM      3  C   LIG A   1     -10.904   6.445 131.016  0.00  0.00    +0.069 A 
ATOM      4  C   LIG A   1     -11.934   7.086 131.719  0.00  0.00    +0.015 A 
ATOM      5  C   LIG A   1     -13.076   7.511 131.039  0.00  0.00    +0.004 A 
ATOM      6  C   LIG A   1     -13.183   7.300 129.665  0.00  0.00    +0.048 A 
ATOM      7  N   LIG A   1      -9.970   5.605 128.897  0.00  0.00    -0.224 NA
ATOM      8  C   LIG A   1      -8.947   5.160 129.555  0.00  0.00    +0.161 A 
ATOM      9  N   LIG A   1      -8.782   5.276 130.936  0.00  0.00    -0.291 N 
ATOM     10  C   LIG A   1      -7.513   4.882 131.574  0.00  0.00    +0.131 C 
ATOM     11  C   LIG A   1      -6.865   3.630 130.963  0.00  0.00    +0.059 C 
ATOM     12  C   LIG A   1      -6.891   3.749 129.484  0.00  0.00    -0.010 A 
ATOM     13  C   LIG A   1      -7.893   4.467 128.860  0.00  0.00    +0.087 A 
ATOM     14  N   LIG A   1      -7.684   4.373 127.511  0.00  0.00    -0.351 N 
ATOM     15  H   LIG A   1      -8.272   4.796 126.806  0.00  0.00    +0.166 HD
ATOM     16  C   LIG A   1      -6.542   3.639 127.257  0.00  0.00    +0.047 A 
ATOM     17  C   LIG A   1      -6.027   3.230 128.489  0.00  0.00    +0.004 A 
ATOM     18  C   LIG A   1      -4.853   2.453 128.515  0.00  0.00    +0.010 A 
ATOM     19  C   LIG A   1      -4.229   2.114 127.310  0.00  0.00    +0.001 A 
ATOM     20  C   LIG A   1      -4.762   2.537 126.093  0.00  0.00    +0.002 A 
ATOM     21  C   LIG A   1      -5.930   3.306 126.043  0.00  0.00    +0.026 A 
ATOM     22  C   LIG A   1      -9.695   5.975 131.711  0.00  0.00    +0.262 A 
ATOM     23  O   LIG A   1      -9.541   6.227 132.901  0.00  0.00    -0.267 OA
ENDROOT
BRANCH   1  24
ATOM     24  O   LIG A   1     -12.270   6.468 127.638  0.00  0.00    -0.505 OA
ATOM     25  H   LIG A   1     -11.652   7.112 127.239  0.00  0.00    +0.292 HD
ENDBRANCH   1  24
TORSDOF 1
ENDMDL
MODEL 6
REMARK VINA RESULT:      -7.7      2.563      2.640
REMARK  Name = NuBBE_1067
REMARK  1 active torsions:
REMARK  status: ('A' for Active; 'I' for Inactive)
REMARK    1  A    between atoms: O_1  and  C_2
REMARK                            x       y       z     vdW  Elec       q    Type
REMARK                         _______ _______ _______ _____ _____    ______ ____
ROOT
ATOM      1  C   LIG A   1      -5.348   4.180 128.458  0.00  0.00    +0.143 A 
ATOM      2  C   LIG A   1      -6.396   4.280 129.380  0.00  0.00    +0.120 A 
ATOM      3  C   LIG A   1      -6.311   3.521 130.543  0.00  0.00    +0.069 A 
ATOM      4  C   LIG A   1      -5.222   2.670 130.780  0.00  0.00    +0.015 A 
ATOM      5  C   LIG A   1      -4.192   2.586 129.843  0.00  0.00    +0.004 A 
ATOM      6  C   LIG A   1      -4.254   3.347 128.676  0.00  0.00    +0.048 A 
ATOM      7  N   LIG A   1      -7.477   5.140 129.098  0.00  0.00    -0.224 NA
ATOM      8  C   LIG A   1      -8.392   5.253 130.008  0.00  0.00    +0.161 A 
ATOM      9  N   LIG A   1      -8.383   4.575 131.228  0.00  0.00    -0.291 N 
ATOM     10  C   LIG A   1      -9.547   4.644 132.130  0.00  0.00    +0.131 C 
ATOM     11  C   LIG A   1     -10.224   6.023 132.178  0.00  0.00    +0.059 C 
ATOM     12  C   LIG A   1     -10.390   6.525 130.792  0.00  0.00    -0.010 A 
ATOM     13  C   LIG A   1      -9.501   6.149 129.803  0.00  0.00    +0.087 A 
ATOM     14  N   LIG A   1      -9.876   6.787 128.651  0.00  0.00    -0.351 N 
ATOM     15  H   LIG A   1      -9.397   6.703 127.765  0.00  0.00    +0.166 HD
ATOM     16  C   LIG A   1     -11.015   7.536 128.873  0.00  0.00    +0.047 A 
ATOM     17  C   LIG A   1     -11.355   7.390 130.220  0.00  0.00    +0.004 A 
ATOM     18  C   LIG A   1     -12.488   8.062 130.715  0.00  0.00    +0.010 A 
ATOM     19  C   LIG A   1     -13.248   8.855 129.848  0.00  0.00    +0.001 A 
ATOM     20  C   LIG A   1     -12.889   8.982 128.508  0.00  0.00    +0.002 A 
ATOM     21  C   LIG A   1     -11.765   8.326 127.994  0.00  0.00    +0.026 A 
ATOM     22  C   LIG A   1      -7.404   3.638 131.520  0.00  0.00    +0.262 A 
ATOM     23  O   LIG A   1      -7.415   2.915 132.511  0.00  0.00    -0.267 OA
ENDROOT
BRANCH   1  24
ATOM     24  O   LIG A   1      -5.387   4.921 127.308  0.00  0.00    -0.505 OA
ATOM     25  H   LIG A   1      -4.929   5.753 127.540  0.00  0.00    +0.292 HD
ENDBRANCH   1  24
TORSDOF 1
ENDMDL
MODEL 7
REMARK VINA RESULT:      -7.6      7.884      8.597
REMARK  Name = NuBBE_1067
REMARK  1 active torsions:
REMARK  status: ('A' for Active; 'I' for Inactive)
REMARK    1  A    between atoms: O_1  and  C_2
REMARK                            x       y       z     vdW  Elec       q    Type
REMARK                         _______ _______ _______ _____ _____    ______ ____
ROOT
ATOM      1  C   LIG A   1      -2.730   3.370 127.144  0.00  0.00    +0.143 A 
ATOM      2  C   LIG A   1      -4.082   3.167 126.846  0.00  0.00    +0.120 A 
ATOM      3  C   LIG A   1      -4.950   4.241 127.012  0.00  0.00    +0.069 A 
ATOM      4  C   LIG A   1      -4.494   5.482 127.478  0.00  0.00    +0.015 A 
ATOM      5  C   LIG A   1      -3.141   5.657 127.771  0.00  0.00    +0.004 A 
ATOM      6  C   LIG A   1      -2.253   4.596 127.601  0.00  0.00    +0.048 A 
ATOM      7  N   LIG A   1      -4.500   1.900 126.391  0.00  0.00    -0.224 NA
ATOM      8  C   LIG A   1      -5.747   1.775 126.063  0.00  0.00    +0.161 A 
ATOM      9  N   LIG A   1      -6.694   2.797 126.146  0.00  0.00    -0.291 N 
ATOM     10  C   LIG A   1      -8.121   2.517 125.904  0.00  0.00    +0.131 C 
ATOM     11  C   LIG A   1      -8.380   1.505 124.776  0.00  0.00    +0.059 C 
ATOM     12  C   LIG A   1      -7.465   0.350 124.948  0.00  0.00    -0.010 A 
ATOM     13  C   LIG A   1      -6.232   0.521 125.547  0.00  0.00    +0.087 A 
ATOM     14  N   LIG A   1      -5.600  -0.694 125.536  0.00  0.00    -0.351 N 
ATOM     15  H   LIG A   1      -4.673  -0.864 125.903  0.00  0.00    +0.166 HD
ATOM     16  C   LIG A   1      -6.421  -1.651 124.974  0.00  0.00    +0.047 A 
ATOM     17  C   LIG A   1      -7.604  -1.013 124.591  0.00  0.00    +0.004 A 
ATOM     18  C   LIG A   1      -8.621  -1.771 123.981  0.00  0.00    +0.010 A 
ATOM     19  C   LIG A   1      -8.427  -3.141 123.778  0.00  0.00    +0.001 A 
ATOM     20  C   LIG A   1      -7.240  -3.754 124.171  0.00  0.00    +0.002 A 
ATOM     21  C   LIG A   1      -6.213  -3.021 124.776  0.00  0.00    +0.026 A 
ATOM     22  C   LIG A   1      -6.369   4.033 126.684  0.00  0.00    +0.262 A 
ATOM     23  O   LIG A   1      -7.182   4.924 126.907  0.00  0.00    -0.267 OA
ENDROOT
BRANCH   1  24
ATOM     24  O   LIG A   1      -1.841   2.342 126.981  0.00  0.00    -0.505 OA
ATOM     25  H   LIG A   1      -0.998   2.693 127.331  0.00  0.00    +0.292 HD
ENDBRANCH   1  24
TORSDOF 1
ENDMDL
MODEL 8
REMARK VINA RESULT:      -7.4      6.195      7.086
REMARK  Name = NuBBE_1067
REMARK  1 active torsions:
REMARK  status: ('A' for Active; 'I' for Inactive)
REMARK    1  A    between atoms: O_1  and  C_2
REMARK                            x       y       z     vdW  Elec       q    Type
REMARK                         _______ _______ _______ _____ _____    ______ ____
ROOT
ATOM      1  C   LIG A   1      -5.561   5.108 129.429  0.00  0.00    +0.143 A 
ATOM      2  C   LIG A   1      -6.294   4.355 128.506  0.00  0.00    +0.120 A 
ATOM      3  C   LIG A   1      -7.311   3.542 128.995  0.00  0.00    +0.069 A 
ATOM      4  C   LIG A   1      -7.585   3.463 130.368  0.00  0.00    +0.015 A 
ATOM      5  C   LIG A   1      -6.837   4.222 131.268  0.00  0.00    +0.004 A 
ATOM      6  C   LIG A   1      -5.820   5.051 130.796  0.00  0.00    +0.048 A 
ATOM      7  N   LIG A   1      -5.979   4.456 127.135  0.00  0.00    -0.224 NA
ATOM      8  C   LIG A   1      -6.726   3.793 126.310  0.00  0.00    +0.161 A 
ATOM      9  N   LIG A   1      -7.799   2.984 126.687  0.00  0.00    -0.291 N 
ATOM     10  C   LIG A   1      -8.489   2.144 125.691  0.00  0.00    +0.131 C 
ATOM     11  C   LIG A   1      -8.650   2.806 124.314  0.00  0.00    +0.059 C 
ATOM     12  C   LIG A   1      -7.359   3.425 123.925  0.00  0.00    -0.010 A 
ATOM     13  C   LIG A   1      -6.488   3.887 124.892  0.00  0.00    +0.087 A 
ATOM     14  N   LIG A   1      -5.412   4.433 124.246  0.00  0.00    -0.351 N 
ATOM     15  H   LIG A   1      -4.618   4.858 124.707  0.00  0.00    +0.166 HD
ATOM     16  C   LIG A   1      -5.557   4.296 122.880  0.00  0.00    +0.047 A 
ATOM     17  C   LIG A   1      -6.784   3.666 122.653  0.00  0.00    +0.004 A 
ATOM     18  C   LIG A   1      -7.184   3.407 121.329  0.00  0.00    +0.010 A 
ATOM     19  C   LIG A   1      -6.344   3.781 120.274  0.00  0.00    +0.001 A 
ATOM     20  C   LIG A   1      -5.125   4.406 120.527  0.00  0.00    +0.002 A 
ATOM     21  C   LIG A   1      -4.708   4.677 121.835  0.00  0.00    +0.026 A 
ATOM     22  C   LIG A   1      -8.094   2.762 128.024  0.00  0.00    +0.262 A 
ATOM     23  O   LIG A   1      -8.934   1.961 128.421  0.00  0.00    -0.267 OA
ENDROOT
BRANCH   1  24
ATOM     24  O   LIG A   1      -4.560   5.931 128.986  0.00  0.00    -0.505 OA
ATOM     25  H   LIG A   1      -5.018   6.590 128.427  0.00  0.00    +0.292 HD
ENDBRANCH   1  24
TORSDOF 1
ENDMDL
MODEL 9
REMARK VINA RESULT:      -7.4      9.179     11.015
REMARK  Name = NuBBE_1067
REMARK  1 active torsions:
REMARK  status: ('A' for Active; 'I' for Inactive)
REMARK    1  A    between atoms: O_1  and  C_2
REMARK                            x       y       z     vdW  Elec       q    Type
REMARK                         _______ _______ _______ _____ _____    ______ ____
ROOT
ATOM      1  C   LIG A   1      -8.501  -1.982 124.211  0.00  0.00    +0.143 A 
ATOM      2  C   LIG A   1      -8.341  -1.359 125.453  0.00  0.00    +0.120 A 
ATOM      3  C   LIG A   1      -8.707  -0.021 125.559  0.00  0.00    +0.069 A 
ATOM      4  C   LIG A   1      -9.204   0.688 124.456  0.00  0.00    +0.015 A 
ATOM      5  C   LIG A   1      -9.351   0.043 123.227  0.00  0.00    +0.004 A 
ATOM      6  C   LIG A   1      -9.000  -1.300 123.104  0.00  0.00    +0.048 A 
ATOM      7  N   LIG A   1      -7.828  -2.105 126.534  0.00  0.00    -0.224 NA
ATOM      8  C   LIG A   1      -7.759  -1.508 127.681  0.00  0.00    +0.161 A 
ATOM      9  N   LIG A   1      -8.141  -0.185 127.910  0.00  0.00    -0.291 N 
ATOM     10  C   LIG A   1      -7.877   0.456 129.211  0.00  0.00    +0.131 C 
ATOM     11  C   LIG A   1      -8.065  -0.474 130.420  0.00  0.00    +0.059 C 
ATOM     12  C   LIG A   1      -7.400  -1.770 130.136  0.00  0.00    -0.010 A 
ATOM     13  C   LIG A   1      -7.286  -2.226 128.837  0.00  0.00    +0.087 A 
ATOM     14  N   LIG A   1      -6.670  -3.447 128.884  0.00  0.00    -0.351 N 
ATOM     15  H   LIG A   1      -6.465  -4.021 128.077  0.00  0.00    +0.166 HD
ATOM     16  C   LIG A   1      -6.350  -3.767 130.189  0.00  0.00    +0.047 A 
ATOM     17  C   LIG A   1      -6.806  -2.724 130.998  0.00  0.00    +0.004 A 
ATOM     18  C   LIG A   1      -6.608  -2.802 132.390  0.00  0.00    +0.010 A 
ATOM     19  C   LIG A   1      -5.957  -3.918 132.927  0.00  0.00    +0.001 A 
ATOM     20  C   LIG A   1      -5.509  -4.944 132.099  0.00  0.00    +0.002 A 
ATOM     21  C   LIG A   1      -5.698  -4.890 130.713  0.00  0.00    +0.026 A 
ATOM     22  C   LIG A   1      -8.555   0.632 126.868  0.00  0.00    +0.262 A 
ATOM     23  O   LIG A   1      -8.776   1.833 126.979  0.00  0.00    -0.267 OA
ENDROOT
BRANCH   1  24
ATOM     24  O   LIG A   1      -8.165  -3.302 124.070  0.00  0.00    -0.505 OA
ATOM     25  H   LIG A   1      -8.839  -3.659 123.459  0.00  0.00    +0.292 HD
ENDBRANCH   1  24
TORSDOF 1
ENDMDL
