MODEL 1
REMARK VINA RESULT:      -7.7      0.000      0.000
REMARK  Name = NuBBE_2187
REMARK  7 active torsions:
REMARK  status: ('A' for Active; 'I' for Inactive)
REMARK    1  A    between atoms: C_1  and  C_2
REMARK    2  A    between atoms: C_2  and  C_3
REMARK    3  A    between atoms: C_4  and  C_6
REMARK    4  A    between atoms: C_6  and  C_7
REMARK    5  A    between atoms: C_7  and  C_8
REMARK    6  A    between atoms: C_19  and  C_20
REMARK    7  A    between atoms: C_19  and  O_21
REMARK                            x       y       z     vdW  Elec       q    Type
REMARK                         _______ _______ _______ _____ _____    ______ ____
ROOT
ATOM      1  C   LIG A   1      -7.888   1.475 124.896  0.00  0.00    +0.008 C 
ENDROOT
BRANCH   1   5
ATOM      2  C   LIG A   1      -6.405   1.794 127.506  0.00  0.00    +0.011 C 
ATOM      3  C   LIG A   1      -5.606   1.804 126.185  0.00  0.00    -0.029 C 
ATOM      4  C   LIG A   1      -5.015   0.377 126.018  0.00  0.00    +0.011 C 
ATOM      5  C   LIG A   1      -6.493   2.197 124.918  0.00  0.00    +0.026 C 
ATOM      6  C   LIG A   1      -6.612   3.742 124.650  0.00  0.00    +0.067 C 
ATOM      7  C   LIG A   1      -7.736   4.441 125.430  0.00  0.00    +0.041 C 
ATOM      8  C   LIG A   1      -5.291   4.491 124.879  0.00  0.00    +0.035 C 
ATOM      9  C   LIG A   1      -4.702   4.214 126.244  0.00  0.00    +0.003 C 
ATOM     10  C   LIG A   1      -4.375   2.737 126.347  0.00  0.00    +0.007 C 
BRANCH   6  11
ATOM     11  O   LIG A   1      -6.914   3.946 123.256  0.00  0.00    -0.389 OA
ATOM     12  H   LIG A   1      -6.116   4.300 122.826  0.00  0.00    +0.210 HD
ENDBRANCH   6  11
ENDBRANCH   1   5
BRANCH   1  13
ATOM     13  C   LIG A   1      -8.199   0.660 123.614  0.00  0.00    +0.015 C 
BRANCH  13  14
ATOM     14  C   LIG A   1      -8.008  -0.866 123.731  0.00  0.00    +0.033 C 
ATOM     15  C   LIG A   1      -7.905  -1.312 125.203  0.00  0.00    +0.022 C 
ATOM     16  C   LIG A   1      -6.666  -1.373 123.156  0.00  0.00    +0.044 C 
ATOM     17  C   LIG A   1      -6.370  -2.607 123.984  0.00  0.00    -0.073 C 
ATOM     18  C   LIG A   1      -7.424  -2.760 125.055  0.00  0.00    +0.016 C 
ATOM     19  C   LIG A   1      -8.586  -3.631 124.552  0.00  0.00    +0.015 C 
ATOM     20  C   LIG A   1      -9.158  -3.149 123.217  0.00  0.00    +0.075 C 
ATOM     21  C   LIG A   1      -9.209  -1.632 123.144  0.00  0.00    +0.140 C 
ATOM     22  O   LIG A   1     -10.166  -1.073 122.623  0.00  0.00    -0.297 OA
ATOM     23  C   LIG A   1      -5.322  -3.422 123.814  0.00  0.00    +0.008 C 
ENDBRANCH  13  14
ENDBRANCH   1  13
TORSDOF 4
ENDMDL
MODEL 2
REMARK VINA RESULT:      -7.5      8.127     10.236
REMARK  Name = NuBBE_2187
REMARK  7 active torsions:
REMARK  status: ('A' for Active; 'I' for Inactive)
REMARK    1  A    between atoms: C_1  and  C_2
REMARK    2  A    between atoms: C_2  and  C_3
REMARK    3  A    between atoms: C_4  and  C_6
REMARK    4  A    between atoms: C_6  and  C_7
REMARK    5  A    between atoms: C_7  and  C_8
REMARK    6  A    between atoms: C_19  and  C_20
REMARK    7  A    between atoms: C_19  and  O_21
REMARK                            x       y       z     vdW  Elec       q    Type
REMARK                         _______ _______ _______ _____ _____    ______ ____
ROOT
ATOM      1  C   LIG A   1     -10.210   5.124 131.076  0.00  0.00    +0.008 C 
ENDROOT
BRANCH   1   5
ATOM      2  C   LIG A   1      -7.356   4.681 130.195  0.00  0.00    +0.011 C 
ATOM      3  C   LIG A   1      -7.626   5.508 131.470  0.00  0.00    -0.029 C 
ATOM      4  C   LIG A   1      -7.527   7.001 131.056  0.00  0.00    +0.011 C 
ATOM      5  C   LIG A   1      -9.047   5.199 132.129  0.00  0.00    +0.026 C 
ATOM      6  C   LIG A   1      -9.060   3.985 133.128  0.00  0.00    +0.067 C 
ATOM      7  C   LIG A   1      -9.270   2.614 132.464  0.00  0.00    +0.041 C 
ATOM      8  C   LIG A   1      -7.813   3.933 134.021  0.00  0.00    +0.035 C 
ATOM      9  C   LIG A   1      -6.530   3.971 133.221  0.00  0.00    +0.003 C 
ATOM     10  C   LIG A   1      -6.459   5.286 132.471  0.00  0.00    +0.007 C 
BRANCH   6  11
ATOM     11  O   LIG A   1     -10.161   4.153 134.042  0.00  0.00    -0.389 OA
ATOM     12  H   LIG A   1     -10.081   5.034 134.448  0.00  0.00    +0.210 HD
ENDBRANCH   6  11
ENDBRANCH   1   5
BRANCH   1  13
ATOM     13  C   LIG A   1     -11.381   6.114 131.301  0.00  0.00    +0.015 C 
BRANCH  13  14
ATOM     14  C   LIG A   1     -11.795   6.948 130.072  0.00  0.00    +0.033 C 
ATOM     15  C   LIG A   1     -12.694   6.139 129.116  0.00  0.00    +0.022 C 
ATOM     16  C   LIG A   1     -10.616   7.325 129.147  0.00  0.00    +0.044 C 
ATOM     17  C   LIG A   1     -11.259   7.431 127.778  0.00  0.00    -0.073 C 
ATOM     18  C   LIG A   1     -12.714   7.037 127.875  0.00  0.00    +0.016 C 
ATOM     19  C   LIG A   1     -13.592   8.267 128.153  0.00  0.00    +0.015 C 
ATOM     20  C   LIG A   1     -13.113   9.081 129.357  0.00  0.00    +0.075 C 
ATOM     21  C   LIG A   1     -12.621   8.183 130.480  0.00  0.00    +0.140 C 
ATOM     22  O   LIG A   1     -12.871   8.462 131.646  0.00  0.00    -0.297 OA
ATOM     23  C   LIG A   1     -10.632   7.789 126.652  0.00  0.00    +0.008 C 
ENDBRANCH  13  14
ENDBRANCH   1  13
TORSDOF 4
ENDMDL
MODEL 3
REMARK VINA RESULT:      -7.2      2.038      3.127
REMARK  Name = NuBBE_2187
REMARK  7 active torsions:
REMARK  status: ('A' for Active; 'I' for Inactive)
REMARK    1  A    between atoms: C_1  and  C_2
REMARK    2  A    between atoms: C_2  and  C_3
REMARK    3  A    between atoms: C_4  and  C_6
REMARK    4  A    between atoms: C_6  and  C_7
REMARK    5  A    between atoms: C_7  and  C_8
REMARK    6  A    between atoms: C_19  and  C_20
REMARK    7  A    between atoms: C_19  and  O_21
REMARK                            x       y       z     vdW  Elec       q    Type
REMARK                         _______ _______ _______ _____ _____    ______ ____
ROOT
ATOM      1  C   LIG A   1      -6.993   1.037 126.175  0.00  0.00    +0.008 C 
ENDROOT
BRANCH   1   5
ATOM      2  C   LIG A   1      -6.714   4.043 126.190  0.00  0.00    +0.011 C 
ATOM      3  C   LIG A   1      -5.724   3.203 125.356  0.00  0.00    -0.029 C 
ATOM      4  C   LIG A   1      -4.430   3.074 126.207  0.00  0.00    +0.011 C 
ATOM      5  C   LIG A   1      -6.290   1.762 124.971  0.00  0.00    +0.026 C 
ATOM      6  C   LIG A   1      -7.154   1.721 123.657  0.00  0.00    +0.067 C 
ATOM      7  C   LIG A   1      -8.640   2.056 123.860  0.00  0.00    +0.041 C 
ATOM      8  C   LIG A   1      -6.581   2.604 122.540  0.00  0.00    +0.035 C 
ATOM      9  C   LIG A   1      -6.340   4.026 122.995  0.00  0.00    +0.003 C 
ATOM     10  C   LIG A   1      -5.304   4.018 124.101  0.00  0.00    +0.007 C 
BRANCH   6  11
ATOM     11  O   LIG A   1      -7.119   0.383 123.125  0.00  0.00    -0.389 OA
ATOM     12  H   LIG A   1      -6.188   0.104 123.078  0.00  0.00    +0.210 HD
ENDBRANCH   6  11
ENDBRANCH   1   5
BRANCH   1  13
ATOM     13  C   LIG A   1      -6.357  -0.309 126.608  0.00  0.00    +0.015 C 
BRANCH  13  14
ATOM     14  C   LIG A   1      -7.180  -1.571 126.281  0.00  0.00    +0.033 C 
ATOM     15  C   LIG A   1      -8.645  -1.223 125.953  0.00  0.00    +0.022 C 
ATOM     16  C   LIG A   1      -7.348  -2.536 127.477  0.00  0.00    +0.044 C 
ATOM     17  C   LIG A   1      -8.677  -3.211 127.203  0.00  0.00    -0.073 C 
ATOM     18  C   LIG A   1      -9.305  -2.606 125.970  0.00  0.00    +0.016 C 
ATOM     19  C   LIG A   1      -8.886  -3.382 124.711  0.00  0.00    +0.015 C 
ATOM     20  C   LIG A   1      -7.369  -3.547 124.589  0.00  0.00    +0.075 C 
ATOM     21  C   LIG A   1      -6.633  -2.295 125.035  0.00  0.00    +0.140 C 
ATOM     22  O   LIG A   1      -5.643  -1.912 124.423  0.00  0.00    -0.297 OA
ATOM     23  C   LIG A   1      -9.225  -4.176 127.952  0.00  0.00    +0.008 C 
ENDBRANCH  13  14
ENDBRANCH   1  13
TORSDOF 4
ENDMDL
MODEL 4
REMARK VINA RESULT:      -7.2      2.201      5.880
REMARK  Name = NuBBE_2187
REMARK  7 active torsions:
REMARK  status: ('A' for Active; 'I' for Inactive)
REMARK    1  A    between atoms: C_1  and  C_2
REMARK    2  A    between atoms: C_2  and  C_3
REMARK    3  A    between atoms: C_4  and  C_6
REMARK    4  A    between atoms: C_6  and  C_7
REMARK    5  A    between atoms: C_7  and  C_8
REMARK    6  A    between atoms: C_19  and  C_20
REMARK    7  A    between atoms: C_19  and  O_21
REMARK                            x       y       z     vdW  Elec       q    Type
REMARK                         _______ _______ _______ _____ _____    ______ ____
ROOT
ATOM      1  C   LIG A   1      -8.367  -0.745 125.044  0.00  0.00    +0.008 C 
ENDROOT
BRANCH   1   5
ATOM      2  C   LIG A   1      -6.109  -1.197 126.997  0.00  0.00    +0.011 C 
ATOM      3  C   LIG A   1      -7.555  -1.110 127.531  0.00  0.00    -0.029 C 
ATOM      4  C   LIG A   1      -7.739   0.334 128.071  0.00  0.00    +0.011 C 
ATOM      5  C   LIG A   1      -8.654  -1.441 126.422  0.00  0.00    +0.026 C 
ATOM      6  C   LIG A   1      -8.994  -2.969 126.265  0.00  0.00    +0.067 C 
ATOM      7  C   LIG A   1      -8.061  -3.735 125.314  0.00  0.00    +0.041 C 
ATOM      8  C   LIG A   1      -9.066  -3.705 127.610  0.00  0.00    +0.035 C 
ATOM      9  C   LIG A   1      -7.822  -3.502 128.446  0.00  0.00    +0.003 C 
ATOM     10  C   LIG A   1      -7.688  -2.029 128.776  0.00  0.00    +0.007 C 
BRANCH   6  11
ATOM     11  O   LIG A   1     -10.315  -3.092 125.706  0.00  0.00    -0.389 OA
ATOM     12  H   LIG A   1     -10.232  -3.077 124.736  0.00  0.00    +0.210 HD
ENDBRANCH   6  11
ENDBRANCH   1   5
BRANCH   1  13
ATOM     13  C   LIG A   1      -9.266   0.472 124.709  0.00  0.00    +0.015 C 
BRANCH  13  14
ATOM     14  C   LIG A   1      -8.538   1.700 124.127  0.00  0.00    +0.033 C 
ATOM     15  C   LIG A   1      -7.032   1.431 123.943  0.00  0.00    +0.022 C 
ATOM     16  C   LIG A   1      -8.524   2.924 125.070  0.00  0.00    +0.044 C 
ATOM     17  C   LIG A   1      -7.245   3.646 124.695  0.00  0.00    -0.073 C 
ATOM     18  C   LIG A   1      -6.496   2.838 123.662  0.00  0.00    +0.016 C 
ATOM     19  C   LIG A   1      -6.905   3.261 122.242  0.00  0.00    +0.015 C 
ATOM     20  C   LIG A   1      -8.421   3.244 122.029  0.00  0.00    +0.075 C 
ATOM     21  C   LIG A   1      -9.072   2.062 122.727  0.00  0.00    +0.140 C 
ATOM     22  O   LIG A   1      -9.987   1.455 122.186  0.00  0.00    -0.297 OA
ATOM     23  C   LIG A   1      -6.826   4.805 125.218  0.00  0.00    +0.008 C 
ENDBRANCH  13  14
ENDBRANCH   1  13
TORSDOF 4
ENDMDL
MODEL 5
REMARK VINA RESULT:      -7.1      1.654      6.020
REMARK  Name = NuBBE_2187
REMARK  7 active torsions:
REMARK  status: ('A' for Active; 'I' for Inactive)
REMARK    1  A    between atoms: C_1  and  C_2
REMARK    2  A    between atoms: C_2  and  C_3
REMARK    3  A    between atoms: C_4  and  C_6
REMARK    4  A    between atoms: C_6  and  C_7
REMARK    5  A    between atoms: C_7  and  C_8
REMARK    6  A    between atoms: C_19  and  C_20
REMARK    7  A    between atoms: C_19  and  O_21
REMARK                            x       y       z     vdW  Elec       q    Type
REMARK                         _______ _______ _______ _____ _____    ______ ____
ROOT
ATOM      1  C   LIG A   1      -6.842  -0.339 124.630  0.00  0.00    +0.008 C 
ENDROOT
BRANCH   1   5
ATOM      2  C   LIG A   1      -5.883  -1.984 126.973  0.00  0.00    +0.011 C 
ATOM      3  C   LIG A   1      -7.299  -1.372 127.018  0.00  0.00    -0.029 C 
ATOM      4  C   LIG A   1      -7.193  -0.081 127.875  0.00  0.00    +0.011 C 
ATOM      5  C   LIG A   1      -7.885  -1.041 125.571  0.00  0.00    +0.026 C 
ATOM      6  C   LIG A   1      -8.620  -2.240 124.867  0.00  0.00    +0.067 C 
ATOM      7  C   LIG A   1      -7.695  -3.182 124.080  0.00  0.00    +0.041 C 
ATOM      8  C   LIG A   1      -9.482  -3.063 125.835  0.00  0.00    +0.035 C 
ATOM      9  C   LIG A   1      -8.702  -3.530 127.044  0.00  0.00    +0.003 C 
ATOM     10  C   LIG A   1      -8.232  -2.318 127.823  0.00  0.00    +0.007 C 
BRANCH   6  11
ATOM     11  O   LIG A   1      -9.552  -1.708 123.905  0.00  0.00    -0.389 OA
ATOM     12  H   LIG A   1     -10.419  -1.631 124.341  0.00  0.00    +0.210 HD
ENDBRANCH   6  11
ENDBRANCH   1   5
BRANCH   1  13
ATOM     13  C   LIG A   1      -7.319   0.976 123.964  0.00  0.00    +0.015 C 
BRANCH  13  14
ATOM     14  C   LIG A   1      -6.819   2.277 124.622  0.00  0.00    +0.033 C 
ATOM     15  C   LIG A   1      -6.226   3.247 123.581  0.00  0.00    +0.022 C 
ATOM     16  C   LIG A   1      -5.620   2.074 125.577  0.00  0.00    +0.044 C 
ATOM     17  C   LIG A   1      -4.876   3.392 125.499  0.00  0.00    -0.073 C 
ATOM     18  C   LIG A   1      -5.541   4.284 124.477  0.00  0.00    +0.016 C 
ATOM     19  C   LIG A   1      -6.611   5.165 125.141  0.00  0.00    +0.015 C 
ATOM     20  C   LIG A   1      -7.613   4.361 125.973  0.00  0.00    +0.075 C 
ATOM     21  C   LIG A   1      -7.969   3.045 125.303  0.00  0.00    +0.140 C 
ATOM     22  O   LIG A   1      -9.120   2.630 125.332  0.00  0.00    -0.297 OA
ATOM     23  C   LIG A   1      -3.784   3.709 126.203  0.00  0.00    +0.008 C 
ENDBRANCH  13  14
ENDBRANCH   1  13
TORSDOF 4
ENDMDL
MODEL 6
REMARK VINA RESULT:      -6.9      3.458      6.229
REMARK  Name = NuBBE_2187
REMARK  7 active torsions:
REMARK  status: ('A' for Active; 'I' for Inactive)
REMARK    1  A    between atoms: C_1  and  C_2
REMARK    2  A    between atoms: C_2  and  C_3
REMARK    3  A    between atoms: C_4  and  C_6
REMARK    4  A    between atoms: C_6  and  C_7
REMARK    5  A    between atoms: C_7  and  C_8
REMARK    6  A    between atoms: C_19  and  C_20
REMARK    7  A    between atoms: C_19  and  O_21
REMARK                            x       y       z     vdW  Elec       q    Type
REMARK                         _______ _______ _______ _____ _____    ______ ____
ROOT
ATOM      1  C   LIG A   1      -6.783  -0.930 126.209  0.00  0.00    +0.008 C 
ENDROOT
BRANCH   1   5
ATOM      2  C   LIG A   1      -6.866  -3.592 124.788  0.00  0.00    +0.011 C 
ATOM      3  C   LIG A   1      -8.195  -2.906 125.171  0.00  0.00    -0.029 C 
ATOM      4  C   LIG A   1      -8.679  -3.585 126.481  0.00  0.00    +0.011 C 
ATOM      5  C   LIG A   1      -8.052  -1.330 125.374  0.00  0.00    +0.026 C 
ATOM      6  C   LIG A   1      -8.199  -0.479 124.058  0.00  0.00    +0.067 C 
ATOM      7  C   LIG A   1      -6.898  -0.315 123.257  0.00  0.00    +0.041 C 
ATOM      8  C   LIG A   1      -9.306  -1.000 123.132  0.00  0.00    +0.035 C 
ATOM      9  C   LIG A   1      -9.151  -2.472 122.820  0.00  0.00    +0.003 C 
ATOM     10  C   LIG A   1      -9.271  -3.262 124.108  0.00  0.00    +0.007 C 
BRANCH   6  11
ATOM     11  O   LIG A   1      -8.613   0.853 124.416  0.00  0.00    -0.389 OA
ATOM     12  H   LIG A   1      -9.502   0.999 124.045  0.00  0.00    +0.210 HD
ENDBRANCH   6  11
ENDBRANCH   1   5
BRANCH   1  13
ATOM     13  C   LIG A   1      -7.020  -0.721 127.727  0.00  0.00    +0.015 C 
BRANCH  13  14
ATOM     14  C   LIG A   1      -6.058  -1.479 128.662  0.00  0.00    +0.033 C 
ATOM     15  C   LIG A   1      -5.077  -2.365 127.870  0.00  0.00    +0.022 C 
ATOM     16  C   LIG A   1      -6.756  -2.519 129.568  0.00  0.00    +0.044 C 
ATOM     17  C   LIG A   1      -5.685  -3.569 129.792  0.00  0.00    -0.073 C 
ATOM     18  C   LIG A   1      -4.460  -3.219 128.982  0.00  0.00    +0.016 C 
ATOM     19  C   LIG A   1      -3.493  -2.355 129.806  0.00  0.00    +0.015 C 
ATOM     20  C   LIG A   1      -4.169  -1.129 130.426  0.00  0.00    +0.075 C 
ATOM     21  C   LIG A   1      -5.181  -0.509 129.477  0.00  0.00    +0.140 C 
ATOM     22  O   LIG A   1      -5.283   0.709 129.397  0.00  0.00    -0.297 OA
ATOM     23  C   LIG A   1      -5.813  -4.653 130.566  0.00  0.00    +0.008 C 
ENDBRANCH  13  14
ENDBRANCH   1  13
TORSDOF 4
ENDMDL
MODEL 7
REMARK VINA RESULT:      -6.9      3.980      5.876
REMARK  Name = NuBBE_2187
REMARK  7 active torsions:
REMARK  status: ('A' for Active; 'I' for Inactive)
REMARK    1  A    between atoms: C_1  and  C_2
REMARK    2  A    between atoms: C_2  and  C_3
REMARK    3  A    between atoms: C_4  and  C_6
REMARK    4  A    between atoms: C_6  and  C_7
REMARK    5  A    between atoms: C_7  and  C_8
REMARK    6  A    between atoms: C_19  and  C_20
REMARK    7  A    between atoms: C_19  and  O_21
REMARK                            x       y       z     vdW  Elec       q    Type
REMARK                         _______ _______ _______ _____ _____    ______ ____
ROOT
ATOM      1  C   LIG A   1      -5.941  -1.831 127.441  0.00  0.00    +0.008 C 
ENDROOT
BRANCH   1   5
ATOM      2  C   LIG A   1      -7.811  -1.232 129.734  0.00  0.00    +0.011 C 
ATOM      3  C   LIG A   1      -7.375  -2.691 129.486  0.00  0.00    -0.029 C 
ATOM      4  C   LIG A   1      -8.536  -3.372 128.711  0.00  0.00    +0.011 C 
ATOM      5  C   LIG A   1      -6.008  -2.808 128.669  0.00  0.00    +0.026 C 
ATOM      6  C   LIG A   1      -4.706  -2.757 129.551  0.00  0.00    +0.067 C 
ATOM      7  C   LIG A   1      -4.197  -1.339 129.854  0.00  0.00    +0.041 C 
ATOM      8  C   LIG A   1      -4.843  -3.541 130.863  0.00  0.00    +0.035 C 
ATOM      9  C   LIG A   1      -6.062  -3.126 131.658  0.00  0.00    +0.003 C 
ATOM     10  C   LIG A   1      -7.305  -3.435 130.848  0.00  0.00    +0.007 C 
BRANCH   6  11
ATOM     11  O   LIG A   1      -3.642  -3.415 128.837  0.00  0.00    -0.389 OA
ATOM     12  H   LIG A   1      -3.603  -4.338 129.143  0.00  0.00    +0.210 HD
ENDBRANCH   6  11
ENDBRANCH   1   5
BRANCH   1  13
ATOM     13  C   LIG A   1      -6.107  -2.494 126.049  0.00  0.00    +0.015 C 
BRANCH  13  14
ATOM     14  C   LIG A   1      -7.294  -1.986 125.206  0.00  0.00    +0.033 C 
ATOM     15  C   LIG A   1      -6.821  -1.085 124.049  0.00  0.00    +0.022 C 
ATOM     16  C   LIG A   1      -8.244  -1.037 125.972  0.00  0.00    +0.044 C 
ATOM     17  C   LIG A   1      -8.803  -0.142 124.884  0.00  0.00    -0.073 C 
ATOM     18  C   LIG A   1      -8.143  -0.477 123.568  0.00  0.00    +0.016 C 
ATOM     19  C   LIG A   1      -8.947  -1.546 122.813  0.00  0.00    +0.015 C 
ATOM     20  C   LIG A   1      -9.240  -2.784 123.665  0.00  0.00    +0.075 C 
ATOM     21  C   LIG A   1      -8.057  -3.150 124.545  0.00  0.00    +0.140 C 
ATOM     22  O   LIG A   1      -7.758  -4.325 124.717  0.00  0.00    -0.297 OA
ATOM     23  C   LIG A   1      -9.720   0.816 125.064  0.00  0.00    +0.008 C 
ENDBRANCH  13  14
ENDBRANCH   1  13
TORSDOF 4
ENDMDL
MODEL 8
REMARK VINA RESULT:      -6.8      2.394      5.814
REMARK  Name = NuBBE_2187
REMARK  7 active torsions:
REMARK  status: ('A' for Active; 'I' for Inactive)
REMARK    1  A    between atoms: C_1  and  C_2
REMARK    2  A    between atoms: C_2  and  C_3
REMARK    3  A    between atoms: C_4  and  C_6
REMARK    4  A    between atoms: C_6  and  C_7
REMARK    5  A    between atoms: C_7  and  C_8
REMARK    6  A    between atoms: C_19  and  C_20
REMARK    7  A    between atoms: C_19  and  O_21
REMARK                            x       y       z     vdW  Elec       q    Type
REMARK                         _______ _______ _______ _____ _____    ______ ____
ROOT
ATOM      1  C   LIG A   1      -6.441  -0.705 126.309  0.00  0.00    +0.008 C 
ENDROOT
BRANCH   1   5
ATOM      2  C   LIG A   1      -5.965  -2.861 128.367  0.00  0.00    +0.011 C 
ATOM      3  C   LIG A   1      -7.312  -2.109 128.369  0.00  0.00    -0.029 C 
ATOM      4  C   LIG A   1      -7.209  -1.024 129.475  0.00  0.00    +0.011 C 
ATOM      5  C   LIG A   1      -7.663  -1.446 126.960  0.00  0.00    +0.026 C 
ATOM      6  C   LIG A   1      -8.400  -2.398 125.948  0.00  0.00    +0.067 C 
ATOM      7  C   LIG A   1      -7.464  -3.275 125.101  0.00  0.00    +0.041 C 
ATOM      8  C   LIG A   1      -9.456  -3.284 126.622  0.00  0.00    +0.035 C 
ATOM      9  C   LIG A   1      -8.895  -4.057 127.795  0.00  0.00    +0.003 C 
ATOM     10  C   LIG A   1      -8.428  -3.076 128.852  0.00  0.00    +0.007 C 
BRANCH   6  11
ATOM     11  O   LIG A   1      -9.139  -1.591 125.011  0.00  0.00    -0.389 OA
ATOM     12  H   LIG A   1      -8.530  -0.926 124.644  0.00  0.00    +0.210 HD
ENDBRANCH   6  11
ENDBRANCH   1   5
BRANCH   1  13
ATOM     13  C   LIG A   1      -6.418   0.835 126.490  0.00  0.00    +0.015 C 
BRANCH  13  14
ATOM     14  C   LIG A   1      -6.933   1.655 125.290  0.00  0.00    +0.033 C 
ATOM     15  C   LIG A   1      -6.819   0.863 123.972  0.00  0.00    +0.022 C 
ATOM     16  C   LIG A   1      -6.081   2.906 124.977  0.00  0.00    +0.044 C 
ATOM     17  C   LIG A   1      -6.259   3.092 123.483  0.00  0.00    -0.073 C 
ATOM     18  C   LIG A   1      -7.086   1.955 122.930  0.00  0.00    +0.016 C 
ATOM     19  C   LIG A   1      -8.580   2.313 122.943  0.00  0.00    +0.015 C 
ATOM     20  C   LIG A   1      -9.066   2.793 124.313  0.00  0.00    +0.075 C 
ATOM     21  C   LIG A   1      -8.427   2.003 125.442  0.00  0.00    +0.140 C 
ATOM     22  O   LIG A   1      -9.088   1.685 126.422  0.00  0.00    -0.297 OA
ATOM     23  C   LIG A   1      -5.743   4.091 122.759  0.00  0.00    +0.008 C 
ENDBRANCH  13  14
ENDBRANCH   1  13
TORSDOF 4
ENDMDL
MODEL 9
REMARK VINA RESULT:      -6.8      3.565      5.363
REMARK  Name = NuBBE_2187
REMARK  7 active torsions:
REMARK  status: ('A' for Active; 'I' for Inactive)
REMARK    1  A    between atoms: C_1  and  C_2
REMARK    2  A    between atoms: C_2  and  C_3
REMARK    3  A    between atoms: C_4  and  C_6
REMARK    4  A    between atoms: C_6  and  C_7
REMARK    5  A    between atoms: C_7  and  C_8
REMARK    6  A    between atoms: C_19  and  C_20
REMARK    7  A    between atoms: C_19  and  O_21
REMARK                            x       y       z     vdW  Elec       q    Type
REMARK                         _______ _______ _______ _____ _____    ______ ____
ROOT
ATOM      1  C   LIG A   1      -7.148  -0.866 127.992  0.00  0.00    +0.008 C 
ENDROOT
BRANCH   1   5
ATOM      2  C   LIG A   1      -5.979   0.456 130.441  0.00  0.00    +0.011 C 
ATOM      3  C   LIG A   1      -7.367  -0.209 130.540  0.00  0.00    -0.029 C 
ATOM      4  C   LIG A   1      -8.413   0.933 130.417  0.00  0.00    +0.011 C 
ATOM      5  C   LIG A   1      -7.613  -1.320 129.421  0.00  0.00    +0.026 C 
ATOM      6  C   LIG A   1      -7.095  -2.758 129.795  0.00  0.00    +0.067 C 
ATOM      7  C   LIG A   1      -5.615  -3.008 129.465  0.00  0.00    +0.041 C 
ATOM      8  C   LIG A   1      -7.360  -3.126 131.261  0.00  0.00    +0.035 C 
ATOM      9  C   LIG A   1      -6.829  -2.084 132.221  0.00  0.00    +0.003 C 
ATOM     10  C   LIG A   1      -7.553  -0.776 131.975  0.00  0.00    +0.007 C 
BRANCH   6  11
ATOM     11  O   LIG A   1      -7.838  -3.728 129.031  0.00  0.00    -0.389 OA
ATOM     12  H   LIG A   1      -7.983  -3.360 128.142  0.00  0.00    +0.210 HD
ENDBRANCH   6  11
ENDBRANCH   1   5
BRANCH   1  13
ATOM     13  C   LIG A   1      -8.278  -0.687 126.946  0.00  0.00    +0.015 C 
BRANCH  13  14
ATOM     14  C   LIG A   1      -8.139  -1.530 125.663  0.00  0.00    +0.033 C 
ATOM     15  C   LIG A   1      -8.679  -2.960 125.863  0.00  0.00    +0.022 C 
ATOM     16  C   LIG A   1      -6.675  -1.805 125.251  0.00  0.00    +0.044 C 
ATOM     17  C   LIG A   1      -6.753  -3.136 124.530  0.00  0.00    -0.073 C 
ATOM     18  C   LIG A   1      -8.165  -3.666 124.604  0.00  0.00    +0.016 C 
ATOM     19  C   LIG A   1      -8.984  -3.197 123.390  0.00  0.00    +0.015 C 
ATOM     20  C   LIG A   1      -8.925  -1.682 123.181  0.00  0.00    +0.075 C 
ATOM     21  C   LIG A   1      -8.957  -0.932 124.502  0.00  0.00    +0.140 C 
ATOM     22  O   LIG A   1      -9.600   0.105 124.606  0.00  0.00    -0.297 OA
ATOM     23  C   LIG A   1      -5.726  -3.762 123.944  0.00  0.00    +0.008 C 
ENDBRANCH  13  14
ENDBRANCH   1  13
TORSDOF 4
ENDMDL
