MODEL 1
REMARK VINA RESULT:      -5.9      0.000      0.000
REMARK  Name = NuBBE_1745
REMARK  3 active torsions:
REMARK  status: ('A' for Active; 'I' for Inactive)
REMARK    1  A    between atoms: C_1  and  C_2
REMARK    2  A    between atoms: C_4  and  C_5
REMARK    3  A    between atoms: C_4  and  C_6
REMARK                            x       y       z     vdW  Elec       q    Type
REMARK                         _______ _______ _______ _____ _____    ______ ____
ROOT
ATOM      1  C   LIG A   1     -13.313  10.503 129.268  0.00  0.00    +0.041 C 
ATOM      2  C   LIG A   1     -12.928   9.029 129.208  0.00  0.00    +0.068 C 
ATOM      3  O   LIG A   1     -11.554   8.955 128.777  0.00  0.00    -0.367 OA
ATOM      4  C   LIG A   1     -11.052   7.605 128.676  0.00  0.00    +0.068 C 
ATOM      5  C   LIG A   1     -10.574   7.405 127.229  0.00  0.00    +0.041 C 
ATOM      6  C   LIG A   1      -9.826   7.505 129.595  0.00  0.00    +0.041 C 
ATOM      7  C   LIG A   1     -12.167   6.591 129.070  0.00  0.00    +0.021 C 
ATOM      8  C   LIG A   1     -13.391   6.794 128.156  0.00  0.00    +0.009 C 
ATOM      9  C   LIG A   1     -13.799   8.271 128.188  0.00  0.00    +0.035 C 
ATOM     10  C   LIG A   1     -12.649   6.893 130.503  0.00  0.00    +0.009 C 
ATOM     11  C   LIG A   1     -13.038   8.372 130.598  0.00  0.00    +0.035 C 
ENDROOT
TORSDOF 0
ENDMDL
MODEL 2
REMARK VINA RESULT:      -5.6     11.615     13.055
REMARK  Name = NuBBE_1745
REMARK  3 active torsions:
REMARK  status: ('A' for Active; 'I' for Inactive)
REMARK    1  A    between atoms: C_1  and  C_2
REMARK    2  A    between atoms: C_4  and  C_5
REMARK    3  A    between atoms: C_4  and  C_6
REMARK                            x       y       z     vdW  Elec       q    Type
REMARK                         _______ _______ _______ _____ _____    ______ ____
ROOT
ATOM      1  C   LIG A   1      -4.832  -4.076 123.831  0.00  0.00    +0.041 C 
ATOM      2  C   LIG A   1      -5.924  -3.036 124.060  0.00  0.00    +0.068 C 
ATOM      3  O   LIG A   1      -7.160  -3.745 124.284  0.00  0.00    -0.367 OA
ATOM      4  C   LIG A   1      -8.289  -2.876 124.517  0.00  0.00    +0.068 C 
ATOM      5  C   LIG A   1      -9.344  -3.204 123.448  0.00  0.00    +0.041 C 
ATOM      6  C   LIG A   1      -8.876  -3.250 125.886  0.00  0.00    +0.041 C 
ATOM      7  C   LIG A   1      -7.838  -1.387 124.458  0.00  0.00    +0.021 C 
ATOM      8  C   LIG A   1      -7.196  -1.100 123.087  0.00  0.00    +0.009 C 
ATOM      9  C   LIG A   1      -6.098  -2.135 122.823  0.00  0.00    +0.035 C 
ATOM     10  C   LIG A   1      -6.733  -1.146 125.505  0.00  0.00    +0.009 C 
ATOM     11  C   LIG A   1      -5.621  -2.182 125.306  0.00  0.00    +0.035 C 
ENDROOT
TORSDOF 0
ENDMDL
MODEL 3
REMARK VINA RESULT:      -5.5      1.411      2.565
REMARK  Name = NuBBE_1745
REMARK  3 active torsions:
REMARK  status: ('A' for Active; 'I' for Inactive)
REMARK    1  A    between atoms: C_1  and  C_2
REMARK    2  A    between atoms: C_4  and  C_5
REMARK    3  A    between atoms: C_4  and  C_6
REMARK                            x       y       z     vdW  Elec       q    Type
REMARK                         _______ _______ _______ _____ _____    ______ ____
ROOT
ATOM      1  C   LIG A   1     -10.873   7.579 126.336  0.00  0.00    +0.041 C 
ATOM      2  C   LIG A   1     -11.577   7.476 127.685  0.00  0.00    +0.068 C 
ATOM      3  O   LIG A   1     -10.799   6.590 128.515  0.00  0.00    -0.367 OA
ATOM      4  C   LIG A   1     -11.355   6.399 129.834  0.00  0.00    +0.068 C 
ATOM      5  C   LIG A   1     -11.597   4.892 130.013  0.00  0.00    +0.041 C 
ATOM      6  C   LIG A   1     -10.282   6.827 130.847  0.00  0.00    +0.041 C 
ATOM      7  C   LIG A   1     -12.667   7.226 129.985  0.00  0.00    +0.021 C 
ATOM      8  C   LIG A   1     -13.670   6.796 128.897  0.00  0.00    +0.009 C 
ATOM      9  C   LIG A   1     -12.989   6.881 127.527  0.00  0.00    +0.035 C 
ATOM     10  C   LIG A   1     -12.366   8.714 129.724  0.00  0.00    +0.009 C 
ATOM     11  C   LIG A   1     -11.650   8.851 128.376  0.00  0.00    +0.035 C 
ENDROOT
TORSDOF 0
ENDMDL
MODEL 4
REMARK VINA RESULT:      -5.3      1.464      3.309
REMARK  Name = NuBBE_1745
REMARK  3 active torsions:
REMARK  status: ('A' for Active; 'I' for Inactive)
REMARK    1  A    between atoms: C_1  and  C_2
REMARK    2  A    between atoms: C_4  and  C_5
REMARK    3  A    between atoms: C_4  and  C_6
REMARK                            x       y       z     vdW  Elec       q    Type
REMARK                         _______ _______ _______ _____ _____    ______ ____
ROOT
ATOM      1  C   LIG A   1     -11.205   4.852 130.348  0.00  0.00    +0.041 C 
ATOM      2  C   LIG A   1     -11.407   6.241 129.750  0.00  0.00    +0.068 C 
ATOM      3  O   LIG A   1     -12.108   6.079 128.501  0.00  0.00    -0.367 OA
ATOM      4  C   LIG A   1     -12.368   7.325 127.819  0.00  0.00    +0.068 C 
ATOM      5  C   LIG A   1     -11.717   7.229 126.430  0.00  0.00    +0.041 C 
ATOM      6  C   LIG A   1     -13.888   7.427 127.621  0.00  0.00    +0.041 C 
ATOM      7  C   LIG A   1     -11.803   8.516 128.650  0.00  0.00    +0.021 C 
ATOM      8  C   LIG A   1     -10.292   8.314 128.871  0.00  0.00    +0.009 C 
ATOM      9  C   LIG A   1     -10.055   6.922 129.465  0.00  0.00    +0.035 C 
ATOM     10  C   LIG A   1     -12.444   8.510 130.052  0.00  0.00    +0.009 C 
ATOM     11  C   LIG A   1     -12.265   7.123 130.678  0.00  0.00    +0.035 C 
ENDROOT
TORSDOF 0
ENDMDL
MODEL 5
REMARK VINA RESULT:      -5.3      1.232      2.980
REMARK  Name = NuBBE_1745
REMARK  3 active torsions:
REMARK  status: ('A' for Active; 'I' for Inactive)
REMARK    1  A    between atoms: C_1  and  C_2
REMARK    2  A    between atoms: C_4  and  C_5
REMARK    3  A    between atoms: C_4  and  C_6
REMARK                            x       y       z     vdW  Elec       q    Type
REMARK                         _______ _______ _______ _____ _____    ______ ____
ROOT
ATOM      1  C   LIG A   1     -11.737   5.143 130.235  0.00  0.00    +0.041 C 
ATOM      2  C   LIG A   1     -12.094   6.454 129.543  0.00  0.00    +0.068 C 
ATOM      3  O   LIG A   1     -10.971   6.833 128.723  0.00  0.00    -0.367 OA
ATOM      4  C   LIG A   1     -11.172   8.069 128.003  0.00  0.00    +0.068 C 
ATOM      5  C   LIG A   1     -10.042   9.025 128.414  0.00  0.00    +0.041 C 
ATOM      6  C   LIG A   1     -11.005   7.757 126.508  0.00  0.00    +0.041 C 
ATOM      7  C   LIG A   1     -12.580   8.651 128.328  0.00  0.00    +0.021 C 
ATOM      8  C   LIG A   1     -12.705   8.873 129.847  0.00  0.00    +0.009 C 
ATOM      9  C   LIG A   1     -12.344   7.573 130.573  0.00  0.00    +0.035 C 
ATOM     10  C   LIG A   1     -13.660   7.615 127.958  0.00  0.00    +0.009 C 
ATOM     11  C   LIG A   1     -13.325   6.281 128.633  0.00  0.00    +0.035 C 
ENDROOT
TORSDOF 0
ENDMDL
MODEL 6
REMARK VINA RESULT:      -5.2     10.722     12.217
REMARK  Name = NuBBE_1745
REMARK  3 active torsions:
REMARK  status: ('A' for Active; 'I' for Inactive)
REMARK    1  A    between atoms: C_1  and  C_2
REMARK    2  A    between atoms: C_4  and  C_5
REMARK    3  A    between atoms: C_4  and  C_6
REMARK                            x       y       z     vdW  Elec       q    Type
REMARK                         _______ _______ _______ _____ _____    ______ ____
ROOT
ATOM      1  C   LIG A   1      -9.012  -3.541 126.913  0.00  0.00    +0.041 C 
ATOM      2  C   LIG A   1      -8.517  -2.768 125.695  0.00  0.00    +0.068 C 
ATOM      3  O   LIG A   1      -7.077  -2.831 125.695  0.00  0.00    -0.367 OA
ATOM      4  C   LIG A   1      -6.468  -2.135 124.586  0.00  0.00    +0.068 C 
ATOM      5  C   LIG A   1      -5.523  -1.077 125.177  0.00  0.00    +0.041 C 
ATOM      6  C   LIG A   1      -5.613  -3.156 123.822  0.00  0.00    +0.041 C 
ATOM      7  C   LIG A   1      -7.570  -1.500 123.686  0.00  0.00    +0.021 C 
ATOM      8  C   LIG A   1      -8.433  -0.543 124.531  0.00  0.00    +0.009 C 
ATOM      9  C   LIG A   1      -8.940  -1.289 125.769  0.00  0.00    +0.035 C 
ATOM     10  C   LIG A   1      -8.521  -2.605 123.187  0.00  0.00    +0.009 C 
ATOM     11  C   LIG A   1      -9.031  -3.406 124.389  0.00  0.00    +0.035 C 
ENDROOT
TORSDOF 0
ENDMDL
MODEL 7
REMARK VINA RESULT:      -5.1      2.570      3.972
REMARK  Name = NuBBE_1745
REMARK  3 active torsions:
REMARK  status: ('A' for Active; 'I' for Inactive)
REMARK    1  A    between atoms: C_1  and  C_2
REMARK    2  A    between atoms: C_4  and  C_5
REMARK    3  A    between atoms: C_4  and  C_6
REMARK                            x       y       z     vdW  Elec       q    Type
REMARK                         _______ _______ _______ _____ _____    ______ ____
ROOT
ATOM      1  C   LIG A   1     -12.736   6.608 129.114  0.00  0.00    +0.041 C 
ATOM      2  C   LIG A   1     -11.476   6.378 129.943  0.00  0.00    +0.068 C 
ATOM      3  O   LIG A   1     -10.956   5.080 129.592  0.00  0.00    -0.367 OA
ATOM      4  C   LIG A   1      -9.752   4.728 130.308  0.00  0.00    +0.068 C 
ATOM      5  C   LIG A   1     -10.034   3.415 131.055  0.00  0.00    +0.041 C 
ATOM      6  C   LIG A   1      -8.664   4.450 129.261  0.00  0.00    +0.041 C 
ATOM      7  C   LIG A   1      -9.352   5.880 131.278  0.00  0.00    +0.021 C 
ATOM      8  C   LIG A   1     -10.514   6.154 132.253  0.00  0.00    +0.009 C 
ATOM      9  C   LIG A   1     -11.798   6.382 131.450  0.00  0.00    +0.035 C 
ATOM     10  C   LIG A   1      -9.155   7.180 130.474  0.00  0.00    +0.009 C 
ATOM     11  C   LIG A   1     -10.402   7.436 129.623  0.00  0.00    +0.035 C 
ENDROOT
TORSDOF 0
ENDMDL
MODEL 8
REMARK VINA RESULT:      -5.1     10.575     11.833
REMARK  Name = NuBBE_1745
REMARK  3 active torsions:
REMARK  status: ('A' for Active; 'I' for Inactive)
REMARK    1  A    between atoms: C_1  and  C_2
REMARK    2  A    between atoms: C_4  and  C_5
REMARK    3  A    between atoms: C_4  and  C_6
REMARK                            x       y       z     vdW  Elec       q    Type
REMARK                         _______ _______ _______ _____ _____    ______ ____
ROOT
ATOM      1  C   LIG A   1      -8.638   0.239 123.448  0.00  0.00    +0.041 C 
ATOM      2  C   LIG A   1      -8.449  -1.095 124.165  0.00  0.00    +0.068 C 
ATOM      3  O   LIG A   1      -7.031  -1.311 124.315  0.00  0.00    -0.367 OA
ATOM      4  C   LIG A   1      -6.703  -2.548 124.983  0.00  0.00    +0.068 C 
ATOM      5  C   LIG A   1      -5.812  -3.359 124.030  0.00  0.00    +0.041 C 
ATOM      6  C   LIG A   1      -5.865  -2.189 126.219  0.00  0.00    +0.041 C 
ATOM      7  C   LIG A   1      -8.007  -3.312 125.360  0.00  0.00    +0.021 C 
ATOM      8  C   LIG A   1      -8.832  -3.577 124.085  0.00  0.00    +0.009 C 
ATOM      9  C   LIG A   1      -9.033  -2.255 123.337  0.00  0.00    +0.035 C 
ATOM     10  C   LIG A   1      -8.884  -2.417 126.257  0.00  0.00    +0.009 C 
ATOM     11  C   LIG A   1      -9.087  -1.064 125.567  0.00  0.00    +0.035 C 
ENDROOT
TORSDOF 0
ENDMDL
MODEL 9
REMARK VINA RESULT:      -5.0     10.603     12.317
REMARK  Name = NuBBE_1745
REMARK  3 active torsions:
REMARK  status: ('A' for Active; 'I' for Inactive)
REMARK    1  A    between atoms: C_1  and  C_2
REMARK    2  A    between atoms: C_4  and  C_5
REMARK    3  A    between atoms: C_4  and  C_6
REMARK                            x       y       z     vdW  Elec       q    Type
REMARK                         _______ _______ _______ _____ _____    ______ ____
ROOT
ATOM      1  C   LIG A   1      -7.269   0.698 125.455  0.00  0.00    +0.041 C 
ATOM      2  C   LIG A   1      -7.019  -0.645 124.775  0.00  0.00    +0.068 C 
ATOM      3  O   LIG A   1      -8.195  -1.456 124.970  0.00  0.00    -0.367 OA
ATOM      4  C   LIG A   1      -8.097  -2.767 124.373  0.00  0.00    +0.068 C 
ATOM      5  C   LIG A   1      -8.303  -3.796 125.496  0.00  0.00    +0.041 C 
ATOM      6  C   LIG A   1      -9.266  -2.907 123.387  0.00  0.00    +0.041 C 
ATOM      7  C   LIG A   1      -6.715  -2.932 123.673  0.00  0.00    +0.021 C 
ATOM      8  C   LIG A   1      -5.590  -2.710 124.702  0.00  0.00    +0.009 C 
ATOM      9  C   LIG A   1      -5.817  -1.370 125.409  0.00  0.00    +0.035 C 
ATOM     10  C   LIG A   1      -6.546  -1.829 122.610  0.00  0.00    +0.009 C 
ATOM     11  C   LIG A   1      -6.798  -0.465 123.261  0.00  0.00    +0.035 C 
ENDROOT
TORSDOF 0
ENDMDL
