MODEL 1
REMARK VINA RESULT:      -7.8      0.000      0.000
REMARK  Name = NuBBE_1469
REMARK  12 active torsions:
REMARK  status: ('A' for Active; 'I' for Inactive)
REMARK    1  A    between atoms: C_1  and  C_2
REMARK    2  A    between atoms: C_5  and  C_23
REMARK    3  A    between atoms: C_6  and  C_14
REMARK    4  A    between atoms: C_10  and  O_12
REMARK    5  A    between atoms: C_24  and  C_42
REMARK    6  A    between atoms: C_29  and  C_30
REMARK    7  A    between atoms: C_29  and  C_40
REMARK    8  A    between atoms: C_31  and  C_33
REMARK    9  A    between atoms: C_33  and  O_35
REMARK   10  A    between atoms: C_33  and  C_36
REMARK   11  A    between atoms: C_36  and  O_37
REMARK   12  A    between atoms: O_37  and  C_38
REMARK                            x       y       z     vdW  Elec       q    Type
REMARK                         _______ _______ _______ _____ _____    ______ ____
ROOT
ATOM      1  C   LIG A   1      -3.870   2.308 126.299  0.00  0.00    +0.057 C 
ATOM      2  C   LIG A   1      -5.001   2.645 127.217  0.00  0.00    +0.124 C 
ATOM      3  C   LIG A   1      -5.503   4.040 127.553  0.00  0.00    +0.036 C 
ATOM      4  C   LIG A   1      -6.418   3.026 126.787  0.00  0.00    +0.066 C 
ATOM      5  C   LIG A   1      -6.769   3.702 125.436  0.00  0.00    +0.022 C 
ATOM      6  C   LIG A   1      -6.774   2.587 124.370  0.00  0.00    +0.216 C 
ATOM      7  O   LIG A   1      -7.733   1.556 124.710  0.00  0.00    -0.454 OA
ATOM      8  C   LIG A   1      -7.975   1.153 125.979  0.00  0.00    +0.337 C 
ATOM      9  C   LIG A   1      -7.449   1.983 127.170  0.00  0.00    +0.234 C 
ATOM     10  O   LIG A   1      -8.739   0.209 126.187  0.00  0.00    -0.248 OA
ATOM     11  C   LIG A   1      -5.688   4.781 125.225  0.00  0.00    +0.012 C 
ATOM     12  C   LIG A   1      -5.277   5.226 126.629  0.00  0.00    +0.013 C 
ATOM     13  C   LIG A   1      -8.129   4.440 125.534  0.00  0.00    +0.016 C 
ATOM     14  C   LIG A   1      -5.081   4.202 129.029  0.00  0.00    +0.042 C 
ATOM     15  C   LIG A   1      -4.834   2.795 129.493  0.00  0.00    +0.109 C 
ATOM     16  O   LIG A   1      -4.861   1.875 128.462  0.00  0.00    -0.488 OA
ATOM     17  C   LIG A   1      -4.621   2.467 130.769  0.00  0.00    +0.088 C 
ATOM     18  C   LIG A   1      -4.595   3.572 131.754  0.00  0.00    +0.165 C 
ATOM     19  C   LIG A   1      -5.485   4.826 131.538  0.00  0.00    +0.034 C 
ATOM     20  C   LIG A   1      -6.518   4.741 132.688  0.00  0.00    +0.019 C 
ATOM     21  C   LIG A   1      -6.059   4.926 130.041  0.00  0.00    +0.056 C 
ATOM     22  C   LIG A   1      -4.667   6.113 131.844  0.00  0.00    +0.019 C 
ATOM     23  O   LIG A   1      -3.874   3.437 132.744  0.00  0.00    -0.292 OA
ATOM     24  C   LIG A   1      -3.681   4.901 129.021  0.00  0.00    +0.020 C 
ENDROOT
BRANCH   6  25
ATOM     25  C   LIG A   1      -6.999   3.063 122.961  0.00  0.00    +0.031 A 
ATOM     26  C   LIG A   1      -6.007   3.474 122.016  0.00  0.00    +0.048 A 
ATOM     27  C   LIG A   1      -6.671   3.786 120.854  0.00  0.00    +0.195 A 
ATOM     28  O   LIG A   1      -8.005   3.595 121.009  0.00  0.00    -0.471 OA
ATOM     29  C   LIG A   1      -8.196   3.148 122.275  0.00  0.00    +0.202 A 
ENDBRANCH   6  25
BRANCH   9  30
ATOM     30  O   LIG A   1      -8.600   2.594 127.775  0.00  0.00    -0.380 OA
ATOM     31  H   LIG A   1      -8.551   2.356 128.724  0.00  0.00    +0.210 HD
ENDBRANCH   9  30
BRANCH  21  32
ATOM     32  C   LIG A   1      -7.528   4.443 129.882  0.00  0.00    +0.227 C 
BRANCH  32  33
ATOM     33  O   LIG A   1      -7.788   3.388 130.801  0.00  0.00    -0.380 OA
ATOM     34  H   LIG A   1      -7.018   2.792 130.718  0.00  0.00    +0.210 HD
ENDBRANCH  32  33
BRANCH  32  35
ATOM     35  C   LIG A   1      -8.588   5.528 129.918  0.00  0.00    +0.336 C 
ATOM     36  O   LIG A   1      -8.391   6.688 130.264  0.00  0.00    -0.248 OA
BRANCH  35  37
ATOM     37  O   LIG A   1      -9.768   5.029 129.442  0.00  0.00    -0.466 OA
ATOM     38  C   LIG A   1     -10.892   5.036 130.335  0.00  0.00    +0.280 C 
ENDBRANCH  35  37
ENDBRANCH  32  35
ENDBRANCH  21  32
TORSDOF 6
ENDMDL
MODEL 2
REMARK VINA RESULT:      -7.8      2.880      7.144
REMARK  Name = NuBBE_1469
REMARK  12 active torsions:
REMARK  status: ('A' for Active; 'I' for Inactive)
REMARK    1  A    between atoms: C_1  and  C_2
REMARK    2  A    between atoms: C_5  and  C_23
REMARK    3  A    between atoms: C_6  and  C_14
REMARK    4  A    between atoms: C_10  and  O_12
REMARK    5  A    between atoms: C_24  and  C_42
REMARK    6  A    between atoms: C_29  and  C_30
REMARK    7  A    between atoms: C_29  and  C_40
REMARK    8  A    between atoms: C_31  and  C_33
REMARK    9  A    between atoms: C_33  and  O_35
REMARK   10  A    between atoms: C_33  and  C_36
REMARK   11  A    between atoms: C_36  and  O_37
REMARK   12  A    between atoms: O_37  and  C_38
REMARK                            x       y       z     vdW  Elec       q    Type
REMARK                         _______ _______ _______ _____ _____    ______ ____
ROOT
ATOM      1  C   LIG A   1      -7.014   3.524 125.678  0.00  0.00    +0.057 C 
ATOM      2  C   LIG A   1      -7.067   2.319 126.560  0.00  0.00    +0.124 C 
ATOM      3  C   LIG A   1      -6.052   1.187 126.600  0.00  0.00    +0.036 C 
ATOM      4  C   LIG A   1      -6.263   2.115 127.845  0.00  0.00    +0.066 C 
ATOM      5  C   LIG A   1      -4.887   2.772 128.127  0.00  0.00    +0.022 C 
ATOM      6  C   LIG A   1      -5.169   4.223 128.566  0.00  0.00    +0.216 C 
ATOM      7  O   LIG A   1      -6.018   4.249 129.740  0.00  0.00    -0.454 OA
ATOM      8  C   LIG A   1      -7.023   3.367 129.951  0.00  0.00    +0.337 C 
ATOM      9  C   LIG A   1      -7.133   2.093 129.086  0.00  0.00    +0.234 C 
ATOM     10  O   LIG A   1      -7.762   3.503 130.929  0.00  0.00    -0.248 OA
ATOM     11  C   LIG A   1      -4.094   2.647 126.810  0.00  0.00    +0.012 C 
ATOM     12  C   LIG A   1      -4.614   1.373 126.142  0.00  0.00    +0.013 C 
ATOM     13  C   LIG A   1      -4.108   1.966 129.199  0.00  0.00    +0.016 C 
ATOM     14  C   LIG A   1      -6.841   0.007 125.996  0.00  0.00    +0.042 C 
ATOM     15  C   LIG A   1      -8.277   0.429 126.117  0.00  0.00    +0.109 C 
ATOM     16  O   LIG A   1      -8.420   1.744 126.517  0.00  0.00    -0.488 OA
ATOM     17  C   LIG A   1      -9.307  -0.384 125.874  0.00  0.00    +0.088 C 
ATOM     18  C   LIG A   1      -8.990  -1.759 125.426  0.00  0.00    +0.165 C 
ATOM     19  C   LIG A   1      -7.703  -2.464 125.936  0.00  0.00    +0.034 C 
ATOM     20  C   LIG A   1      -8.244  -3.612 126.821  0.00  0.00    +0.019 C 
ATOM     21  C   LIG A   1      -6.665  -1.441 126.611  0.00  0.00    +0.056 C 
ATOM     22  C   LIG A   1      -6.993  -3.184 124.754  0.00  0.00    +0.019 C 
ATOM     23  O   LIG A   1      -9.792  -2.314 124.674  0.00  0.00    -0.292 OA
ATOM     24  C   LIG A   1      -6.527  -0.005 124.463  0.00  0.00    +0.020 C 
ENDROOT
BRANCH   6  25
ATOM     25  C   LIG A   1      -3.943   5.064 128.792  0.00  0.00    +0.031 A 
ATOM     26  C   LIG A   1      -3.267   5.886 127.837  0.00  0.00    +0.048 A 
ATOM     27  C   LIG A   1      -2.228   6.493 128.501  0.00  0.00    +0.195 A 
ATOM     28  O   LIG A   1      -2.212   6.109 129.801  0.00  0.00    -0.471 OA
ATOM     29  C   LIG A   1      -3.253   5.258 129.975  0.00  0.00    +0.202 A 
ENDBRANCH   6  25
BRANCH   9  30
ATOM     30  O   LIG A   1      -6.783   0.994 129.941  0.00  0.00    -0.380 OA
ATOM     31  H   LIG A   1      -7.468   0.312 129.779  0.00  0.00    +0.210 HD
ENDBRANCH   9  30
BRANCH  21  32
ATOM     32  C   LIG A   1      -6.699  -1.425 128.166  0.00  0.00    +0.227 C 
BRANCH  32  33
ATOM     33  O   LIG A   1      -8.044  -1.524 128.617  0.00  0.00    -0.380 OA
ATOM     34  H   LIG A   1      -8.388  -0.610 128.574  0.00  0.00    +0.210 HD
ENDBRANCH  32  33
BRANCH  32  35
ATOM     35  C   LIG A   1      -5.773  -2.408 128.857  0.00  0.00    +0.336 C 
ATOM     36  O   LIG A   1      -4.620  -2.644 128.514  0.00  0.00    -0.248 OA
BRANCH  35  37
ATOM     37  O   LIG A   1      -6.399  -2.930 129.954  0.00  0.00    -0.466 OA
ATOM     38  C   LIG A   1      -6.008  -4.247 130.369  0.00  0.00    +0.280 C 
ENDBRANCH  35  37
ENDBRANCH  32  35
ENDBRANCH  21  32
TORSDOF 6
ENDMDL
MODEL 3
REMARK VINA RESULT:      -7.6      2.676      7.430
REMARK  Name = NuBBE_1469
REMARK  12 active torsions:
REMARK  status: ('A' for Active; 'I' for Inactive)
REMARK    1  A    between atoms: C_1  and  C_2
REMARK    2  A    between atoms: C_5  and  C_23
REMARK    3  A    between atoms: C_6  and  C_14
REMARK    4  A    between atoms: C_10  and  O_12
REMARK    5  A    between atoms: C_24  and  C_42
REMARK    6  A    between atoms: C_29  and  C_30
REMARK    7  A    between atoms: C_29  and  C_40
REMARK    8  A    between atoms: C_31  and  C_33
REMARK    9  A    between atoms: C_33  and  O_35
REMARK   10  A    between atoms: C_33  and  C_36
REMARK   11  A    between atoms: C_36  and  O_37
REMARK   12  A    between atoms: O_37  and  C_38
REMARK                            x       y       z     vdW  Elec       q    Type
REMARK                         _______ _______ _______ _____ _____    ______ ____
ROOT
ATOM      1  C   LIG A   1      -5.116  -0.366 129.201  0.00  0.00    +0.057 C 
ATOM      2  C   LIG A   1      -5.651  -0.012 127.851  0.00  0.00    +0.124 C 
ATOM      3  C   LIG A   1      -7.115   0.163 127.481  0.00  0.00    +0.036 C 
ATOM      4  C   LIG A   1      -6.124   1.374 127.412  0.00  0.00    +0.066 C 
ATOM      5  C   LIG A   1      -6.694   2.448 128.375  0.00  0.00    +0.022 C 
ATOM      6  C   LIG A   1      -5.484   3.109 129.068  0.00  0.00    +0.216 C 
ATOM      7  O   LIG A   1      -4.591   3.696 128.091  0.00  0.00    -0.454 OA
ATOM      8  C   LIG A   1      -4.342   3.141 126.881  0.00  0.00    +0.337 C 
ATOM      9  C   LIG A   1      -5.231   1.994 126.356  0.00  0.00    +0.234 C 
ATOM     10  O   LIG A   1      -3.502   3.649 126.136  0.00  0.00    -0.248 OA
ATOM     11  C   LIG A   1      -7.636   1.685 129.329  0.00  0.00    +0.012 C 
ATOM     12  C   LIG A   1      -8.176   0.510 128.513  0.00  0.00    +0.013 C 
ATOM     13  C   LIG A   1      -7.567   3.467 127.599  0.00  0.00    +0.016 C 
ATOM     14  C   LIG A   1      -7.381  -1.059 126.575  0.00  0.00    +0.042 C 
ATOM     15  C   LIG A   1      -6.010  -1.506 126.156  0.00  0.00    +0.109 C 
ATOM     16  O   LIG A   1      -4.999  -0.852 126.835  0.00  0.00    -0.488 OA
ATOM     17  C   LIG A   1      -5.791  -2.431 125.220  0.00  0.00    +0.088 C 
ATOM     18  C   LIG A   1      -6.980  -3.061 124.602  0.00  0.00    +0.165 C 
ATOM     19  C   LIG A   1      -8.288  -2.241 124.424  0.00  0.00    +0.034 C 
ATOM     20  C   LIG A   1      -8.418  -2.097 122.889  0.00  0.00    +0.019 C 
ATOM     21  C   LIG A   1      -8.294  -0.891 125.293  0.00  0.00    +0.056 C 
ATOM     22  C   LIG A   1      -9.512  -3.106 124.839  0.00  0.00    +0.019 C 
ATOM     23  O   LIG A   1      -6.874  -4.227 124.220  0.00  0.00    -0.292 OA
ATOM     24  C   LIG A   1      -7.935  -2.191 127.501  0.00  0.00    +0.020 C 
ENDROOT
BRANCH   6  25
ATOM     25  C   LIG A   1      -5.837   4.120 130.125  0.00  0.00    +0.031 A 
ATOM     26  C   LIG A   1      -6.224   3.862 131.477  0.00  0.00    +0.048 A 
ATOM     27  C   LIG A   1      -6.410   5.085 132.077  0.00  0.00    +0.195 A 
ATOM     28  O   LIG A   1      -6.164   6.084 131.193  0.00  0.00    -0.471 OA
ATOM     29  C   LIG A   1      -5.809   5.499 130.023  0.00  0.00    +0.202 A 
ENDBRANCH   6  25
BRANCH   9  30
ATOM     30  O   LIG A   1      -6.008   2.545 125.282  0.00  0.00    -0.380 OA
ATOM     31  H   LIG A   1      -6.943   2.394 125.535  0.00  0.00    +0.210 HD
ENDBRANCH   9  30
BRANCH  21  32
ATOM     32  C   LIG A   1      -7.943   0.393 124.489  0.00  0.00    +0.227 C 
BRANCH  32  33
ATOM     33  O   LIG A   1      -6.992   0.080 123.478  0.00  0.00    -0.380 OA
ATOM     34  H   LIG A   1      -6.739  -0.848 123.655  0.00  0.00    +0.210 HD
ENDBRANCH  32  33
BRANCH  32  35
ATOM     35  C   LIG A   1      -9.125   1.184 123.958  0.00  0.00    +0.336 C 
ATOM     36  O   LIG A   1     -10.246   0.725 123.768  0.00  0.00    -0.248 OA
BRANCH  35  37
ATOM     37  O   LIG A   1      -8.762   2.491 123.795  0.00  0.00    -0.466 OA
ATOM     38  C   LIG A   1      -8.574   2.958 122.451  0.00  0.00    +0.280 C 
ENDBRANCH  35  37
ENDBRANCH  32  35
ENDBRANCH  21  32
TORSDOF 6
ENDMDL
MODEL 4
REMARK VINA RESULT:      -7.6      2.351      4.308
REMARK  Name = NuBBE_1469
REMARK  12 active torsions:
REMARK  status: ('A' for Active; 'I' for Inactive)
REMARK    1  A    between atoms: C_1  and  C_2
REMARK    2  A    between atoms: C_5  and  C_23
REMARK    3  A    between atoms: C_6  and  C_14
REMARK    4  A    between atoms: C_10  and  O_12
REMARK    5  A    between atoms: C_24  and  C_42
REMARK    6  A    between atoms: C_29  and  C_30
REMARK    7  A    between atoms: C_29  and  C_40
REMARK    8  A    between atoms: C_31  and  C_33
REMARK    9  A    between atoms: C_33  and  O_35
REMARK   10  A    between atoms: C_33  and  C_36
REMARK   11  A    between atoms: C_36  and  O_37
REMARK   12  A    between atoms: O_37  and  C_38
REMARK                            x       y       z     vdW  Elec       q    Type
REMARK                         _______ _______ _______ _____ _____    ______ ____
ROOT
ATOM      1  C   LIG A   1      -8.281   1.682 129.814  0.00  0.00    +0.057 C 
ATOM      2  C   LIG A   1      -7.309   2.740 129.402  0.00  0.00    +0.124 C 
ATOM      3  C   LIG A   1      -5.816   2.553 129.183  0.00  0.00    +0.036 C 
ATOM      4  C   LIG A   1      -6.755   2.944 127.991  0.00  0.00    +0.066 C 
ATOM      5  C   LIG A   1      -6.604   1.814 126.940  0.00  0.00    +0.022 C 
ATOM      6  C   LIG A   1      -8.002   1.587 126.329  0.00  0.00    +0.216 C 
ATOM      7  O   LIG A   1      -8.503   2.806 125.727  0.00  0.00    -0.454 OA
ATOM      8  C   LIG A   1      -8.283   4.037 126.245  0.00  0.00    +0.337 C 
ATOM      9  C   LIG A   1      -7.229   4.235 127.355  0.00  0.00    +0.234 C 
ATOM     10  O   LIG A   1      -8.815   5.022 125.729  0.00  0.00    -0.248 OA
ATOM     11  C   LIG A   1      -6.043   0.605 127.715  0.00  0.00    +0.012 C 
ATOM     12  C   LIG A   1      -5.209   1.200 128.850  0.00  0.00    +0.013 C 
ATOM     13  C   LIG A   1      -5.543   2.198 125.877  0.00  0.00    +0.016 C 
ATOM     14  C   LIG A   1      -5.204   3.333 130.367  0.00  0.00    +0.042 C 
ATOM     15  C   LIG A   1      -6.317   4.228 130.828  0.00  0.00    +0.109 C 
ATOM     16  O   LIG A   1      -7.525   3.942 130.219  0.00  0.00    -0.488 OA
ATOM     17  C   LIG A   1      -6.156   5.203 131.724  0.00  0.00    +0.088 C 
ATOM     18  C   LIG A   1      -4.804   5.366 132.307  0.00  0.00    +0.165 C 
ATOM     19  C   LIG A   1      -3.547   5.042 131.455  0.00  0.00    +0.034 C 
ATOM     20  C   LIG A   1      -2.879   6.423 131.254  0.00  0.00    +0.019 C 
ATOM     21  C   LIG A   1      -3.897   4.195 130.135  0.00  0.00    +0.056 C 
ATOM     22  C   LIG A   1      -2.526   4.235 132.307  0.00  0.00    +0.019 C 
ATOM     23  O   LIG A   1      -4.728   5.790 133.461  0.00  0.00    -0.292 OA
ATOM     24  C   LIG A   1      -4.983   2.297 131.518  0.00  0.00    +0.020 C 
ENDROOT
BRANCH   6  25
ATOM     25  C   LIG A   1      -8.084   0.450 125.348  0.00  0.00    +0.031 A 
ATOM     26  C   LIG A   1      -8.475  -0.899 125.616  0.00  0.00    +0.048 A 
ATOM     27  C   LIG A   1      -8.438  -1.569 124.415  0.00  0.00    +0.195 A 
ATOM     28  O   LIG A   1      -8.055  -0.730 123.421  0.00  0.00    -0.471 OA
ATOM     29  C   LIG A   1      -7.855   0.487 123.985  0.00  0.00    +0.202 A 
ENDBRANCH   6  25
BRANCH   9  30
ATOM     30  O   LIG A   1      -6.136   4.943 126.750  0.00  0.00    -0.380 OA
ATOM     31  H   LIG A   1      -6.486   5.835 126.545  0.00  0.00    +0.210 HD
ENDBRANCH   9  30
BRANCH  21  32
ATOM     32  C   LIG A   1      -3.976   5.040 128.833  0.00  0.00    +0.227 C 
BRANCH  32  33
ATOM     33  O   LIG A   1      -4.684   6.248 129.087  0.00  0.00    -0.380 OA
ATOM     34  H   LIG A   1      -5.009   6.534 128.211  0.00  0.00    +0.210 HD
ENDBRANCH  32  33
BRANCH  32  35
ATOM     35  C   LIG A   1      -2.660   5.271 128.113  0.00  0.00    +0.336 C 
ATOM     36  O   LIG A   1      -2.171   6.371 127.884  0.00  0.00    -0.248 OA
BRANCH  35  37
ATOM     37  O   LIG A   1      -2.081   4.067 127.827  0.00  0.00    -0.466 OA
ATOM     38  C   LIG A   1      -2.234   3.565 126.491  0.00  0.00    +0.280 C 
ENDBRANCH  35  37
ENDBRANCH  32  35
ENDBRANCH  21  32
TORSDOF 6
ENDMDL
MODEL 5
REMARK VINA RESULT:      -7.6      3.567      5.601
REMARK  Name = NuBBE_1469
REMARK  12 active torsions:
REMARK  status: ('A' for Active; 'I' for Inactive)
REMARK    1  A    between atoms: C_1  and  C_2
REMARK    2  A    between atoms: C_5  and  C_23
REMARK    3  A    between atoms: C_6  and  C_14
REMARK    4  A    between atoms: C_10  and  O_12
REMARK    5  A    between atoms: C_24  and  C_42
REMARK    6  A    between atoms: C_29  and  C_30
REMARK    7  A    between atoms: C_29  and  C_40
REMARK    8  A    between atoms: C_31  and  C_33
REMARK    9  A    between atoms: C_33  and  O_35
REMARK   10  A    between atoms: C_33  and  C_36
REMARK   11  A    between atoms: C_36  and  O_37
REMARK   12  A    between atoms: O_37  and  C_38
REMARK                            x       y       z     vdW  Elec       q    Type
REMARK                         _______ _______ _______ _____ _____    ______ ____
ROOT
ATOM      1  C   LIG A   1      -6.323   1.470 133.110  0.00  0.00    +0.057 C 
ATOM      2  C   LIG A   1      -6.090   2.570 132.127  0.00  0.00    +0.124 C 
ATOM      3  C   LIG A   1      -4.884   2.720 131.213  0.00  0.00    +0.036 C 
ATOM      4  C   LIG A   1      -6.312   2.482 130.616  0.00  0.00    +0.066 C 
ATOM      5  C   LIG A   1      -6.219   1.170 129.795  0.00  0.00    +0.022 C 
ATOM      6  C   LIG A   1      -7.549   0.418 130.007  0.00  0.00    +0.216 C 
ATOM      7  O   LIG A   1      -8.671   1.229 129.582  0.00  0.00    -0.454 OA
ATOM      8  C   LIG A   1      -8.725   2.572 129.748  0.00  0.00    +0.337 C 
ATOM      9  C   LIG A   1      -7.454   3.357 130.137  0.00  0.00    +0.234 C 
ATOM     10  O   LIG A   1      -9.749   3.186 129.443  0.00  0.00    -0.248 OA
ATOM     11  C   LIG A   1      -4.977   0.434 130.337  0.00  0.00    +0.012 C 
ATOM     12  C   LIG A   1      -4.025   1.535 130.805  0.00  0.00    +0.013 C 
ATOM     13  C   LIG A   1      -5.942   1.481 128.301  0.00  0.00    +0.016 C 
ATOM     14  C   LIG A   1      -4.161   3.947 131.810  0.00  0.00    +0.042 C 
ATOM     15  C   LIG A   1      -5.214   4.619 132.644  0.00  0.00    +0.109 C 
ATOM     16  O   LIG A   1      -6.364   3.863 132.771  0.00  0.00    -0.488 OA
ATOM     17  C   LIG A   1      -5.058   5.824 133.196  0.00  0.00    +0.088 C 
ATOM     18  C   LIG A   1      -3.755   6.496 132.991  0.00  0.00    +0.165 C 
ATOM     19  C   LIG A   1      -2.963   6.270 131.675  0.00  0.00    +0.034 C 
ATOM     20  C   LIG A   1      -3.010   7.652 130.981  0.00  0.00    +0.019 C 
ATOM     21  C   LIG A   1      -3.503   5.009 130.839  0.00  0.00    +0.056 C 
ATOM     22  C   LIG A   1      -1.458   6.046 131.997  0.00  0.00    +0.019 C 
ATOM     23  O   LIG A   1      -3.356   7.249 133.881  0.00  0.00    -0.292 OA
ATOM     24  C   LIG A   1      -3.103   3.395 132.821  0.00  0.00    +0.020 C 
ENDROOT
BRANCH   6  25
ATOM     25  C   LIG A   1      -7.616  -0.941 129.365  0.00  0.00    +0.031 A 
ATOM     26  C   LIG A   1      -7.620  -2.211 130.022  0.00  0.00    +0.048 A 
ATOM     27  C   LIG A   1      -7.731  -3.165 129.038  0.00  0.00    +0.195 A 
ATOM     28  O   LIG A   1      -7.798  -2.578 127.818  0.00  0.00    -0.471 OA
ATOM     29  C   LIG A   1      -7.741  -1.238 128.020  0.00  0.00    +0.202 A 
ENDBRANCH   6  25
BRANCH   9  30
ATOM     30  O   LIG A   1      -7.074   4.110 128.976  0.00  0.00    -0.380 OA
ATOM     31  H   LIG A   1      -6.398   3.564 128.522  0.00  0.00    +0.210 HD
ENDBRANCH   9  30
BRANCH  21  32
ATOM     32  C   LIG A   1      -4.439   5.377 129.653  0.00  0.00    +0.227 C 
BRANCH  32  33
ATOM     33  O   LIG A   1      -5.359   6.382 130.063  0.00  0.00    -0.380 OA
ATOM     34  H   LIG A   1      -6.207   5.910 130.176  0.00  0.00    +0.210 HD
ENDBRANCH  32  33
BRANCH  32  35
ATOM     35  C   LIG A   1      -3.747   5.712 128.344  0.00  0.00    +0.336 C 
ATOM     36  O   LIG A   1      -4.184   6.487 127.501  0.00  0.00    -0.248 OA
BRANCH  35  37
ATOM     37  O   LIG A   1      -2.541   5.074 128.290  0.00  0.00    -0.466 OA
ATOM     38  C   LIG A   1      -2.431   3.951 127.402  0.00  0.00    +0.280 C 
ENDBRANCH  35  37
ENDBRANCH  32  35
ENDBRANCH  21  32
TORSDOF 6
ENDMDL
MODEL 6
REMARK VINA RESULT:      -7.5      3.295      7.094
REMARK  Name = NuBBE_1469
REMARK  12 active torsions:
REMARK  status: ('A' for Active; 'I' for Inactive)
REMARK    1  A    between atoms: C_1  and  C_2
REMARK    2  A    between atoms: C_5  and  C_23
REMARK    3  A    between atoms: C_6  and  C_14
REMARK    4  A    between atoms: C_10  and  O_12
REMARK    5  A    between atoms: C_24  and  C_42
REMARK    6  A    between atoms: C_29  and  C_30
REMARK    7  A    between atoms: C_29  and  C_40
REMARK    8  A    between atoms: C_31  and  C_33
REMARK    9  A    between atoms: C_33  and  O_35
REMARK   10  A    between atoms: C_33  and  C_36
REMARK   11  A    between atoms: C_36  and  O_37
REMARK   12  A    between atoms: O_37  and  C_38
REMARK                            x       y       z     vdW  Elec       q    Type
REMARK                         _______ _______ _______ _____ _____    ______ ____
ROOT
ATOM      1  C   LIG A   1      -6.816   2.252 133.544  0.00  0.00    +0.057 C 
ATOM      2  C   LIG A   1      -6.531   1.726 132.175  0.00  0.00    +0.124 C 
ATOM      3  C   LIG A   1      -7.382   0.734 131.397  0.00  0.00    +0.036 C 
ATOM      4  C   LIG A   1      -7.193   2.200 130.879  0.00  0.00    +0.066 C 
ATOM      5  C   LIG A   1      -8.615   2.812 130.799  0.00  0.00    +0.022 C 
ATOM      6  C   LIG A   1      -8.491   4.284 131.243  0.00  0.00    +0.216 C 
ATOM      7  O   LIG A   1      -7.559   4.999 130.396  0.00  0.00    -0.454 OA
ATOM      8  C   LIG A   1      -6.432   4.443 129.892  0.00  0.00    +0.337 C 
ATOM      9  C   LIG A   1      -6.228   2.914 129.954  0.00  0.00    +0.234 C 
ATOM     10  O   LIG A   1      -5.639   5.136 129.252  0.00  0.00    -0.248 OA
ATOM     11  C   LIG A   1      -9.490   1.940 131.721  0.00  0.00    +0.012 C 
ATOM     12  C   LIG A   1      -8.865   0.545 131.676  0.00  0.00    +0.013 C 
ATOM     13  C   LIG A   1      -9.189   2.668 129.366  0.00  0.00    +0.016 C 
ATOM     14  C   LIG A   1      -6.496  -0.531 131.386  0.00  0.00    +0.042 C 
ATOM     15  C   LIG A   1      -5.124  -0.017 131.711  0.00  0.00    +0.109 C 
ATOM     16  O   LIG A   1      -5.123   1.311 132.096  0.00  0.00    -0.488 OA
ATOM     17  C   LIG A   1      -4.020  -0.761 131.628  0.00  0.00    +0.088 C 
ATOM     18  C   LIG A   1      -4.189  -2.176 131.226  0.00  0.00    +0.165 C 
ATOM     19  C   LIG A   1      -5.325  -2.574 130.245  0.00  0.00    +0.034 C 
ATOM     20  C   LIG A   1      -4.566  -3.018 128.972  0.00  0.00    +0.019 C 
ATOM     21  C   LIG A   1      -6.429  -1.420 130.078  0.00  0.00    +0.056 C 
ATOM     22  C   LIG A   1      -6.029  -3.866 130.750  0.00  0.00    +0.019 C 
ATOM     23  O   LIG A   1      -3.385  -2.996 131.674  0.00  0.00    -0.292 OA
ATOM     24  C   LIG A   1      -6.933  -1.394 132.616  0.00  0.00    +0.020 C 
ENDROOT
BRANCH   6  25
ATOM     25  C   LIG A   1      -9.795   5.030 131.328  0.00  0.00    +0.031 A 
ATOM     26  C   LIG A   1     -10.214   5.928 132.359  0.00  0.00    +0.048 A 
ATOM     27  C   LIG A   1     -11.454   6.397 131.996  0.00  0.00    +0.195 A 
ATOM     28  O   LIG A   1     -11.833   5.857 130.812  0.00  0.00    -0.471 OA
ATOM     29  C   LIG A   1     -10.826   5.043 130.407  0.00  0.00    +0.202 A 
ENDBRANCH   6  25
BRANCH   9  30
ATOM     30  O   LIG A   1      -6.357   2.435 128.606  0.00  0.00    -0.380 OA
ATOM     31  H   LIG A   1      -6.270   3.230 128.039  0.00  0.00    +0.210 HD
ENDBRANCH   9  30
BRANCH  21  32
ATOM     32  C   LIG A   1      -6.269  -0.559 128.793  0.00  0.00    +0.227 C 
BRANCH  32  33
ATOM     33  O   LIG A   1      -4.891  -0.447 128.460  0.00  0.00    -0.380 OA
ATOM     34  H   LIG A   1      -4.862   0.216 127.743  0.00  0.00    +0.210 HD
ENDBRANCH  32  33
BRANCH  32  35
ATOM     35  C   LIG A   1      -7.128  -0.970 127.611  0.00  0.00    +0.336 C 
ATOM     36  O   LIG A   1      -7.646  -2.073 127.472  0.00  0.00    -0.248 OA
BRANCH  35  37
ATOM     37  O   LIG A   1      -7.288   0.096 126.772  0.00  0.00    -0.466 OA
ATOM     38  C   LIG A   1      -8.630   0.445 126.401  0.00  0.00    +0.280 C 
ENDBRANCH  35  37
ENDBRANCH  32  35
ENDBRANCH  21  32
TORSDOF 6
ENDMDL
MODEL 7
REMARK VINA RESULT:      -7.5      2.846      6.693
REMARK  Name = NuBBE_1469
REMARK  12 active torsions:
REMARK  status: ('A' for Active; 'I' for Inactive)
REMARK    1  A    between atoms: C_1  and  C_2
REMARK    2  A    between atoms: C_5  and  C_23
REMARK    3  A    between atoms: C_6  and  C_14
REMARK    4  A    between atoms: C_10  and  O_12
REMARK    5  A    between atoms: C_24  and  C_42
REMARK    6  A    between atoms: C_29  and  C_30
REMARK    7  A    between atoms: C_29  and  C_40
REMARK    8  A    between atoms: C_31  and  C_33
REMARK    9  A    between atoms: C_33  and  O_35
REMARK   10  A    between atoms: C_33  and  C_36
REMARK   11  A    between atoms: C_36  and  O_37
REMARK   12  A    between atoms: O_37  and  C_38
REMARK                            x       y       z     vdW  Elec       q    Type
REMARK                         _______ _______ _______ _____ _____    ______ ____
ROOT
ATOM      1  C   LIG A   1      -9.150   4.071 133.364  0.00  0.00    +0.057 C 
ATOM      2  C   LIG A   1      -8.162   3.725 132.298  0.00  0.00    +0.124 C 
ATOM      3  C   LIG A   1      -8.426   2.867 131.071  0.00  0.00    +0.036 C 
ATOM      4  C   LIG A   1      -8.065   4.384 130.920  0.00  0.00    +0.066 C 
ATOM      5  C   LIG A   1      -9.260   5.036 130.178  0.00  0.00    +0.022 C 
ATOM      6  C   LIG A   1      -9.461   6.432 130.802  0.00  0.00    +0.216 C 
ATOM      7  O   LIG A   1      -8.260   7.230 130.673  0.00  0.00    -0.454 OA
ATOM      8  C   LIG A   1      -7.011   6.718 130.775  0.00  0.00    +0.337 C 
ATOM      9  C   LIG A   1      -6.794   5.190 130.742  0.00  0.00    +0.234 C 
ATOM     10  O   LIG A   1      -6.036   7.471 130.743  0.00  0.00    -0.248 OA
ATOM     11  C   LIG A   1     -10.446   4.071 130.381  0.00  0.00    +0.012 C 
ATOM     12  C   LIG A   1      -9.822   2.679 130.498  0.00  0.00    +0.013 C 
ATOM     13  C   LIG A   1      -8.986   5.098 128.654  0.00  0.00    +0.016 C 
ATOM     14  C   LIG A   1      -7.606   1.593 131.370  0.00  0.00    +0.042 C 
ATOM     15  C   LIG A   1      -6.637   2.025 132.433  0.00  0.00    +0.109 C 
ATOM     16  O   LIG A   1      -6.905   3.290 132.923  0.00  0.00    -0.488 OA
ATOM     17  C   LIG A   1      -5.619   1.272 132.852  0.00  0.00    +0.088 C 
ATOM     18  C   LIG A   1      -5.481  -0.073 132.248  0.00  0.00    +0.165 C 
ATOM     19  C   LIG A   1      -5.910  -0.309 130.774  0.00  0.00    +0.034 C 
ATOM     20  C   LIG A   1      -4.573  -0.598 130.049  0.00  0.00    +0.019 C 
ATOM     21  C   LIG A   1      -6.816   0.885 130.195  0.00  0.00    +0.056 C 
ATOM     22  C   LIG A   1      -6.709  -1.639 130.663  0.00  0.00    +0.019 C 
ATOM     23  O   LIG A   1      -4.994  -0.964 132.945  0.00  0.00    -0.292 OA
ATOM     24  C   LIG A   1      -8.580   0.585 132.064  0.00  0.00    +0.020 C 
ENDROOT
BRANCH   6  25
ATOM     25  C   LIG A   1     -10.650   7.192 130.279  0.00  0.00    +0.031 A 
ATOM     26  C   LIG A   1     -11.966   7.234 130.838  0.00  0.00    +0.048 A 
ATOM     27  C   LIG A   1     -12.705   8.083 130.048  0.00  0.00    +0.195 A 
ATOM     28  O   LIG A   1     -11.940   8.572 129.040  0.00  0.00    -0.471 OA
ATOM     29  C   LIG A   1     -10.701   8.042 129.191  0.00  0.00    +0.202 A 
ENDBRANCH   6  25
BRANCH   9  30
ATOM     30  O   LIG A   1      -6.171   4.898 129.482  0.00  0.00    -0.380 OA
ATOM     31  H   LIG A   1      -6.827   4.363 128.987  0.00  0.00    +0.210 HD
ENDBRANCH   9  30
BRANCH  21  32
ATOM     32  C   LIG A   1      -6.047   1.904 129.309  0.00  0.00    +0.227 C 
BRANCH  32  33
ATOM     33  O   LIG A   1      -4.711   2.038 129.781  0.00  0.00    -0.380 OA
ATOM     34  H   LIG A   1      -4.471   1.146 130.100  0.00  0.00    +0.210 HD
ENDBRANCH  32  33
BRANCH  32  35
ATOM     35  C   LIG A   1      -6.119   1.665 127.812  0.00  0.00    +0.336 C 
ATOM     36  O   LIG A   1      -6.368   0.585 127.287  0.00  0.00    -0.248 OA
BRANCH  35  37
ATOM     37  O   LIG A   1      -5.935   2.847 127.152  0.00  0.00    -0.466 OA
ATOM     38  C   LIG A   1      -4.799   2.942 126.279  0.00  0.00    +0.280 C 
ENDBRANCH  35  37
ENDBRANCH  32  35
ENDBRANCH  21  32
TORSDOF 6
ENDMDL
MODEL 8
REMARK VINA RESULT:      -7.4      2.902      4.233
REMARK  Name = NuBBE_1469
REMARK  12 active torsions:
REMARK  status: ('A' for Active; 'I' for Inactive)
REMARK    1  A    between atoms: C_1  and  C_2
REMARK    2  A    between atoms: C_5  and  C_23
REMARK    3  A    between atoms: C_6  and  C_14
REMARK    4  A    between atoms: C_10  and  O_12
REMARK    5  A    between atoms: C_24  and  C_42
REMARK    6  A    between atoms: C_29  and  C_30
REMARK    7  A    between atoms: C_29  and  C_40
REMARK    8  A    between atoms: C_31  and  C_33
REMARK    9  A    between atoms: C_33  and  O_35
REMARK   10  A    between atoms: C_33  and  C_36
REMARK   11  A    between atoms: C_36  and  O_37
REMARK   12  A    between atoms: O_37  and  C_38
REMARK                            x       y       z     vdW  Elec       q    Type
REMARK                         _______ _______ _______ _____ _____    ______ ____
ROOT
ATOM      1  C   LIG A   1      -7.431  -2.113 129.015  0.00  0.00    +0.057 C 
ATOM      2  C   LIG A   1      -7.598  -0.632 128.913  0.00  0.00    +0.124 C 
ATOM      3  C   LIG A   1      -6.481   0.400 128.886  0.00  0.00    +0.036 C 
ATOM      4  C   LIG A   1      -7.417   0.203 127.644  0.00  0.00    +0.066 C 
ATOM      5  C   LIG A   1      -6.488  -0.188 126.466  0.00  0.00    +0.022 C 
ATOM      6  C   LIG A   1      -7.248  -1.240 125.633  0.00  0.00    +0.216 C 
ATOM      7  O   LIG A   1      -8.508  -0.707 125.158  0.00  0.00    -0.454 OA
ATOM      8  C   LIG A   1      -9.281   0.135 125.883  0.00  0.00    +0.337 C 
ATOM      9  C   LIG A   1      -8.714   0.811 127.150  0.00  0.00    +0.234 C 
ATOM     10  O   LIG A   1     -10.383   0.479 125.452  0.00  0.00    -0.248 OA
ATOM     11  C   LIG A   1      -5.192  -0.709 127.121  0.00  0.00    +0.012 C 
ATOM     12  C   LIG A   1      -5.069   0.053 128.441  0.00  0.00    +0.013 C 
ATOM     13  C   LIG A   1      -6.102   1.064 125.638  0.00  0.00    +0.016 C 
ATOM     14  C   LIG A   1      -6.642   1.104 130.250  0.00  0.00    +0.042 C 
ATOM     15  C   LIG A   1      -8.039   0.756 130.677  0.00  0.00    +0.109 C 
ATOM     16  O   LIG A   1      -8.630  -0.193 129.864  0.00  0.00    -0.488 OA
ATOM     17  C   LIG A   1      -8.649   1.313 131.725  0.00  0.00    +0.088 C 
ATOM     18  C   LIG A   1      -7.873   2.295 132.514  0.00  0.00    +0.165 C 
ATOM     19  C   LIG A   1      -6.819   3.196 131.813  0.00  0.00    +0.034 C 
ATOM     20  C   LIG A   1      -7.425   4.616 131.923  0.00  0.00    +0.019 C 
ATOM     21  C   LIG A   1      -6.438   2.671 130.343  0.00  0.00    +0.056 C 
ATOM     22  C   LIG A   1      -5.523   3.258 132.670  0.00  0.00    +0.019 C 
ATOM     23  O   LIG A   1      -8.118   2.382 133.718  0.00  0.00    -0.292 OA
ATOM     24  C   LIG A   1      -5.693   0.365 131.250  0.00  0.00    +0.020 C 
ENDROOT
BRANCH   6  25
ATOM     25  C   LIG A   1      -6.465  -1.825 124.489  0.00  0.00    +0.031 A 
ATOM     26  C   LIG A   1      -5.481  -2.860 124.551  0.00  0.00    +0.048 A 
ATOM     27  C   LIG A   1      -5.066  -3.090 123.260  0.00  0.00    +0.195 A 
ATOM     28  O   LIG A   1      -5.724  -2.273 122.402  0.00  0.00    -0.471 OA
ATOM     29  C   LIG A   1      -6.574  -1.521 123.144  0.00  0.00    +0.202 A 
ENDBRANCH   6  25
BRANCH   9  30
ATOM     30  O   LIG A   1      -8.542   2.199 126.824  0.00  0.00    -0.380 OA
ATOM     31  H   LIG A   1      -8.297   2.634 127.667  0.00  0.00    +0.210 HD
ENDBRANCH   9  30
BRANCH  21  32
ATOM     32  C   LIG A   1      -7.154   3.424 129.186  0.00  0.00    +0.227 C 
BRANCH  32  33
ATOM     33  O   LIG A   1      -8.443   3.847 129.615  0.00  0.00    -0.380 OA
ATOM     34  H   LIG A   1      -8.296   4.730 130.008  0.00  0.00    +0.210 HD
ENDBRANCH  32  33
BRANCH  32  35
ATOM     35  C   LIG A   1      -6.358   4.538 128.531  0.00  0.00    +0.336 C 
ATOM     36  O   LIG A   1      -5.555   5.259 129.111  0.00  0.00    -0.248 OA
BRANCH  35  37
ATOM     37  O   LIG A   1      -6.626   4.561 127.191  0.00  0.00    -0.466 OA
ATOM     38  C   LIG A   1      -5.506   4.662 126.299  0.00  0.00    +0.280 C 
ENDBRANCH  35  37
ENDBRANCH  32  35
ENDBRANCH  21  32
TORSDOF 6
ENDMDL
MODEL 9
REMARK VINA RESULT:      -7.4      3.799      5.171
REMARK  Name = NuBBE_1469
REMARK  12 active torsions:
REMARK  status: ('A' for Active; 'I' for Inactive)
REMARK    1  A    between atoms: C_1  and  C_2
REMARK    2  A    between atoms: C_5  and  C_23
REMARK    3  A    between atoms: C_6  and  C_14
REMARK    4  A    between atoms: C_10  and  O_12
REMARK    5  A    between atoms: C_24  and  C_42
REMARK    6  A    between atoms: C_29  and  C_30
REMARK    7  A    between atoms: C_29  and  C_40
REMARK    8  A    between atoms: C_31  and  C_33
REMARK    9  A    between atoms: C_33  and  O_35
REMARK   10  A    between atoms: C_33  and  C_36
REMARK   11  A    between atoms: C_36  and  O_37
REMARK   12  A    between atoms: O_37  and  C_38
REMARK                            x       y       z     vdW  Elec       q    Type
REMARK                         _______ _______ _______ _____ _____    ______ ____
ROOT
ATOM      1  C   LIG A   1      -5.018   1.326 127.510  0.00  0.00    +0.057 C 
ATOM      2  C   LIG A   1      -5.219   1.561 128.972  0.00  0.00    +0.124 C 
ATOM      3  C   LIG A   1      -6.451   2.168 129.625  0.00  0.00    +0.036 C 
ATOM      4  C   LIG A   1      -6.043   0.683 129.914  0.00  0.00    +0.066 C 
ATOM      5  C   LIG A   1      -7.248  -0.186 129.467  0.00  0.00    +0.022 C 
ATOM      6  C   LIG A   1      -6.662  -1.464 128.832  0.00  0.00    +0.216 C 
ATOM      7  O   LIG A   1      -5.823  -2.170 129.778  0.00  0.00    -0.454 OA
ATOM      8  C   LIG A   1      -5.027  -1.546 130.678  0.00  0.00    +0.337 C 
ATOM      9  C   LIG A   1      -5.193  -0.034 130.944  0.00  0.00    +0.234 C 
ATOM     10  O   LIG A   1      -4.273  -2.209 131.392  0.00  0.00    -0.248 OA
ATOM     11  C   LIG A   1      -8.053   0.698 128.494  0.00  0.00    +0.012 C 
ATOM     12  C   LIG A   1      -7.818   2.135 128.961  0.00  0.00    +0.013 C 
ATOM     13  C   LIG A   1      -8.175  -0.491 130.672  0.00  0.00    +0.016 C 
ATOM     14  C   LIG A   1      -5.932   3.537 130.113  0.00  0.00    +0.042 C 
ATOM     15  C   LIG A   1      -4.439   3.379 130.121  0.00  0.00    +0.109 C 
ATOM     16  O   LIG A   1      -4.019   2.202 129.530  0.00  0.00    -0.488 OA
ATOM     17  C   LIG A   1      -3.606   4.276 130.652  0.00  0.00    +0.088 C 
ATOM     18  C   LIG A   1      -4.209   5.501 131.224  0.00  0.00    +0.165 C 
ATOM     19  C   LIG A   1      -5.615   5.439 131.882  0.00  0.00    +0.034 C 
ATOM     20  C   LIG A   1      -5.326   5.708 133.379  0.00  0.00    +0.019 C 
ATOM     21  C   LIG A   1      -6.410   4.092 131.517  0.00  0.00    +0.056 C 
ATOM     22  C   LIG A   1      -6.465   6.659 131.424  0.00  0.00    +0.019 C 
ATOM     23  O   LIG A   1      -3.545   6.538 131.180  0.00  0.00    -0.292 OA
ATOM     24  C   LIG A   1      -6.248   4.566 128.978  0.00  0.00    +0.020 C 
ENDROOT
BRANCH   6  25
ATOM     25  C   LIG A   1      -7.681  -2.399 128.241  0.00  0.00    +0.031 A 
ATOM     26  C   LIG A   1      -8.132  -2.445 126.884  0.00  0.00    +0.048 A 
ATOM     27  C   LIG A   1      -9.033  -3.480 126.801  0.00  0.00    +0.195 A 
ATOM     28  O   LIG A   1      -9.171  -4.081 128.008  0.00  0.00    -0.471 OA
ATOM     29  C   LIG A   1      -8.347  -3.435 128.869  0.00  0.00    +0.202 A 
ENDBRANCH   6  25
BRANCH   9  30
ATOM     30  O   LIG A   1      -5.765   0.084 132.256  0.00  0.00    -0.380 OA
ATOM     31  H   LIG A   1      -6.540  -0.516 132.255  0.00  0.00    +0.210 HD
ENDBRANCH   9  30
BRANCH  21  32
ATOM     32  C   LIG A   1      -6.367   3.001 132.623  0.00  0.00    +0.227 C 
BRANCH  32  33
ATOM     33  O   LIG A   1      -5.140   3.090 133.337  0.00  0.00    -0.380 OA
ATOM     34  H   LIG A   1      -5.345   3.649 134.113  0.00  0.00    +0.210 HD
ENDBRANCH  32  33
BRANCH  32  35
ATOM     35  C   LIG A   1      -7.577   2.940 133.538  0.00  0.00    +0.336 C 
ATOM     36  O   LIG A   1      -7.823   3.747 134.427  0.00  0.00    -0.248 OA
BRANCH  35  37
ATOM     37  O   LIG A   1      -8.374   1.894 133.170  0.00  0.00    -0.466 OA
ATOM     38  C   LIG A   1      -9.604   2.209 132.500  0.00  0.00    +0.280 C 
ENDBRANCH  35  37
ENDBRANCH  32  35
ENDBRANCH  21  32
TORSDOF 6
ENDMDL
