MODEL 1
REMARK VINA RESULT:      -7.1      0.000      0.000
REMARK  Name = NuBBE_1847
REMARK  9 active torsions:
REMARK  status: ('A' for Active; 'I' for Inactive)
REMARK    1  A    between atoms: O_1  and  C_2
REMARK    2  A    between atoms: C_3  and  C_4
REMARK    3  A    between atoms: C_4  and  C_5
REMARK    4  A    between atoms: C_6  and  C_7
REMARK    5  A    between atoms: C_9  and  O_10
REMARK    6  A    between atoms: O_10  and  C_11
REMARK    7  A    between atoms: C_12  and  O_13
REMARK    8  A    between atoms: O_13  and  C_14
REMARK    9  A    between atoms: C_20  and  O_21
REMARK                            x       y       z     vdW  Elec       q    Type
REMARK                         _______ _______ _______ _____ _____    ______ ____
ROOT
ATOM      1  C   LIG A   1     -10.055   5.601 130.426  0.00  0.00    +0.190 C 
ATOM      2  O   LIG A   1     -10.639   4.572 130.745  0.00  0.00    -0.287 OA
ENDROOT
BRANCH   1   4
ATOM      3  C   LIG A   1     -12.000   7.135 130.660  0.00  0.00    +0.131 A 
ATOM      4  C   LIG A   1     -10.854   6.759 129.939  0.00  0.00    +0.063 A 
ATOM      5  C   LIG A   1     -10.493   7.500 128.804  0.00  0.00    +0.019 A 
ATOM      6  C   LIG A   1     -11.272   8.591 128.397  0.00  0.00    +0.046 A 
ATOM      7  C   LIG A   1     -12.402   8.944 129.130  0.00  0.00    +0.120 A 
ATOM      8  C   LIG A   1     -12.771   8.223 130.258  0.00  0.00    +0.091 A 
BRANCH   3   9
ATOM      9  O   LIG A   1     -12.438   6.461 131.771  0.00  0.00    -0.506 OA
ATOM     10  H   LIG A   1     -11.673   6.337 132.376  0.00  0.00    +0.292 HD
ENDBRANCH   3   9
BRANCH   7  11
ATOM     11  O   LIG A   1     -13.181  10.002 128.770  0.00  0.00    -0.507 OA
ATOM     12  H   LIG A   1     -13.106  10.145 127.813  0.00  0.00    +0.292 HD
ENDBRANCH   7  11
ENDBRANCH   1   4
BRANCH   1  13
ATOM     13  C   LIG A   1      -8.570   5.694 130.433  0.00  0.00    +0.052 C 
ATOM     14  C   LIG A   1      -7.970   6.405 131.401  0.00  0.00    +0.012 C 
BRANCH  14  15
ATOM     15  C   LIG A   1      -6.515   6.566 131.541  0.00  0.00    -0.021 A 
ATOM     16  C   LIG A   1      -5.736   7.243 130.595  0.00  0.00    +0.057 A 
ATOM     17  C   LIG A   1      -4.358   7.446 130.783  0.00  0.00    +0.162 A 
ATOM     18  C   LIG A   1      -3.746   6.967 131.953  0.00  0.00    +0.162 A 
ATOM     19  C   LIG A   1      -4.523   6.297 132.904  0.00  0.00    +0.050 A 
ATOM     20  C   LIG A   1      -5.892   6.098 132.700  0.00  0.00    +0.012 A 
BRANCH  17  21
ATOM     21  O   LIG A   1      -3.785   8.123 129.736  0.00  0.00    -0.491 OA
ATOM     22  C   LIG A   1      -3.280   7.369 128.644  0.00  0.00    +0.277 C 
ENDBRANCH  17  21
BRANCH  18  23
ATOM     23  O   LIG A   1      -2.422   7.241 132.167  0.00  0.00    -0.491 OA
ATOM     24  C   LIG A   1      -2.122   8.422 132.899  0.00  0.00    +0.277 C 
ENDBRANCH  18  23
ENDBRANCH  14  15
ENDBRANCH   1  13
TORSDOF 7
ENDMDL
MODEL 2
REMARK VINA RESULT:      -7.0      1.101      2.149
REMARK  Name = NuBBE_1847
REMARK  9 active torsions:
REMARK  status: ('A' for Active; 'I' for Inactive)
REMARK    1  A    between atoms: O_1  and  C_2
REMARK    2  A    between atoms: C_3  and  C_4
REMARK    3  A    between atoms: C_4  and  C_5
REMARK    4  A    between atoms: C_6  and  C_7
REMARK    5  A    between atoms: C_9  and  O_10
REMARK    6  A    between atoms: O_10  and  C_11
REMARK    7  A    between atoms: C_12  and  O_13
REMARK    8  A    between atoms: O_13  and  C_14
REMARK    9  A    between atoms: C_20  and  O_21
REMARK                            x       y       z     vdW  Elec       q    Type
REMARK                         _______ _______ _______ _____ _____    ______ ____
ROOT
ATOM      1  C   LIG A   1      -9.615   6.010 130.974  0.00  0.00    +0.190 C 
ATOM      2  O   LIG A   1      -9.915   4.823 130.987  0.00  0.00    -0.287 OA
ENDROOT
BRANCH   1   4
ATOM      3  C   LIG A   1     -11.837   7.110 130.760  0.00  0.00    +0.131 A 
ATOM      4  C   LIG A   1     -10.519   6.973 130.289  0.00  0.00    +0.063 A 
ATOM      5  C   LIG A   1     -10.101   7.763 129.207  0.00  0.00    +0.019 A 
ATOM      6  C   LIG A   1     -10.989   8.665 128.606  0.00  0.00    +0.046 A 
ATOM      7  C   LIG A   1     -12.287   8.782 129.094  0.00  0.00    +0.120 A 
ATOM      8  C   LIG A   1     -12.717   8.010 130.166  0.00  0.00    +0.091 A 
BRANCH   3   9
ATOM      9  O   LIG A   1     -12.338   6.370 131.800  0.00  0.00    -0.506 OA
ATOM     10  H   LIG A   1     -13.250   6.686 131.989  0.00  0.00    +0.292 HD
ENDBRANCH   3   9
BRANCH   7  11
ATOM     11  O   LIG A   1     -13.179   9.652 128.542  0.00  0.00    -0.507 OA
ATOM     12  H   LIG A   1     -14.080   9.385 128.783  0.00  0.00    +0.292 HD
ENDBRANCH   7  11
ENDBRANCH   1   4
BRANCH   1  13
ATOM     13  C   LIG A   1      -8.334   6.503 131.552  0.00  0.00    +0.052 C 
ATOM     14  C   LIG A   1      -7.181   6.165 130.953  0.00  0.00    +0.012 C 
BRANCH  14  15
ATOM     15  C   LIG A   1      -5.848   6.595 131.401  0.00  0.00    -0.021 A 
ATOM     16  C   LIG A   1      -5.315   6.228 132.642  0.00  0.00    +0.057 A 
ATOM     17  C   LIG A   1      -4.011   6.591 133.021  0.00  0.00    +0.162 A 
ATOM     18  C   LIG A   1      -3.218   7.334 132.132  0.00  0.00    +0.162 A 
ATOM     19  C   LIG A   1      -3.745   7.696 130.887  0.00  0.00    +0.050 A 
ATOM     20  C   LIG A   1      -5.046   7.332 130.526  0.00  0.00    +0.012 A 
BRANCH  17  21
ATOM     21  O   LIG A   1      -3.690   6.138 134.276  0.00  0.00    -0.491 OA
ATOM     22  C   LIG A   1      -3.397   4.758 134.439  0.00  0.00    +0.277 C 
ENDBRANCH  17  21
BRANCH  18  23
ATOM     23  O   LIG A   1      -1.922   7.613 132.475  0.00  0.00    -0.491 OA
ATOM     24  C   LIG A   1      -0.921   6.755 131.945  0.00  0.00    +0.277 C 
ENDBRANCH  18  23
ENDBRANCH  14  15
ENDBRANCH   1  13
TORSDOF 7
ENDMDL
MODEL 3
REMARK VINA RESULT:      -6.9      9.403     11.502
REMARK  Name = NuBBE_1847
REMARK  9 active torsions:
REMARK  status: ('A' for Active; 'I' for Inactive)
REMARK    1  A    between atoms: O_1  and  C_2
REMARK    2  A    between atoms: C_3  and  C_4
REMARK    3  A    between atoms: C_4  and  C_5
REMARK    4  A    between atoms: C_6  and  C_7
REMARK    5  A    between atoms: C_9  and  O_10
REMARK    6  A    between atoms: O_10  and  C_11
REMARK    7  A    between atoms: C_12  and  O_13
REMARK    8  A    between atoms: O_13  and  C_14
REMARK    9  A    between atoms: C_20  and  O_21
REMARK                            x       y       z     vdW  Elec       q    Type
REMARK                         _______ _______ _______ _____ _____    ______ ____
ROOT
ATOM      1  C   LIG A   1      -6.349   3.553 122.694  0.00  0.00    +0.190 C 
ATOM      2  O   LIG A   1      -6.102   4.283 123.645  0.00  0.00    -0.287 OA
ENDROOT
BRANCH   1   4
ATOM      3  C   LIG A   1      -5.207   4.931 120.965  0.00  0.00    +0.131 A 
ATOM      4  C   LIG A   1      -6.300   4.122 121.319  0.00  0.00    +0.063 A 
ATOM      5  C   LIG A   1      -7.292   3.864 120.360  0.00  0.00    +0.019 A 
ATOM      6  C   LIG A   1      -7.190   4.413 119.075  0.00  0.00    +0.046 A 
ATOM      7  C   LIG A   1      -6.096   5.208 118.750  0.00  0.00    +0.120 A 
ATOM      8  C   LIG A   1      -5.104   5.472 119.686  0.00  0.00    +0.091 A 
BRANCH   3   9
ATOM      9  O   LIG A   1      -4.200   5.250 121.840  0.00  0.00    -0.506 OA
ATOM     10  H   LIG A   1      -3.781   6.085 121.533  0.00  0.00    +0.292 HD
ENDBRANCH   3   9
BRANCH   7  11
ATOM     11  O   LIG A   1      -5.957   5.755 117.509  0.00  0.00    -0.507 OA
ATOM     12  H   LIG A   1      -5.077   6.155 117.431  0.00  0.00    +0.292 HD
ENDBRANCH   7  11
ENDBRANCH   1   4
BRANCH   1  13
ATOM     13  C   LIG A   1      -6.777   2.139 122.880  0.00  0.00    +0.052 C 
ATOM     14  C   LIG A   1      -7.049   1.703 124.120  0.00  0.00    +0.012 C 
BRANCH  14  15
ATOM     15  C   LIG A   1      -7.499   0.342 124.447  0.00  0.00    -0.021 A 
ATOM     16  C   LIG A   1      -6.882  -0.803 123.928  0.00  0.00    +0.057 A 
ATOM     17  C   LIG A   1      -7.283  -2.094 124.309  0.00  0.00    +0.162 A 
ATOM     18  C   LIG A   1      -8.323  -2.245 125.241  0.00  0.00    +0.162 A 
ATOM     19  C   LIG A   1      -8.937  -1.103 125.767  0.00  0.00    +0.050 A 
ATOM     20  C   LIG A   1      -8.531   0.176 125.374  0.00  0.00    +0.012 A 
BRANCH  17  21
ATOM     21  O   LIG A   1      -6.555  -3.072 123.678  0.00  0.00    -0.491 OA
ATOM     22  C   LIG A   1      -5.271  -3.392 124.192  0.00  0.00    +0.277 C 
ENDBRANCH  17  21
BRANCH  18  23
ATOM     23  O   LIG A   1      -8.652  -3.503 125.668  0.00  0.00    -0.491 OA
ATOM     24  C   LIG A   1      -8.898  -3.663 127.059  0.00  0.00    +0.277 C 
ENDBRANCH  18  23
ENDBRANCH  14  15
ENDBRANCH   1  13
TORSDOF 7
ENDMDL
MODEL 4
REMARK VINA RESULT:      -6.6      1.990      7.821
REMARK  Name = NuBBE_1847
REMARK  9 active torsions:
REMARK  status: ('A' for Active; 'I' for Inactive)
REMARK    1  A    between atoms: O_1  and  C_2
REMARK    2  A    between atoms: C_3  and  C_4
REMARK    3  A    between atoms: C_4  and  C_5
REMARK    4  A    between atoms: C_6  and  C_7
REMARK    5  A    between atoms: C_9  and  O_10
REMARK    6  A    between atoms: O_10  and  C_11
REMARK    7  A    between atoms: C_12  and  O_13
REMARK    8  A    between atoms: O_13  and  C_14
REMARK    9  A    between atoms: C_20  and  O_21
REMARK                            x       y       z     vdW  Elec       q    Type
REMARK                         _______ _______ _______ _____ _____    ______ ____
ROOT
ATOM      1  C   LIG A   1      -4.518   6.857 131.199  0.00  0.00    +0.190 C 
ATOM      2  O   LIG A   1      -3.840   7.292 132.121  0.00  0.00    -0.287 OA
ENDROOT
BRANCH   1   4
ATOM      3  C   LIG A   1      -3.323   6.785 129.017  0.00  0.00    +0.131 A 
ATOM      4  C   LIG A   1      -3.848   6.084 130.116  0.00  0.00    +0.063 A 
ATOM      5  C   LIG A   1      -3.703   4.690 130.163  0.00  0.00    +0.019 A 
ATOM      6  C   LIG A   1      -3.051   4.013 129.124  0.00  0.00    +0.046 A 
ATOM      7  C   LIG A   1      -2.539   4.731 128.048  0.00  0.00    +0.120 A 
ATOM      8  C   LIG A   1      -2.671   6.112 127.987  0.00  0.00    +0.091 A 
BRANCH   3   9
ATOM      9  O   LIG A   1      -3.432   8.145 128.877  0.00  0.00    -0.506 OA
ATOM     10  H   LIG A   1      -3.734   8.518 129.735  0.00  0.00    +0.292 HD
ENDBRANCH   3   9
BRANCH   7  11
ATOM     11  O   LIG A   1      -1.893   4.110 127.021  0.00  0.00    -0.507 OA
ATOM     12  H   LIG A   1      -1.149   3.596 127.375  0.00  0.00    +0.292 HD
ENDBRANCH   7  11
ENDBRANCH   1   4
BRANCH   1  13
ATOM     13  C   LIG A   1      -5.973   7.149 131.089  0.00  0.00    +0.052 C 
ATOM     14  C   LIG A   1      -6.853   6.201 131.449  0.00  0.00    +0.012 C 
BRANCH  14  15
ATOM     15  C   LIG A   1      -8.314   6.359 131.411  0.00  0.00    -0.021 A 
ATOM     16  C   LIG A   1      -9.009   6.682 130.239  0.00  0.00    +0.057 A 
ATOM     17  C   LIG A   1     -10.411   6.759 130.209  0.00  0.00    +0.162 A 
ATOM     18  C   LIG A   1     -11.139   6.497 131.381  0.00  0.00    +0.162 A 
ATOM     19  C   LIG A   1     -10.449   6.165 132.553  0.00  0.00    +0.050 A 
ATOM     20  C   LIG A   1      -9.052   6.098 132.568  0.00  0.00    +0.012 A 
BRANCH  17  21
ATOM     21  O   LIG A   1     -10.887   7.097 128.967  0.00  0.00    -0.491 OA
ATOM     22  C   LIG A   1     -10.768   8.447 128.545  0.00  0.00    +0.277 C 
ENDBRANCH  17  21
BRANCH  18  23
ATOM     23  O   LIG A   1     -12.507   6.493 131.325  0.00  0.00    -0.491 OA
ATOM     24  C   LIG A   1     -13.158   7.747 131.478  0.00  0.00    +0.277 C 
ENDBRANCH  18  23
ENDBRANCH  14  15
ENDBRANCH   1  13
TORSDOF 7
ENDMDL
MODEL 5
REMARK VINA RESULT:      -6.5      9.540     10.366
REMARK  Name = NuBBE_1847
REMARK  9 active torsions:
REMARK  status: ('A' for Active; 'I' for Inactive)
REMARK    1  A    between atoms: O_1  and  C_2
REMARK    2  A    between atoms: C_3  and  C_4
REMARK    3  A    between atoms: C_4  and  C_5
REMARK    4  A    between atoms: C_6  and  C_7
REMARK    5  A    between atoms: C_9  and  O_10
REMARK    6  A    between atoms: O_10  and  C_11
REMARK    7  A    between atoms: C_12  and  O_13
REMARK    8  A    between atoms: O_13  and  C_14
REMARK    9  A    between atoms: C_20  and  O_21
REMARK                            x       y       z     vdW  Elec       q    Type
REMARK                         _______ _______ _______ _____ _____    ______ ____
ROOT
ATOM      1  C   LIG A   1      -9.039  -1.414 124.174  0.00  0.00    +0.190 C 
ATOM      2  O   LIG A   1      -9.436  -2.241 123.362  0.00  0.00    -0.287 OA
ENDROOT
BRANCH   1   4
ATOM      3  C   LIG A   1      -9.712   0.661 122.976  0.00  0.00    +0.131 A 
ATOM      4  C   LIG A   1      -8.731  -0.036 123.703  0.00  0.00    +0.063 A 
ATOM      5  C   LIG A   1      -7.510   0.599 123.976  0.00  0.00    +0.019 A 
ATOM      6  C   LIG A   1      -7.276   1.904 123.521  0.00  0.00    +0.046 A 
ATOM      7  C   LIG A   1      -8.265   2.572 122.805  0.00  0.00    +0.120 A 
ATOM      8  C   LIG A   1      -9.481   1.959 122.529  0.00  0.00    +0.091 A 
BRANCH   3   9
ATOM      9  O   LIG A   1     -10.926   0.116 122.648  0.00  0.00    -0.506 OA
ATOM     10  H   LIG A   1     -11.583   0.404 123.321  0.00  0.00    +0.292 HD
ENDBRANCH   3   9
BRANCH   7  11
ATOM     11  O   LIG A   1      -8.078   3.844 122.352  0.00  0.00    -0.507 OA
ATOM     12  H   LIG A   1      -8.373   3.902 121.429  0.00  0.00    +0.292 HD
ENDBRANCH   7  11
ENDBRANCH   1   4
BRANCH   1  13
ATOM     13  C   LIG A   1      -8.780  -1.770 125.595  0.00  0.00    +0.052 C 
ATOM     14  C   LIG A   1      -7.556  -2.201 125.942  0.00  0.00    +0.012 C 
BRANCH  14  15
ATOM     15  C   LIG A   1      -7.155  -2.568 127.308  0.00  0.00    -0.021 A 
ATOM     16  C   LIG A   1      -5.843  -2.418 127.775  0.00  0.00    +0.057 A 
ATOM     17  C   LIG A   1      -5.497  -2.709 129.106  0.00  0.00    +0.162 A 
ATOM     18  C   LIG A   1      -6.490  -3.151 129.995  0.00  0.00    +0.162 A 
ATOM     19  C   LIG A   1      -7.803  -3.294 129.533  0.00  0.00    +0.050 A 
ATOM     20  C   LIG A   1      -8.132  -3.006 128.205  0.00  0.00    +0.012 A 
BRANCH  17  21
ATOM     21  O   LIG A   1      -4.162  -2.503 129.352  0.00  0.00    -0.491 OA
ATOM     22  C   LIG A   1      -3.263  -3.580 129.133  0.00  0.00    +0.277 C 
ENDBRANCH  17  21
BRANCH  18  23
ATOM     23  O   LIG A   1      -6.161  -3.352 131.308  0.00  0.00    -0.491 OA
ATOM     24  C   LIG A   1      -5.642  -4.630 131.650  0.00  0.00    +0.277 C 
ENDBRANCH  18  23
ENDBRANCH  14  15
ENDBRANCH   1  13
TORSDOF 7
ENDMDL
MODEL 6
REMARK VINA RESULT:      -6.5      3.926      5.599
REMARK  Name = NuBBE_1847
REMARK  9 active torsions:
REMARK  status: ('A' for Active; 'I' for Inactive)
REMARK    1  A    between atoms: O_1  and  C_2
REMARK    2  A    between atoms: C_3  and  C_4
REMARK    3  A    between atoms: C_4  and  C_5
REMARK    4  A    between atoms: C_6  and  C_7
REMARK    5  A    between atoms: C_9  and  O_10
REMARK    6  A    between atoms: O_10  and  C_11
REMARK    7  A    between atoms: C_12  and  O_13
REMARK    8  A    between atoms: O_13  and  C_14
REMARK    9  A    between atoms: C_20  and  O_21
REMARK                            x       y       z     vdW  Elec       q    Type
REMARK                         _______ _______ _______ _____ _____    ______ ____
ROOT
ATOM      1  C   LIG A   1      -9.508   5.981 131.697  0.00  0.00    +0.190 C 
ATOM      2  O   LIG A   1      -9.493   6.284 132.883  0.00  0.00    -0.287 OA
ENDROOT
BRANCH   1   4
ATOM      3  C   LIG A   1     -11.684   6.945 130.970  0.00  0.00    +0.131 A 
ATOM      4  C   LIG A   1     -10.301   6.813 130.752  0.00  0.00    +0.063 A 
ATOM      5  C   LIG A   1      -9.718   7.486 129.667  0.00  0.00    +0.019 A 
ATOM      6  C   LIG A   1     -10.509   8.269 128.816  0.00  0.00    +0.046 A 
ATOM      7  C   LIG A   1     -11.875   8.384 129.056  0.00  0.00    +0.120 A 
ATOM      8  C   LIG A   1     -12.467   7.727 130.127  0.00  0.00    +0.091 A 
BRANCH   3   9
ATOM      9  O   LIG A   1     -12.341   6.312 131.993  0.00  0.00    -0.506 OA
ATOM     10  H   LIG A   1     -12.978   5.675 131.600  0.00  0.00    +0.292 HD
ENDBRANCH   3   9
BRANCH   7  11
ATOM     11  O   LIG A   1     -12.676   9.141 128.255  0.00  0.00    -0.507 OA
ATOM     12  H   LIG A   1     -13.491   9.364 128.734  0.00  0.00    +0.292 HD
ENDBRANCH   7  11
ENDBRANCH   1   4
BRANCH   1  13
ATOM     13  C   LIG A   1      -8.824   4.759 131.191  0.00  0.00    +0.052 C 
ATOM     14  C   LIG A   1      -9.568   3.694 130.851  0.00  0.00    +0.012 C 
BRANCH  14  15
ATOM     15  C   LIG A   1      -9.030   2.433 130.320  0.00  0.00    -0.021 A 
ATOM     16  C   LIG A   1      -8.646   2.280 128.983  0.00  0.00    +0.057 A 
ATOM     17  C   LIG A   1      -8.069   1.088 128.513  0.00  0.00    +0.162 A 
ATOM     18  C   LIG A   1      -7.862   0.025 129.406  0.00  0.00    +0.162 A 
ATOM     19  C   LIG A   1      -8.238   0.177 130.745  0.00  0.00    +0.050 A 
ATOM     20  C   LIG A   1      -8.816   1.367 131.198  0.00  0.00    +0.012 A 
BRANCH  17  21
ATOM     21  O   LIG A   1      -7.775   1.147 127.173  0.00  0.00    -0.491 OA
ATOM     22  C   LIG A   1      -6.867   2.143 126.726  0.00  0.00    +0.277 C 
ENDBRANCH  17  21
BRANCH  18  23
ATOM     23  O   LIG A   1      -7.224  -1.101 128.959  0.00  0.00    -0.491 OA
ATOM     24  C   LIG A   1      -7.872  -2.343 129.201  0.00  0.00    +0.277 C 
ENDBRANCH  18  23
ENDBRANCH  14  15
ENDBRANCH   1  13
TORSDOF 7
ENDMDL
MODEL 7
REMARK VINA RESULT:      -6.4      9.037     10.448
REMARK  Name = NuBBE_1847
REMARK  9 active torsions:
REMARK  status: ('A' for Active; 'I' for Inactive)
REMARK    1  A    between atoms: O_1  and  C_2
REMARK    2  A    between atoms: C_3  and  C_4
REMARK    3  A    between atoms: C_4  and  C_5
REMARK    4  A    between atoms: C_6  and  C_7
REMARK    5  A    between atoms: C_9  and  O_10
REMARK    6  A    between atoms: O_10  and  C_11
REMARK    7  A    between atoms: C_12  and  O_13
REMARK    8  A    between atoms: O_13  and  C_14
REMARK    9  A    between atoms: C_20  and  O_21
REMARK                            x       y       z     vdW  Elec       q    Type
REMARK                         _______ _______ _______ _____ _____    ______ ____
ROOT
ATOM      1  C   LIG A   1      -7.976   2.699 122.602  0.00  0.00    +0.190 C 
ATOM      2  O   LIG A   1      -9.157   2.986 122.751  0.00  0.00    -0.287 OA
ENDROOT
BRANCH   1   4
ATOM      3  C   LIG A   1      -7.799   3.877 120.418  0.00  0.00    +0.131 A 
ATOM      4  C   LIG A   1      -7.173   3.456 121.604  0.00  0.00    +0.063 A 
ATOM      5  C   LIG A   1      -5.824   3.782 121.811  0.00  0.00    +0.019 A 
ATOM      6  C   LIG A   1      -5.117   4.510 120.844  0.00  0.00    +0.046 A 
ATOM      7  C   LIG A   1      -5.762   4.916 119.680  0.00  0.00    +0.120 A 
ATOM      8  C   LIG A   1      -7.097   4.604 119.460  0.00  0.00    +0.091 A 
BRANCH   3   9
ATOM      9  O   LIG A   1      -9.107   3.591 120.122  0.00  0.00    -0.506 OA
ATOM     10  H   LIG A   1      -9.651   4.378 120.344  0.00  0.00    +0.292 HD
ENDBRANCH   3   9
BRANCH   7  11
ATOM     11  O   LIG A   1      -5.111   5.631 118.719  0.00  0.00    -0.507 OA
ATOM     12  H   LIG A   1      -5.556   6.485 118.597  0.00  0.00    +0.292 HD
ENDBRANCH   7  11
ENDBRANCH   1   4
BRANCH   1  13
ATOM     13  C   LIG A   1      -7.346   1.564 123.331  0.00  0.00    +0.052 C 
ATOM     14  C   LIG A   1      -7.273   1.614 124.670  0.00  0.00    +0.012 C 
BRANCH  14  15
ATOM     15  C   LIG A   1      -6.697   0.559 125.516  0.00  0.00    -0.021 A 
ATOM     16  C   LIG A   1      -6.355  -0.705 125.019  0.00  0.00    +0.057 A 
ATOM     17  C   LIG A   1      -5.741  -1.675 125.830  0.00  0.00    +0.162 A 
ATOM     18  C   LIG A   1      -5.453  -1.370 127.170  0.00  0.00    +0.162 A 
ATOM     19  C   LIG A   1      -5.787  -0.105 127.668  0.00  0.00    +0.050 A 
ATOM     20  C   LIG A   1      -6.403   0.848 126.851  0.00  0.00    +0.012 A 
BRANCH  17  21
ATOM     21  O   LIG A   1      -5.498  -2.842 125.150  0.00  0.00    -0.491 OA
ATOM     22  C   LIG A   1      -5.240  -2.767 123.755  0.00  0.00    +0.277 C 
ENDBRANCH  17  21
BRANCH  18  23
ATOM     23  O   LIG A   1      -4.781  -2.290 127.929  0.00  0.00    -0.491 OA
ATOM     24  C   LIG A   1      -5.480  -2.839 129.038  0.00  0.00    +0.277 C 
ENDBRANCH  18  23
ENDBRANCH  14  15
ENDBRANCH   1  13
TORSDOF 7
ENDMDL
MODEL 8
REMARK VINA RESULT:      -6.3      3.012      3.548
REMARK  Name = NuBBE_1847
REMARK  9 active torsions:
REMARK  status: ('A' for Active; 'I' for Inactive)
REMARK    1  A    between atoms: O_1  and  C_2
REMARK    2  A    between atoms: C_3  and  C_4
REMARK    3  A    between atoms: C_4  and  C_5
REMARK    4  A    between atoms: C_6  and  C_7
REMARK    5  A    between atoms: C_9  and  O_10
REMARK    6  A    between atoms: O_10  and  C_11
REMARK    7  A    between atoms: C_12  and  O_13
REMARK    8  A    between atoms: O_13  and  C_14
REMARK    9  A    between atoms: C_20  and  O_21
REMARK                            x       y       z     vdW  Elec       q    Type
REMARK                         _______ _______ _______ _____ _____    ______ ____
ROOT
ATOM      1  C   LIG A   1      -9.380   6.356 131.136  0.00  0.00    +0.190 C 
ATOM      2  O   LIG A   1      -9.371   6.446 132.357  0.00  0.00    -0.287 OA
ENDROOT
BRANCH   1   4
ATOM      3  C   LIG A   1     -11.770   6.963 130.805  0.00  0.00    +0.131 A 
ATOM      4  C   LIG A   1     -10.438   7.069 130.369  0.00  0.00    +0.063 A 
ATOM      5  C   LIG A   1     -10.153   7.857 129.244  0.00  0.00    +0.019 A 
ATOM      6  C   LIG A   1     -11.186   8.520 128.567  0.00  0.00    +0.046 A 
ATOM      7  C   LIG A   1     -12.496   8.400 129.021  0.00  0.00    +0.120 A 
ATOM      8  C   LIG A   1     -12.795   7.626 130.135  0.00  0.00    +0.091 A 
BRANCH   3   9
ATOM      9  O   LIG A   1     -12.145   6.203 131.884  0.00  0.00    -0.506 OA
ATOM     10  H   LIG A   1     -11.851   5.279 131.723  0.00  0.00    +0.292 HD
ENDBRANCH   3   9
BRANCH   7  11
ATOM     11  O   LIG A   1     -13.527   9.034 128.395  0.00  0.00    -0.507 OA
ATOM     12  H   LIG A   1     -14.055   9.514 129.052  0.00  0.00    +0.292 HD
ENDBRANCH   7  11
ENDBRANCH   1   4
BRANCH   1  13
ATOM     13  C   LIG A   1      -8.415   5.488 130.406  0.00  0.00    +0.052 C 
ATOM     14  C   LIG A   1      -7.101   5.648 130.630  0.00  0.00    +0.012 C 
BRANCH  14  15
ATOM     15  C   LIG A   1      -6.041   4.851 129.997  0.00  0.00    -0.021 A 
ATOM     16  C   LIG A   1      -6.299   3.924 128.980  0.00  0.00    +0.057 A 
ATOM     17  C   LIG A   1      -5.263   3.223 128.340  0.00  0.00    +0.162 A 
ATOM     18  C   LIG A   1      -3.933   3.463 128.720  0.00  0.00    +0.162 A 
ATOM     19  C   LIG A   1      -3.670   4.394 129.731  0.00  0.00    +0.050 A 
ATOM     20  C   LIG A   1      -4.713   5.080 130.363  0.00  0.00    +0.012 A 
BRANCH  17  21
ATOM     21  O   LIG A   1      -5.734   2.361 127.381  0.00  0.00    -0.491 OA
ATOM     22  C   LIG A   1      -6.745   2.824 126.498  0.00  0.00    +0.277 C 
ENDBRANCH  17  21
BRANCH  18  23
ATOM     23  O   LIG A   1      -2.925   2.838 128.036  0.00  0.00    -0.491 OA
ATOM     24  C   LIG A   1      -2.215   3.621 127.086  0.00  0.00    +0.277 C 
ENDBRANCH  18  23
ENDBRANCH  14  15
ENDBRANCH   1  13
TORSDOF 7
ENDMDL
MODEL 9
REMARK VINA RESULT:      -6.2      7.438      9.025
REMARK  Name = NuBBE_1847
REMARK  9 active torsions:
REMARK  status: ('A' for Active; 'I' for Inactive)
REMARK    1  A    between atoms: O_1  and  C_2
REMARK    2  A    between atoms: C_3  and  C_4
REMARK    3  A    between atoms: C_4  and  C_5
REMARK    4  A    between atoms: C_6  and  C_7
REMARK    5  A    between atoms: C_9  and  O_10
REMARK    6  A    between atoms: O_10  and  C_11
REMARK    7  A    between atoms: C_12  and  O_13
REMARK    8  A    between atoms: O_13  and  C_14
REMARK    9  A    between atoms: C_20  and  O_21
REMARK                            x       y       z     vdW  Elec       q    Type
REMARK                         _______ _______ _______ _____ _____    ______ ____
ROOT
ATOM      1  C   LIG A   1      -5.869  -1.593 126.461  0.00  0.00    +0.190 C 
ATOM      2  O   LIG A   1      -5.283  -2.366 127.209  0.00  0.00    -0.287 OA
ENDROOT
BRANCH   1   4
ATOM      3  C   LIG A   1      -8.156  -2.547 126.234  0.00  0.00    +0.131 A 
ATOM      4  C   LIG A   1      -6.973  -2.114 125.610  0.00  0.00    +0.063 A 
ATOM      5  C   LIG A   1      -6.885  -2.168 124.211  0.00  0.00    +0.019 A 
ATOM      6  C   LIG A   1      -7.961  -2.654 123.455  0.00  0.00    +0.046 A 
ATOM      7  C   LIG A   1      -9.121  -3.075 124.098  0.00  0.00    +0.120 A 
ATOM      8  C   LIG A   1      -9.225  -3.025 125.482  0.00  0.00    +0.091 A 
BRANCH   3   9
ATOM      9  O   LIG A   1      -8.325  -2.546 127.595  0.00  0.00    -0.506 OA
ATOM     10  H   LIG A   1      -8.561  -3.459 127.875  0.00  0.00    +0.292 HD
ENDBRANCH   3   9
BRANCH   7  11
ATOM     11  O   LIG A   1     -10.190  -3.548 123.398  0.00  0.00    -0.507 OA
ATOM     12  H   LIG A   1     -10.407  -4.442 123.708  0.00  0.00    +0.292 HD
ENDBRANCH   7  11
ENDBRANCH   1   4
BRANCH   1  13
ATOM     13  C   LIG A   1      -5.452  -0.170 126.321  0.00  0.00    +0.052 C 
ATOM     14  C   LIG A   1      -5.784   0.701 127.287  0.00  0.00    +0.012 C 
BRANCH  14  15
ATOM     15  C   LIG A   1      -5.423   2.126 127.288  0.00  0.00    -0.021 A 
ATOM     16  C   LIG A   1      -6.035   3.059 128.134  0.00  0.00    +0.057 A 
ATOM     17  C   LIG A   1      -5.626   4.403 128.169  0.00  0.00    +0.162 A 
ATOM     18  C   LIG A   1      -4.570   4.822 127.342  0.00  0.00    +0.162 A 
ATOM     19  C   LIG A   1      -3.951   3.890 126.502  0.00  0.00    +0.050 A 
ATOM     20  C   LIG A   1      -4.373   2.557 126.474  0.00  0.00    +0.012 A 
BRANCH  17  21
ATOM     21  O   LIG A   1      -6.360   5.146 129.058  0.00  0.00    -0.491 OA
ATOM     22  C   LIG A   1      -5.900   5.241 130.398  0.00  0.00    +0.277 C 
ENDBRANCH  17  21
BRANCH  18  23
ATOM     23  O   LIG A   1      -4.124   6.112 127.442  0.00  0.00    -0.491 OA
ATOM     24  C   LIG A   1      -2.866   6.307 128.076  0.00  0.00    +0.277 C 
ENDBRANCH  18  23
ENDBRANCH  14  15
ENDBRANCH   1  13
TORSDOF 7
ENDMDL
