MODEL 1
REMARK VINA RESULT:      -6.5      0.000      0.000
REMARK  Name = NuBBE_339
REMARK  13 active torsions:
REMARK  status: ('A' for Active; 'I' for Inactive)
REMARK    1  A    between atoms: C_4  and  O_13
REMARK    2  A    between atoms: C_8  and  C_9
REMARK    3  A    between atoms: C_9  and  O_10
REMARK    4  A    between atoms: O_10  and  C_11
REMARK    5  A    between atoms: O_13  and  C_14
REMARK    6  A    between atoms: C_17  and  C_25
REMARK    7  A    between atoms: C_19  and  O_24
REMARK    8  A    between atoms: C_21  and  O_23
REMARK    9  A    between atoms: C_25  and  O_26
REMARK   10  A    between atoms: C_27  and  O_29
REMARK   11  A    between atoms: C_33  and  C_34
REMARK   12  A    between atoms: C_33  and  O_36
REMARK   13  A    between atoms: C_34  and  O_35
REMARK                            x       y       z     vdW  Elec       q    Type
REMARK                         _______ _______ _______ _____ _____    ______ ____
ROOT
ATOM      1  C   LIG A   1      -8.032  -2.318 127.375  0.00  0.00    +0.064 C 
ATOM      2  C   LIG A   1      -7.688  -1.395 126.176  0.00  0.00    +0.107 C 
ATOM      3  C   LIG A   1      -7.200  -0.107 126.821  0.00  0.00    +0.316 C 
ATOM      4  O   LIG A   1      -5.868  -0.431 127.328  0.00  0.00    -0.470 OA
ATOM      5  C   LIG A   1      -5.845  -1.528 128.165  0.00  0.00    +0.201 C 
ATOM      6  C   LIG A   1      -6.848  -2.418 128.277  0.00  0.00    +0.078 C 
ATOM      7  C   LIG A   1      -8.565  -3.497 126.625  0.00  0.00    -0.019 C 
ATOM      8  C   LIG A   1      -9.107  -3.071 125.468  0.00  0.00    +0.006 C 
ATOM      9  C   LIG A   1      -8.891  -1.576 125.258  0.00  0.00    +0.116 C 
ENDROOT
BRANCH   6  10
ATOM     10  C   LIG A   1      -6.938  -3.264 129.493  0.00  0.00    +0.338 C 
ATOM     11  O   LIG A   1      -7.905  -3.316 130.220  0.00  0.00    -0.245 OA
BRANCH  10  12
ATOM     12  O   LIG A   1      -5.703  -3.784 129.739  0.00  0.00    -0.465 OA
ATOM     13  C   LIG A   1      -5.607  -4.816 130.721  0.00  0.00    +0.280 C 
ENDBRANCH  10  12
ENDBRANCH   6  10
BRANCH   9  14
ATOM     14  O   LIG A   1     -10.036  -0.874 125.726  0.00  0.00    -0.382 OA
ATOM     15  H   LIG A   1      -9.722  -0.165 126.316  0.00  0.00    +0.211 HD
ENDBRANCH   9  14
BRANCH   3  16
ATOM     16  O   LIG A   1      -7.145   1.045 125.974  0.00  0.00    -0.309 OA
BRANCH  16  17
ATOM     17  C   LIG A   1      -8.141   1.999 126.405  0.00  0.00    +0.286 C 
ATOM     18  O   LIG A   1      -8.874   2.583 125.318  0.00  0.00    -0.340 OA
ATOM     19  C   LIG A   1      -8.247   3.654 124.601  0.00  0.00    +0.178 C 
ATOM     20  C   LIG A   1      -7.721   4.760 125.533  0.00  0.00    +0.177 C 
ATOM     21  C   LIG A   1      -6.843   4.189 126.653  0.00  0.00    +0.179 C 
ATOM     22  C   LIG A   1      -7.578   3.056 127.382  0.00  0.00    +0.201 C 
BRANCH  21  23
ATOM     23  O   LIG A   1      -5.583   3.762 126.138  0.00  0.00    -0.386 OA
ATOM     24  H   LIG A   1      -5.760   3.297 125.300  0.00  0.00    +0.210 HD
ENDBRANCH  21  23
BRANCH  20  25
ATOM     25  O   LIG A   1      -8.849   5.430 126.135  0.00  0.00    -0.387 OA
ATOM     26  H   LIG A   1      -8.639   5.520 127.084  0.00  0.00    +0.210 HD
ENDBRANCH  20  25
BRANCH  22  27
ATOM     27  O   LIG A   1      -8.652   3.620 128.162  0.00  0.00    -0.384 OA
ATOM     28  H   LIG A   1      -9.429   3.030 128.037  0.00  0.00    +0.210 HD
ENDBRANCH  22  27
BRANCH  19  29
ATOM     29  C   LIG A   1      -7.217   3.166 123.577  0.00  0.00    +0.190 C 
BRANCH  29  30
ATOM     30  O   LIG A   1      -6.346   4.232 123.204  0.00  0.00    -0.392 OA
ATOM     31  H   LIG A   1      -5.656   3.841 122.637  0.00  0.00    +0.209 HD
ENDBRANCH  29  30
ENDBRANCH  19  29
ENDBRANCH  16  17
ENDBRANCH   3  16
BRANCH   9  32
ATOM     32  C   LIG A   1      -8.600  -1.199 123.795  0.00  0.00    +0.195 C 
BRANCH  32  33
ATOM     33  O   LIG A   1      -8.946   0.166 123.527  0.00  0.00    -0.392 OA
ATOM     34  H   LIG A   1      -8.464   0.721 124.163  0.00  0.00    +0.209 HD
ENDBRANCH  32  33
ENDBRANCH   9  32
TORSDOF 12
ENDMDL
MODEL 2
REMARK VINA RESULT:      -6.4      2.697      4.158
REMARK  Name = NuBBE_339
REMARK  13 active torsions:
REMARK  status: ('A' for Active; 'I' for Inactive)
REMARK    1  A    between atoms: C_4  and  O_13
REMARK    2  A    between atoms: C_8  and  C_9
REMARK    3  A    between atoms: C_9  and  O_10
REMARK    4  A    between atoms: O_10  and  C_11
REMARK    5  A    between atoms: O_13  and  C_14
REMARK    6  A    between atoms: C_17  and  C_25
REMARK    7  A    between atoms: C_19  and  O_24
REMARK    8  A    between atoms: C_21  and  O_23
REMARK    9  A    between atoms: C_25  and  O_26
REMARK   10  A    between atoms: C_27  and  O_29
REMARK   11  A    between atoms: C_33  and  C_34
REMARK   12  A    between atoms: C_33  and  O_36
REMARK   13  A    between atoms: C_34  and  O_35
REMARK                            x       y       z     vdW  Elec       q    Type
REMARK                         _______ _______ _______ _____ _____    ______ ____
ROOT
ATOM      1  C   LIG A   1      -9.139  -0.268 123.791  0.00  0.00    +0.064 C 
ATOM      2  C   LIG A   1      -8.058   0.820 123.557  0.00  0.00    +0.107 C 
ATOM      3  C   LIG A   1      -7.094   0.647 124.722  0.00  0.00    +0.316 C 
ATOM      4  O   LIG A   1      -6.351  -0.572 124.406  0.00  0.00    -0.470 OA
ATOM      5  C   LIG A   1      -7.158  -1.667 124.170  0.00  0.00    +0.201 C 
ATOM      6  C   LIG A   1      -8.480  -1.599 123.932  0.00  0.00    +0.078 C 
ATOM      7  C   LIG A   1     -10.052   0.053 122.649  0.00  0.00    -0.019 C 
ATOM      8  C   LIG A   1      -9.959   1.368 122.372  0.00  0.00    +0.006 C 
ATOM      9  C   LIG A   1      -8.888   2.051 123.214  0.00  0.00    +0.116 C 
ENDROOT
BRANCH   6  10
ATOM     10  C   LIG A   1      -9.322  -2.800 124.150  0.00  0.00    +0.338 C 
ATOM     11  O   LIG A   1      -9.617  -3.597 123.286  0.00  0.00    -0.245 OA
BRANCH  10  12
ATOM     12  O   LIG A   1      -9.850  -2.725 125.403  0.00  0.00    -0.465 OA
ATOM     13  C   LIG A   1      -9.141  -3.376 126.458  0.00  0.00    +0.280 C 
ENDBRANCH  10  12
ENDBRANCH   6  10
BRANCH   9  14
ATOM     14  O   LIG A   1      -9.501   2.624 124.363  0.00  0.00    -0.382 OA
ATOM     15  H   LIG A   1      -8.873   3.268 124.737  0.00  0.00    +0.211 HD
ENDBRANCH   9  14
BRANCH   3  16
ATOM     16  O   LIG A   1      -6.193   1.731 124.965  0.00  0.00    -0.309 OA
BRANCH  16  17
ATOM     17  C   LIG A   1      -5.985   1.864 126.389  0.00  0.00    +0.286 C 
ATOM     18  O   LIG A   1      -6.918   2.755 127.017  0.00  0.00    -0.340 OA
ATOM     19  C   LIG A   1      -6.661   4.162 126.910  0.00  0.00    +0.178 C 
ATOM     20  C   LIG A   1      -5.225   4.531 127.321  0.00  0.00    +0.177 C 
ATOM     21  C   LIG A   1      -4.186   3.671 126.592  0.00  0.00    +0.179 C 
ATOM     22  C   LIG A   1      -4.517   2.181 126.755  0.00  0.00    +0.201 C 
BRANCH  21  23
ATOM     23  O   LIG A   1      -4.092   4.048 125.220  0.00  0.00    -0.386 OA
ATOM     24  H   LIG A   1      -3.147   4.025 124.982  0.00  0.00    +0.210 HD
ENDBRANCH  21  23
BRANCH  20  25
ATOM     25  O   LIG A   1      -5.081   4.313 128.741  0.00  0.00    -0.387 OA
ATOM     26  H   LIG A   1      -4.746   3.402 128.845  0.00  0.00    +0.210 HD
ENDBRANCH  20  25
BRANCH  22  27
ATOM     27  O   LIG A   1      -4.260   1.791 128.120  0.00  0.00    -0.384 OA
ATOM     28  H   LIG A   1      -5.015   1.224 128.396  0.00  0.00    +0.210 HD
ENDBRANCH  22  27
BRANCH  19  29
ATOM     29  C   LIG A   1      -7.089   4.747 125.560  0.00  0.00    +0.190 C 
BRANCH  29  30
ATOM     30  O   LIG A   1      -8.497   4.972 125.542  0.00  0.00    -0.392 OA
ATOM     31  H   LIG A   1      -8.719   5.267 124.640  0.00  0.00    +0.209 HD
ENDBRANCH  29  30
ENDBRANCH  19  29
ENDBRANCH  16  17
ENDBRANCH   3  16
BRANCH   9  32
ATOM     32  C   LIG A   1      -8.096   3.123 122.446  0.00  0.00    +0.195 C 
BRANCH  32  33
ATOM     33  O   LIG A   1      -8.915   3.780 121.470  0.00  0.00    -0.392 OA
ATOM     34  H   LIG A   1      -8.464   4.603 121.216  0.00  0.00    +0.209 HD
ENDBRANCH  32  33
ENDBRANCH   9  32
TORSDOF 12
ENDMDL
MODEL 3
REMARK VINA RESULT:      -6.4      2.589      4.276
REMARK  Name = NuBBE_339
REMARK  13 active torsions:
REMARK  status: ('A' for Active; 'I' for Inactive)
REMARK    1  A    between atoms: C_4  and  O_13
REMARK    2  A    between atoms: C_8  and  C_9
REMARK    3  A    between atoms: C_9  and  O_10
REMARK    4  A    between atoms: O_10  and  C_11
REMARK    5  A    between atoms: O_13  and  C_14
REMARK    6  A    between atoms: C_17  and  C_25
REMARK    7  A    between atoms: C_19  and  O_24
REMARK    8  A    between atoms: C_21  and  O_23
REMARK    9  A    between atoms: C_25  and  O_26
REMARK   10  A    between atoms: C_27  and  O_29
REMARK   11  A    between atoms: C_33  and  C_34
REMARK   12  A    between atoms: C_33  and  O_36
REMARK   13  A    between atoms: C_34  and  O_35
REMARK                            x       y       z     vdW  Elec       q    Type
REMARK                         _______ _______ _______ _____ _____    ______ ____
ROOT
ATOM      1  C   LIG A   1      -9.083  -0.598 123.793  0.00  0.00    +0.064 C 
ATOM      2  C   LIG A   1      -8.191   0.662 123.639  0.00  0.00    +0.107 C 
ATOM      3  C   LIG A   1      -7.259   0.611 124.840  0.00  0.00    +0.316 C 
ATOM      4  O   LIG A   1      -6.310  -0.455 124.525  0.00  0.00    -0.470 OA
ATOM      5  C   LIG A   1      -6.911  -1.660 124.222  0.00  0.00    +0.201 C 
ATOM      6  C   LIG A   1      -8.216  -1.805 123.926  0.00  0.00    +0.078 C 
ATOM      7  C   LIG A   1      -9.990  -0.394 122.621  0.00  0.00    -0.019 C 
ATOM      8  C   LIG A   1     -10.109   0.927 122.385  0.00  0.00    +0.006 C 
ATOM      9  C   LIG A   1      -9.202   1.749 123.294  0.00  0.00    +0.116 C 
ENDROOT
BRANCH   6  10
ATOM     10  C   LIG A   1      -8.852  -3.137 124.073  0.00  0.00    +0.338 C 
ATOM     11  O   LIG A   1      -9.736  -3.556 123.358  0.00  0.00    -0.245 OA
BRANCH  10  12
ATOM     12  O   LIG A   1      -8.419  -3.686 125.241  0.00  0.00    -0.465 OA
ATOM     13  C   LIG A   1      -9.148  -3.369 126.428  0.00  0.00    +0.280 C 
ENDBRANCH  10  12
ENDBRANCH   6  10
BRANCH   9  14
ATOM     14  O   LIG A   1      -9.947   2.171 124.430  0.00  0.00    -0.382 OA
ATOM     15  H   LIG A   1     -10.325   3.045 124.221  0.00  0.00    +0.211 HD
ENDBRANCH   9  14
BRANCH   3  16
ATOM     16  O   LIG A   1      -6.563   1.821 125.155  0.00  0.00    -0.309 OA
BRANCH  16  17
ATOM     17  C   LIG A   1      -6.977   2.281 126.461  0.00  0.00    +0.286 C 
ATOM     18  O   LIG A   1      -6.247   3.430 126.914  0.00  0.00    -0.340 OA
ATOM     19  C   LIG A   1      -4.946   3.205 127.473  0.00  0.00    +0.178 C 
ATOM     20  C   LIG A   1      -4.953   2.123 128.567  0.00  0.00    +0.177 C 
ATOM     21  C   LIG A   1      -5.634   0.836 128.088  0.00  0.00    +0.179 C 
ATOM     22  C   LIG A   1      -7.021   1.148 127.511  0.00  0.00    +0.201 C 
BRANCH  21  23
ATOM     23  O   LIG A   1      -4.809   0.148 127.149  0.00  0.00    -0.386 OA
ATOM     24  H   LIG A   1      -3.954   0.615 127.125  0.00  0.00    +0.210 HD
ENDBRANCH  21  23
BRANCH  20  25
ATOM     25  O   LIG A   1      -5.681   2.626 129.709  0.00  0.00    -0.387 OA
ATOM     26  H   LIG A   1      -5.736   1.888 130.344  0.00  0.00    +0.210 HD
ENDBRANCH  20  25
BRANCH  22  27
ATOM     27  O   LIG A   1      -7.905   1.518 128.590  0.00  0.00    -0.384 OA
ATOM     28  H   LIG A   1      -7.454   2.238 129.086  0.00  0.00    +0.210 HD
ENDBRANCH  22  27
BRANCH  19  29
ATOM     29  C   LIG A   1      -3.864   3.001 126.408  0.00  0.00    +0.190 C 
BRANCH  29  30
ATOM     30  O   LIG A   1      -2.717   2.377 126.981  0.00  0.00    -0.392 OA
ATOM     31  H   LIG A   1      -3.050   1.709 127.608  0.00  0.00    +0.209 HD
ENDBRANCH  29  30
ENDBRANCH  19  29
ENDBRANCH  16  17
ENDBRANCH   3  16
BRANCH   9  32
ATOM     32  C   LIG A   1      -8.571   2.964 122.593  0.00  0.00    +0.195 C 
BRANCH  32  33
ATOM     33  O   LIG A   1      -8.061   3.910 123.542  0.00  0.00    -0.392 OA
ATOM     34  H   LIG A   1      -7.651   4.635 123.042  0.00  0.00    +0.209 HD
ENDBRANCH  32  33
ENDBRANCH   9  32
TORSDOF 12
ENDMDL
MODEL 4
REMARK VINA RESULT:      -6.2      3.507      6.388
REMARK  Name = NuBBE_339
REMARK  13 active torsions:
REMARK  status: ('A' for Active; 'I' for Inactive)
REMARK    1  A    between atoms: C_4  and  O_13
REMARK    2  A    between atoms: C_8  and  C_9
REMARK    3  A    between atoms: C_9  and  O_10
REMARK    4  A    between atoms: O_10  and  C_11
REMARK    5  A    between atoms: O_13  and  C_14
REMARK    6  A    between atoms: C_17  and  C_25
REMARK    7  A    between atoms: C_19  and  O_24
REMARK    8  A    between atoms: C_21  and  O_23
REMARK    9  A    between atoms: C_25  and  O_26
REMARK   10  A    between atoms: C_27  and  O_29
REMARK   11  A    between atoms: C_33  and  C_34
REMARK   12  A    between atoms: C_33  and  O_36
REMARK   13  A    between atoms: C_34  and  O_35
REMARK                            x       y       z     vdW  Elec       q    Type
REMARK                         _______ _______ _______ _____ _____    ______ ____
ROOT
ATOM      1  C   LIG A   1      -6.231   2.665 126.159  0.00  0.00    +0.064 C 
ATOM      2  C   LIG A   1      -6.314   3.470 127.482  0.00  0.00    +0.107 C 
ATOM      3  C   LIG A   1      -7.755   3.955 127.539  0.00  0.00    +0.316 C 
ATOM      4  O   LIG A   1      -8.530   2.762 127.876  0.00  0.00    -0.470 OA
ATOM      5  C   LIG A   1      -8.320   1.703 127.017  0.00  0.00    +0.201 C 
ATOM      6  C   LIG A   1      -7.297   1.621 126.148  0.00  0.00    +0.078 C 
ATOM      7  C   LIG A   1      -4.776   2.319 126.179  0.00  0.00    -0.019 C 
ATOM      8  C   LIG A   1      -4.106   3.283 126.838  0.00  0.00    +0.006 C 
ATOM      9  C   LIG A   1      -5.049   4.320 127.437  0.00  0.00    +0.116 C 
ENDROOT
BRANCH   6  10
ATOM     10  C   LIG A   1      -7.405   0.713 124.979  0.00  0.00    +0.338 C 
ATOM     11  O   LIG A   1      -7.364  -0.496 125.045  0.00  0.00    -0.245 OA
BRANCH  10  12
ATOM     12  O   LIG A   1      -7.348   1.471 123.849  0.00  0.00    -0.465 OA
ATOM     13  C   LIG A   1      -8.586   1.908 123.286  0.00  0.00    +0.280 C 
ENDBRANCH  10  12
ENDBRANCH   6  10
BRANCH   9  14
ATOM     14  O   LIG A   1      -5.168   5.413 126.533  0.00  0.00    -0.382 OA
ATOM     15  H   LIG A   1      -4.690   5.170 125.719  0.00  0.00    +0.211 HD
ENDBRANCH   9  14
BRANCH   3  16
ATOM     16  O   LIG A   1      -8.033   5.010 128.463  0.00  0.00    -0.309 OA
BRANCH  16  17
ATOM     17  C   LIG A   1      -8.852   4.496 129.537  0.00  0.00    +0.286 C 
ATOM     18  O   LIG A   1     -10.230   4.884 129.434  0.00  0.00    -0.340 OA
ATOM     19  C   LIG A   1     -10.578   6.201 129.882  0.00  0.00    +0.178 C 
ATOM     20  C   LIG A   1     -10.052   6.503 131.296  0.00  0.00    +0.177 C 
ATOM     21  C   LIG A   1      -8.554   6.200 131.421  0.00  0.00    +0.179 C 
ATOM     22  C   LIG A   1      -8.255   4.775 130.935  0.00  0.00    +0.201 C 
BRANCH  21  23
ATOM     23  O   LIG A   1      -7.782   7.174 130.722  0.00  0.00    -0.386 OA
ATOM     24  H   LIG A   1      -8.016   8.044 131.094  0.00  0.00    +0.210 HD
ENDBRANCH  21  23
BRANCH  20  25
ATOM     25  O   LIG A   1     -10.765   5.673 132.239  0.00  0.00    -0.387 OA
ATOM     26  H   LIG A   1     -11.088   4.902 131.736  0.00  0.00    +0.210 HD
ENDBRANCH  20  25
BRANCH  22  27
ATOM     27  O   LIG A   1      -8.787   3.833 131.889  0.00  0.00    -0.384 OA
ATOM     28  H   LIG A   1      -9.699   4.134 132.101  0.00  0.00    +0.210 HD
ENDBRANCH  22  27
BRANCH  19  29
ATOM     29  C   LIG A   1     -10.248   7.289 128.853  0.00  0.00    +0.190 C 
BRANCH  29  30
ATOM     30  O   LIG A   1     -10.107   6.715 127.555  0.00  0.00    -0.392 OA
ATOM     31  H   LIG A   1      -9.152   6.708 127.358  0.00  0.00    +0.209 HD
ENDBRANCH  29  30
ENDBRANCH  19  29
ENDBRANCH  16  17
ENDBRANCH   3  16
BRANCH   9  32
ATOM     32  C   LIG A   1      -4.607   4.825 128.821  0.00  0.00    +0.195 C 
BRANCH  32  33
ATOM     33  O   LIG A   1      -5.405   5.935 129.254  0.00  0.00    -0.392 OA
ATOM     34  H   LIG A   1      -5.576   5.820 130.203  0.00  0.00    +0.209 HD
ENDBRANCH  32  33
ENDBRANCH   9  32
TORSDOF 12
ENDMDL
MODEL 5
REMARK VINA RESULT:      -6.1      2.478      4.734
REMARK  Name = NuBBE_339
REMARK  13 active torsions:
REMARK  status: ('A' for Active; 'I' for Inactive)
REMARK    1  A    between atoms: C_4  and  O_13
REMARK    2  A    between atoms: C_8  and  C_9
REMARK    3  A    between atoms: C_9  and  O_10
REMARK    4  A    between atoms: O_10  and  C_11
REMARK    5  A    between atoms: O_13  and  C_14
REMARK    6  A    between atoms: C_17  and  C_25
REMARK    7  A    between atoms: C_19  and  O_24
REMARK    8  A    between atoms: C_21  and  O_23
REMARK    9  A    between atoms: C_25  and  O_26
REMARK   10  A    between atoms: C_27  and  O_29
REMARK   11  A    between atoms: C_33  and  C_34
REMARK   12  A    between atoms: C_33  and  O_36
REMARK   13  A    between atoms: C_34  and  O_35
REMARK                            x       y       z     vdW  Elec       q    Type
REMARK                         _______ _______ _______ _____ _____    ______ ____
ROOT
ATOM      1  C   LIG A   1      -8.146   0.101 124.979  0.00  0.00    +0.064 C 
ATOM      2  C   LIG A   1      -8.014   1.423 125.781  0.00  0.00    +0.107 C 
ATOM      3  C   LIG A   1      -8.684   1.121 127.113  0.00  0.00    +0.316 C 
ATOM      4  O   LIG A   1      -7.735   0.260 127.816  0.00  0.00    -0.470 OA
ATOM      5  C   LIG A   1      -7.367  -0.861 127.099  0.00  0.00    +0.201 C 
ATOM      6  C   LIG A   1      -7.582  -1.023 125.781  0.00  0.00    +0.078 C 
ATOM      7  C   LIG A   1      -7.535   0.543 123.687  0.00  0.00    -0.019 C 
ATOM      8  C   LIG A   1      -7.746   1.865 123.533  0.00  0.00    +0.006 C 
ATOM      9  C   LIG A   1      -8.416   2.478 124.757  0.00  0.00    +0.116 C 
ENDROOT
BRANCH   6  10
ATOM     10  C   LIG A   1      -7.586  -2.391 125.207  0.00  0.00    +0.338 C 
ATOM     11  O   LIG A   1      -8.585  -3.051 125.018  0.00  0.00    -0.245 OA
BRANCH  10  12
ATOM     12  O   LIG A   1      -6.297  -2.824 125.135  0.00  0.00    -0.465 OA
ATOM     13  C   LIG A   1      -5.639  -2.728 123.872  0.00  0.00    +0.280 C 
ENDBRANCH  10  12
ENDBRANCH   6  10
BRANCH   9  14
ATOM     14  O   LIG A   1      -9.822   2.514 124.545  0.00  0.00    -0.382 OA
ATOM     15  H   LIG A   1     -10.012   3.294 123.993  0.00  0.00    +0.211 HD
ENDBRANCH   9  14
BRANCH   3  16
ATOM     16  O   LIG A   1      -9.025   2.251 127.921  0.00  0.00    -0.309 OA
BRANCH  16  17
ATOM     17  C   LIG A   1      -8.042   2.400 128.970  0.00  0.00    +0.286 C 
ATOM     18  O   LIG A   1      -8.579   2.184 130.283  0.00  0.00    -0.340 OA
ATOM     19  C   LIG A   1      -9.297   3.267 130.888  0.00  0.00    +0.178 C 
ATOM     20  C   LIG A   1      -8.510   4.589 130.853  0.00  0.00    +0.177 C 
ATOM     21  C   LIG A   1      -8.005   4.913 129.442  0.00  0.00    +0.179 C 
ATOM     22  C   LIG A   1      -7.240   3.716 128.860  0.00  0.00    +0.201 C 
BRANCH  21  23
ATOM     23  O   LIG A   1      -9.084   5.315 128.600  0.00  0.00    -0.386 OA
ATOM     24  H   LIG A   1      -8.887   4.983 127.706  0.00  0.00    +0.210 HD
ENDBRANCH  21  23
BRANCH  20  25
ATOM     25  O   LIG A   1      -7.367   4.468 131.729  0.00  0.00    -0.387 OA
ATOM     26  H   LIG A   1      -7.702   4.091 132.564  0.00  0.00    +0.210 HD
ENDBRANCH  20  25
BRANCH  22  27
ATOM     27  O   LIG A   1      -5.984   3.581 129.556  0.00  0.00    -0.384 OA
ATOM     28  H   LIG A   1      -5.352   4.193 129.115  0.00  0.00    +0.210 HD
ENDBRANCH  22  27
BRANCH  19  29
ATOM     29  C   LIG A   1     -10.736   3.390 130.376  0.00  0.00    +0.190 C 
BRANCH  29  30
ATOM     30  O   LIG A   1     -11.290   4.648 130.758  0.00  0.00    -0.392 OA
ATOM     31  H   LIG A   1     -11.041   5.283 130.061  0.00  0.00    +0.209 HD
ENDBRANCH  29  30
ENDBRANCH  19  29
ENDBRANCH  16  17
ENDBRANCH   3  16
BRANCH   9  32
ATOM     32  C   LIG A   1      -7.895   3.885 125.100  0.00  0.00    +0.195 C 
BRANCH  32  33
ATOM     33  O   LIG A   1      -8.890   4.658 125.784  0.00  0.00    -0.392 OA
ATOM     34  H   LIG A   1      -8.490   4.989 126.606  0.00  0.00    +0.209 HD
ENDBRANCH  32  33
ENDBRANCH   9  32
TORSDOF 12
ENDMDL
MODEL 6
REMARK VINA RESULT:      -6.1      3.817      7.825
REMARK  Name = NuBBE_339
REMARK  13 active torsions:
REMARK  status: ('A' for Active; 'I' for Inactive)
REMARK    1  A    between atoms: C_4  and  O_13
REMARK    2  A    between atoms: C_8  and  C_9
REMARK    3  A    between atoms: C_9  and  O_10
REMARK    4  A    between atoms: O_10  and  C_11
REMARK    5  A    between atoms: O_13  and  C_14
REMARK    6  A    between atoms: C_17  and  C_25
REMARK    7  A    between atoms: C_19  and  O_24
REMARK    8  A    between atoms: C_21  and  O_23
REMARK    9  A    between atoms: C_25  and  O_26
REMARK   10  A    between atoms: C_27  and  O_29
REMARK   11  A    between atoms: C_33  and  C_34
REMARK   12  A    between atoms: C_33  and  O_36
REMARK   13  A    between atoms: C_34  and  O_35
REMARK                            x       y       z     vdW  Elec       q    Type
REMARK                         _______ _______ _______ _____ _____    ______ ____
ROOT
ATOM      1  C   LIG A   1      -9.553   5.831 130.562  0.00  0.00    +0.064 C 
ATOM      2  C   LIG A   1      -8.334   5.398 129.705  0.00  0.00    +0.107 C 
ATOM      3  C   LIG A   1      -8.949   4.849 128.426  0.00  0.00    +0.316 C 
ATOM      4  O   LIG A   1      -9.407   6.033 127.701  0.00  0.00    -0.470 OA
ATOM      5  C   LIG A   1     -10.251   6.841 128.436  0.00  0.00    +0.201 C 
ATOM      6  C   LIG A   1     -10.409   6.761 129.769  0.00  0.00    +0.078 C 
ATOM      7  C   LIG A   1      -8.834   6.268 131.798  0.00  0.00    -0.019 C 
ATOM      8  C   LIG A   1      -7.695   5.558 131.916  0.00  0.00    +0.006 C 
ATOM      9  C   LIG A   1      -7.465   4.653 130.711  0.00  0.00    +0.116 C 
ENDROOT
BRANCH   6  10
ATOM     10  C   LIG A   1     -11.634   7.320 130.392  0.00  0.00    +0.338 C 
ATOM     11  O   LIG A   1     -12.357   6.710 131.149  0.00  0.00    -0.245 OA
BRANCH  10  12
ATOM     12  O   LIG A   1     -11.893   8.523 129.810  0.00  0.00    -0.465 OA
ATOM     13  C   LIG A   1     -13.132   8.666 129.114  0.00  0.00    +0.280 C 
ENDBRANCH  10  12
ENDBRANCH   6  10
BRANCH   9  14
ATOM     14  O   LIG A   1      -7.972   3.356 131.004  0.00  0.00    -0.382 OA
ATOM     15  H   LIG A   1      -8.181   3.334 131.956  0.00  0.00    +0.211 HD
ENDBRANCH   9  14
BRANCH   3  16
ATOM     16  O   LIG A   1      -8.092   4.058 127.599  0.00  0.00    -0.309 OA
BRANCH  16  17
ATOM     17  C   LIG A   1      -7.961   4.692 126.307  0.00  0.00    +0.286 C 
ATOM     18  O   LIG A   1      -8.824   4.126 125.310  0.00  0.00    -0.340 OA
ATOM     19  C   LIG A   1      -8.400   2.907 124.686  0.00  0.00    +0.178 C 
ATOM     20  C   LIG A   1      -6.960   2.989 124.149  0.00  0.00    +0.177 C 
ATOM     21  C   LIG A   1      -5.983   3.491 125.218  0.00  0.00    +0.179 C 
ATOM     22  C   LIG A   1      -6.493   4.800 125.836  0.00  0.00    +0.201 C 
BRANCH  21  23
ATOM     23  O   LIG A   1      -5.758   2.487 126.207  0.00  0.00    -0.386 OA
ATOM     24  H   LIG A   1      -5.377   1.716 125.750  0.00  0.00    +0.210 HD
ENDBRANCH  21  23
BRANCH  20  25
ATOM     25  O   LIG A   1      -6.934   3.912 123.039  0.00  0.00    -0.387 OA
ATOM     26  H   LIG A   1      -7.862   4.037 122.765  0.00  0.00    +0.210 HD
ENDBRANCH  20  25
BRANCH  22  27
ATOM     27  O   LIG A   1      -6.370   5.856 124.862  0.00  0.00    -0.384 OA
ATOM     28  H   LIG A   1      -6.755   5.512 124.025  0.00  0.00    +0.210 HD
ENDBRANCH  22  27
BRANCH  19  29
ATOM     29  C   LIG A   1      -8.670   1.669 125.547  0.00  0.00    +0.190 C 
BRANCH  29  30
ATOM     30  O   LIG A   1      -7.869   0.575 125.106  0.00  0.00    -0.392 OA
ATOM     31  H   LIG A   1      -7.290   0.336 125.853  0.00  0.00    +0.209 HD
ENDBRANCH  29  30
ENDBRANCH  19  29
ENDBRANCH  16  17
ENDBRANCH   3  16
BRANCH   9  32
ATOM     32  C   LIG A   1      -5.989   4.561 130.287  0.00  0.00    +0.195 C 
BRANCH  32  33
ATOM     33  O   LIG A   1      -5.719   5.387 129.147  0.00  0.00    -0.392 OA
ATOM     34  H   LIG A   1      -6.108   6.261 129.320  0.00  0.00    +0.209 HD
ENDBRANCH  32  33
ENDBRANCH   9  32
TORSDOF 12
ENDMDL
MODEL 7
REMARK VINA RESULT:      -6.0      1.397      2.131
REMARK  Name = NuBBE_339
REMARK  13 active torsions:
REMARK  status: ('A' for Active; 'I' for Inactive)
REMARK    1  A    between atoms: C_4  and  O_13
REMARK    2  A    between atoms: C_8  and  C_9
REMARK    3  A    between atoms: C_9  and  O_10
REMARK    4  A    between atoms: O_10  and  C_11
REMARK    5  A    between atoms: O_13  and  C_14
REMARK    6  A    between atoms: C_17  and  C_25
REMARK    7  A    between atoms: C_19  and  O_24
REMARK    8  A    between atoms: C_21  and  O_23
REMARK    9  A    between atoms: C_25  and  O_26
REMARK   10  A    between atoms: C_27  and  O_29
REMARK   11  A    between atoms: C_33  and  C_34
REMARK   12  A    between atoms: C_33  and  O_36
REMARK   13  A    between atoms: C_34  and  O_35
REMARK                            x       y       z     vdW  Elec       q    Type
REMARK                         _______ _______ _______ _____ _____    ______ ____
ROOT
ATOM      1  C   LIG A   1      -7.994  -2.487 127.649  0.00  0.00    +0.064 C 
ATOM      2  C   LIG A   1      -7.688  -1.956 126.223  0.00  0.00    +0.107 C 
ATOM      3  C   LIG A   1      -6.919  -0.665 126.460  0.00  0.00    +0.316 C 
ATOM      4  O   LIG A   1      -5.594  -1.101 126.897  0.00  0.00    -0.470 OA
ATOM      5  C   LIG A   1      -5.621  -1.952 127.984  0.00  0.00    +0.201 C 
ATOM      6  C   LIG A   1      -6.722  -2.588 128.423  0.00  0.00    +0.078 C 
ATOM      7  C   LIG A   1      -8.805  -3.691 127.287  0.00  0.00    -0.019 C 
ATOM      8  C   LIG A   1      -9.435  -3.459 126.120  0.00  0.00    +0.006 C 
ATOM      9  C   LIG A   1      -9.023  -2.124 125.509  0.00  0.00    +0.116 C 
ENDROOT
BRANCH   6  10
ATOM     10  C   LIG A   1      -6.766  -3.089 129.819  0.00  0.00    +0.338 C 
ATOM     11  O   LIG A   1      -6.161  -4.060 130.217  0.00  0.00    -0.245 OA
BRANCH  10  12
ATOM     12  O   LIG A   1      -7.738  -2.405 130.483  0.00  0.00    -0.465 OA
ATOM     13  C   LIG A   1      -7.348  -1.660 131.638  0.00  0.00    +0.280 C 
ENDBRANCH  10  12
ENDBRANCH   6  10
BRANCH   9  14
ATOM     14  O   LIG A   1      -9.967  -1.131 125.892  0.00  0.00    -0.382 OA
ATOM     15  H   LIG A   1     -10.186  -1.283 126.829  0.00  0.00    +0.211 HD
ENDBRANCH   9  14
BRANCH   3  16
ATOM     16  O   LIG A   1      -6.809   0.221 125.343  0.00  0.00    -0.309 OA
BRANCH  16  17
ATOM     17  C   LIG A   1      -6.889   1.586 125.811  0.00  0.00    +0.286 C 
ATOM     18  O   LIG A   1      -8.236   2.071 125.915  0.00  0.00    -0.340 OA
ATOM     19  C   LIG A   1      -8.872   2.512 124.708  0.00  0.00    +0.178 C 
ATOM     20  C   LIG A   1      -8.013   3.516 123.920  0.00  0.00    +0.177 C 
ATOM     21  C   LIG A   1      -6.590   2.991 123.694  0.00  0.00    +0.179 C 
ATOM     22  C   LIG A   1      -5.967   2.546 125.025  0.00  0.00    +0.201 C 
BRANCH  21  23
ATOM     23  O   LIG A   1      -6.587   1.942 122.728  0.00  0.00    -0.386 OA
ATOM     24  H   LIG A   1      -7.220   2.194 122.032  0.00  0.00    +0.210 HD
ENDBRANCH  21  23
BRANCH  20  25
ATOM     25  O   LIG A   1      -7.930   4.745 124.675  0.00  0.00    -0.387 OA
ATOM     26  H   LIG A   1      -8.813   4.884 125.068  0.00  0.00    +0.210 HD
ENDBRANCH  20  25
BRANCH  22  27
ATOM     27  O   LIG A   1      -5.685   3.714 125.823  0.00  0.00    -0.384 OA
ATOM     28  H   LIG A   1      -4.813   3.556 126.252  0.00  0.00    +0.210 HD
ENDBRANCH  22  27
BRANCH  19  29
ATOM     29  C   LIG A   1      -9.409   1.356 123.858  0.00  0.00    +0.190 C 
BRANCH  29  30
ATOM     30  O   LIG A   1      -9.595   1.779 122.509  0.00  0.00    -0.392 OA
ATOM     31  H   LIG A   1      -9.084   1.162 121.952  0.00  0.00    +0.209 HD
ENDBRANCH  29  30
ENDBRANCH  19  29
ENDBRANCH  16  17
ENDBRANCH   3  16
BRANCH   9  32
ATOM     32  C   LIG A   1      -8.891  -2.166 123.977  0.00  0.00    +0.195 C 
BRANCH  32  33
ATOM     33  O   LIG A   1      -9.965  -2.904 123.379  0.00  0.00    -0.392 OA
ATOM     34  H   LIG A   1     -10.586  -3.144 124.087  0.00  0.00    +0.209 HD
ENDBRANCH  32  33
ENDBRANCH   9  32
TORSDOF 12
ENDMDL
MODEL 8
REMARK VINA RESULT:      -6.0      2.815      5.584
REMARK  Name = NuBBE_339
REMARK  13 active torsions:
REMARK  status: ('A' for Active; 'I' for Inactive)
REMARK    1  A    between atoms: C_4  and  O_13
REMARK    2  A    between atoms: C_8  and  C_9
REMARK    3  A    between atoms: C_9  and  O_10
REMARK    4  A    between atoms: O_10  and  C_11
REMARK    5  A    between atoms: O_13  and  C_14
REMARK    6  A    between atoms: C_17  and  C_25
REMARK    7  A    between atoms: C_19  and  O_24
REMARK    8  A    between atoms: C_21  and  O_23
REMARK    9  A    between atoms: C_25  and  O_26
REMARK   10  A    between atoms: C_27  and  O_29
REMARK   11  A    between atoms: C_33  and  C_34
REMARK   12  A    between atoms: C_33  and  O_36
REMARK   13  A    between atoms: C_34  and  O_35
REMARK                            x       y       z     vdW  Elec       q    Type
REMARK                         _______ _______ _______ _____ _____    ______ ____
ROOT
ATOM      1  C   LIG A   1      -8.117   1.823 124.383  0.00  0.00    +0.064 C 
ATOM      2  C   LIG A   1      -7.352   2.425 125.591  0.00  0.00    +0.107 C 
ATOM      3  C   LIG A   1      -8.168   2.001 126.802  0.00  0.00    +0.316 C 
ATOM      4  O   LIG A   1      -7.881   0.576 126.959  0.00  0.00    -0.470 OA
ATOM      5  C   LIG A   1      -8.126  -0.167 125.821  0.00  0.00    +0.201 C 
ATOM      6  C   LIG A   1      -8.302   0.358 124.595  0.00  0.00    +0.078 C 
ATOM      7  C   LIG A   1      -7.277   2.368 123.272  0.00  0.00    -0.019 C 
ATOM      8  C   LIG A   1      -6.734   3.535 123.665  0.00  0.00    +0.006 C 
ATOM      9  C   LIG A   1      -7.051   3.844 125.124  0.00  0.00    +0.116 C 
ENDROOT
BRANCH   6  10
ATOM     10  C   LIG A   1      -9.002  -0.438 123.557  0.00  0.00    +0.338 C 
ATOM     11  O   LIG A   1     -10.059  -0.128 123.053  0.00  0.00    -0.245 OA
BRANCH  10  12
ATOM     12  O   LIG A   1      -8.362  -1.634 123.439  0.00  0.00    -0.465 OA
ATOM     13  C   LIG A   1      -9.171  -2.806 123.329  0.00  0.00    +0.280 C 
ENDBRANCH  10  12
ENDBRANCH   6  10
BRANCH   9  14
ATOM     14  O   LIG A   1      -8.199   4.683 125.179  0.00  0.00    -0.382 OA
ATOM     15  H   LIG A   1      -8.983   4.104 125.178  0.00  0.00    +0.211 HD
ENDBRANCH   9  14
BRANCH   3  16
ATOM     16  O   LIG A   1      -7.903   2.700 128.022  0.00  0.00    -0.309 OA
BRANCH  16  17
ATOM     17  C   LIG A   1      -8.800   2.220 129.048  0.00  0.00    +0.286 C 
ATOM     18  O   LIG A   1      -9.870   3.133 129.335  0.00  0.00    -0.340 OA
ATOM     19  C   LIG A   1      -9.578   4.242 130.195  0.00  0.00    +0.178 C 
ATOM     20  C   LIG A   1      -8.892   3.810 131.503  0.00  0.00    +0.177 C 
ATOM     21  C   LIG A   1      -7.675   2.916 131.237  0.00  0.00    +0.179 C 
ATOM     22  C   LIG A   1      -8.061   1.747 130.320  0.00  0.00    +0.201 C 
BRANCH  21  23
ATOM     23  O   LIG A   1      -6.596   3.679 130.702  0.00  0.00    -0.386 OA
ATOM     24  H   LIG A   1      -6.800   4.617 130.868  0.00  0.00    +0.210 HD
ENDBRANCH  21  23
BRANCH  20  25
ATOM     25  O   LIG A   1      -9.840   3.064 132.297  0.00  0.00    -0.387 OA
ATOM     26  H   LIG A   1      -9.315   2.458 132.852  0.00  0.00    +0.210 HD
ENDBRANCH  20  25
BRANCH  22  27
ATOM     27  O   LIG A   1      -8.896   0.830 131.057  0.00  0.00    -0.384 OA
ATOM     28  H   LIG A   1      -8.646   0.922 132.003  0.00  0.00    +0.210 HD
ENDBRANCH  22  27
BRANCH  19  29
ATOM     29  C   LIG A   1      -8.865   5.388 129.471  0.00  0.00    +0.190 C 
BRANCH  29  30
ATOM     30  O   LIG A   1      -9.088   5.300 128.065  0.00  0.00    -0.392 OA
ATOM     31  H   LIG A   1      -8.457   5.912 127.645  0.00  0.00    +0.209 HD
ENDBRANCH  29  30
ENDBRANCH  19  29
ENDBRANCH  16  17
ENDBRANCH   3  16
BRANCH   9  32
ATOM     32  C   LIG A   1      -5.882   4.497 125.881  0.00  0.00    +0.195 C 
BRANCH  32  33
ATOM     33  O   LIG A   1      -6.240   4.805 127.234  0.00  0.00    -0.392 OA
ATOM     34  H   LIG A   1      -6.833   5.575 127.213  0.00  0.00    +0.209 HD
ENDBRANCH  32  33
ENDBRANCH   9  32
TORSDOF 12
ENDMDL
MODEL 9
REMARK VINA RESULT:      -6.0      5.293      7.880
REMARK  Name = NuBBE_339
REMARK  13 active torsions:
REMARK  status: ('A' for Active; 'I' for Inactive)
REMARK    1  A    between atoms: C_4  and  O_13
REMARK    2  A    between atoms: C_8  and  C_9
REMARK    3  A    between atoms: C_9  and  O_10
REMARK    4  A    between atoms: O_10  and  C_11
REMARK    5  A    between atoms: O_13  and  C_14
REMARK    6  A    between atoms: C_17  and  C_25
REMARK    7  A    between atoms: C_19  and  O_24
REMARK    8  A    between atoms: C_21  and  O_23
REMARK    9  A    between atoms: C_25  and  O_26
REMARK   10  A    between atoms: C_27  and  O_29
REMARK   11  A    between atoms: C_33  and  C_34
REMARK   12  A    between atoms: C_33  and  O_36
REMARK   13  A    between atoms: C_34  and  O_35
REMARK                            x       y       z     vdW  Elec       q    Type
REMARK                         _______ _______ _______ _____ _____    ______ ____
ROOT
ATOM      1  C   LIG A   1      -6.616   4.383 130.023  0.00  0.00    +0.064 C 
ATOM      2  C   LIG A   1      -8.157   4.312 130.196  0.00  0.00    +0.107 C 
ATOM      3  C   LIG A   1      -8.699   5.210 129.094  0.00  0.00    +0.316 C 
ATOM      4  O   LIG A   1      -8.510   4.439 127.866  0.00  0.00    -0.470 OA
ATOM      5  C   LIG A   1      -7.210   4.021 127.669  0.00  0.00    +0.201 C 
ATOM      6  C   LIG A   1      -6.259   4.023 128.620  0.00  0.00    +0.078 C 
ATOM      7  C   LIG A   1      -6.206   3.542 131.191  0.00  0.00    -0.019 C 
ATOM      8  C   LIG A   1      -7.138   3.651 132.157  0.00  0.00    +0.006 C 
ATOM      9  C   LIG A   1      -8.333   4.479 131.700  0.00  0.00    +0.116 C 
ENDROOT
BRANCH   6  10
ATOM     10  C   LIG A   1      -4.830   4.008 128.222  0.00  0.00    +0.338 C 
ATOM     11  O   LIG A   1      -3.964   4.670 128.752  0.00  0.00    -0.245 OA
BRANCH  10  12
ATOM     12  O   LIG A   1      -4.721   3.302 127.062  0.00  0.00    -0.465 OA
ATOM     13  C   LIG A   1      -3.408   3.079 126.547  0.00  0.00    +0.280 C 
ENDBRANCH  10  12
ENDBRANCH   6  10
BRANCH   9  14
ATOM     14  O   LIG A   1      -8.148   5.826 132.118  0.00  0.00    -0.382 OA
ATOM     15  H   LIG A   1      -8.619   5.936 132.964  0.00  0.00    +0.211 HD
ENDBRANCH   9  14
BRANCH   3  16
ATOM     16  O   LIG A   1     -10.064   5.617 129.222  0.00  0.00    -0.309 OA
BRANCH  16  17
ATOM     17  C   LIG A   1     -10.198   6.982 128.767  0.00  0.00    +0.286 C 
ATOM     18  O   LIG A   1     -10.454   7.910 129.831  0.00  0.00    -0.340 OA
ATOM     19  C   LIG A   1     -11.801   8.005 130.313  0.00  0.00    +0.178 C 
ATOM     20  C   LIG A   1     -12.820   8.211 129.180  0.00  0.00    +0.177 C 
ATOM     21  C   LIG A   1     -12.650   7.171 128.066  0.00  0.00    +0.179 C 
ATOM     22  C   LIG A   1     -11.191   7.130 127.592  0.00  0.00    +0.201 C 
BRANCH  21  23
ATOM     23  O   LIG A   1     -13.106   5.890 128.498  0.00  0.00    -0.386 OA
ATOM     24  H   LIG A   1     -12.435   5.241 128.220  0.00  0.00    +0.210 HD
ENDBRANCH  21  23
BRANCH  20  25
ATOM     25  O   LIG A   1     -12.619   9.524 128.612  0.00  0.00    -0.387 OA
ATOM     26  H   LIG A   1     -11.795   9.868 129.005  0.00  0.00    +0.210 HD
ENDBRANCH  20  25
BRANCH  22  27
ATOM     27  O   LIG A   1     -10.902   8.339 126.860  0.00  0.00    -0.384 OA
ATOM     28  H   LIG A   1     -11.579   8.999 127.131  0.00  0.00    +0.210 HD
ENDBRANCH  22  27
BRANCH  19  29
ATOM     29  C   LIG A   1     -12.170   6.875 131.280  0.00  0.00    +0.190 C 
BRANCH  29  30
ATOM     30  O   LIG A   1     -11.111   6.652 132.208  0.00  0.00    -0.392 OA
ATOM     31  H   LIG A   1     -10.347   6.344 131.688  0.00  0.00    +0.209 HD
ENDBRANCH  29  30
ENDBRANCH  19  29
ENDBRANCH  16  17
ENDBRANCH   3  16
BRANCH   9  32
ATOM     32  C   LIG A   1      -9.681   3.945 132.216  0.00  0.00    +0.195 C 
BRANCH  32  33
ATOM     33  O   LIG A   1      -9.885   4.282 133.594  0.00  0.00    -0.392 OA
ATOM     34  H   LIG A   1     -10.832   4.177 133.785  0.00  0.00    +0.209 HD
ENDBRANCH  32  33
ENDBRANCH   9  32
TORSDOF 12
ENDMDL
