MODEL 1
REMARK VINA RESULT:      -7.8      0.000      0.000
REMARK  Name = NuBBE_477
REMARK  8 active torsions:
REMARK  status: ('A' for Active; 'I' for Inactive)
REMARK    1  A    between atoms: C_2  and  C_3
REMARK    2  A    between atoms: C_2  and  O_13
REMARK    3  A    between atoms: C_4  and  C_5
REMARK    4  A    between atoms: C_7  and  O_8
REMARK    5  A    between atoms: C_9  and  O_12
REMARK    6  A    between atoms: O_13  and  C_14
REMARK    7  A    between atoms: C_14  and  C_15
REMARK    8  A    between atoms: C_15  and  C_16
REMARK                            x       y       z     vdW  Elec       q    Type
REMARK                         _______ _______ _______ _____ _____    ______ ____
ROOT
ATOM      1  C   LIG A   1      -8.210   2.603 123.509  0.00  0.00    +0.092 C 
ATOM      2  C   LIG A   1      -6.908   2.774 123.222  0.00  0.00    +0.015 C 
ENDROOT
BRANCH   2   3
ATOM      3  C   LIG A   1      -6.439   3.536 122.052  0.00  0.00    -0.021 A 
ATOM      4  C   LIG A   1      -5.337   4.398 122.174  0.00  0.00    +0.057 A 
ATOM      5  C   LIG A   1      -4.935   5.161 121.080  0.00  0.00    +0.159 A 
ATOM      6  C   LIG A   1      -5.625   5.083 119.872  0.00  0.00    +0.158 A 
ATOM      7  C   LIG A   1      -6.721   4.250 119.736  0.00  0.00    +0.050 A 
ATOM      8  C   LIG A   1      -7.130   3.484 120.828  0.00  0.00    +0.012 A 
BRANCH   5   9
ATOM      9  O   LIG A   1      -3.869   6.016 121.142  0.00  0.00    -0.503 OA
ATOM     10  H   LIG A   1      -4.210   6.925 121.211  0.00  0.00    +0.292 HD
ENDBRANCH   5   9
BRANCH   6  11
ATOM     11  O   LIG A   1      -5.230   5.839 118.806  0.00  0.00    -0.503 OA
ATOM     12  H   LIG A   1      -6.038   5.938 118.264  0.00  0.00    +0.292 HD
ENDBRANCH   6  11
ENDBRANCH   2   3
BRANCH   1  14
ATOM     13  O   LIG A   1      -8.755   2.441 125.833  0.00  0.00    -0.246 OA
ATOM     14  C   LIG A   1      -8.642   1.912 124.735  0.00  0.00    +0.332 C 
BRANCH  14  15
ATOM     15  O   LIG A   1      -8.911   0.620 124.431  0.00  0.00    -0.461 OA
BRANCH  15  16
ATOM     16  C   LIG A   1      -9.300   0.382 123.064  0.00  0.00    +0.237 C 
BRANCH  16  17
ATOM     17  C   LIG A   1      -9.448  -1.116 122.802  0.00  0.00    +0.076 C 
BRANCH  17  18
ATOM     18  C   LIG A   1      -8.249  -1.917 123.240  0.00  0.00    -0.044 A 
ATOM     19  C   LIG A   1      -8.417  -3.045 124.055  0.00  0.00    +0.003 A 
ATOM     20  C   LIG A   1      -7.313  -3.803 124.452  0.00  0.00    +0.000 A 
ATOM     21  C   LIG A   1      -6.033  -3.438 124.040  0.00  0.00    +0.000 A 
ATOM     22  C   LIG A   1      -5.855  -2.314 123.235  0.00  0.00    +0.000 A 
ATOM     23  C   LIG A   1      -6.958  -1.554 122.839  0.00  0.00    +0.003 A 
ENDBRANCH  17  18
ENDBRANCH  16  17
ENDBRANCH  15  16
ENDBRANCH  14  15
ENDBRANCH   1  14
TORSDOF 8
ENDMDL
MODEL 2
REMARK VINA RESULT:      -7.5      4.155      7.030
REMARK  Name = NuBBE_477
REMARK  8 active torsions:
REMARK  status: ('A' for Active; 'I' for Inactive)
REMARK    1  A    between atoms: C_2  and  C_3
REMARK    2  A    between atoms: C_2  and  O_13
REMARK    3  A    between atoms: C_4  and  C_5
REMARK    4  A    between atoms: C_7  and  O_8
REMARK    5  A    between atoms: C_9  and  O_12
REMARK    6  A    between atoms: O_13  and  C_14
REMARK    7  A    between atoms: C_14  and  C_15
REMARK    8  A    between atoms: C_15  and  C_16
REMARK                            x       y       z     vdW  Elec       q    Type
REMARK                         _______ _______ _______ _____ _____    ______ ____
ROOT
ATOM      1  C   LIG A   1      -8.275   0.420 126.220  0.00  0.00    +0.092 C 
ATOM      2  C   LIG A   1      -8.566  -0.843 126.578  0.00  0.00    +0.015 C 
ENDROOT
BRANCH   2   3
ATOM      3  C   LIG A   1      -7.745  -1.616 127.525  0.00  0.00    -0.021 A 
ATOM      4  C   LIG A   1      -6.381  -1.317 127.674  0.00  0.00    +0.057 A 
ATOM      5  C   LIG A   1      -5.595  -2.091 128.527  0.00  0.00    +0.159 A 
ATOM      6  C   LIG A   1      -6.151  -3.162 129.221  0.00  0.00    +0.158 A 
ATOM      7  C   LIG A   1      -7.489  -3.481 129.077  0.00  0.00    +0.050 A 
ATOM      8  C   LIG A   1      -8.282  -2.713 128.224  0.00  0.00    +0.012 A 
BRANCH   5   9
ATOM      9  O   LIG A   1      -4.262  -1.844 128.711  0.00  0.00    -0.503 OA
ATOM     10  H   LIG A   1      -3.779  -2.190 127.941  0.00  0.00    +0.292 HD
ENDBRANCH   5   9
BRANCH   6  11
ATOM     11  O   LIG A   1      -5.374  -3.920 130.049  0.00  0.00    -0.503 OA
ATOM     12  H   LIG A   1      -6.007  -4.329 130.672  0.00  0.00    +0.292 HD
ENDBRANCH   6  11
ENDBRANCH   2   3
BRANCH   1  14
ATOM     13  O   LIG A   1      -9.226   2.416 125.309  0.00  0.00    -0.246 OA
ATOM     14  C   LIG A   1      -9.167   1.194 125.341  0.00  0.00    +0.332 C 
BRANCH  14  15
ATOM     15  O   LIG A   1      -9.875   0.331 124.575  0.00  0.00    -0.461 OA
BRANCH  15  16
ATOM     16  C   LIG A   1      -9.688   0.481 123.154  0.00  0.00    +0.237 C 
BRANCH  16  17
ATOM     17  C   LIG A   1      -9.648  -0.885 122.471  0.00  0.00    +0.076 C 
BRANCH  17  18
ATOM     18  C   LIG A   1      -8.719  -1.859 123.147  0.00  0.00    -0.044 A 
ATOM     19  C   LIG A   1      -7.336  -1.626 123.150  0.00  0.00    +0.003 A 
ATOM     20  C   LIG A   1      -6.469  -2.515 123.788  0.00  0.00    +0.000 A 
ATOM     21  C   LIG A   1      -6.976  -3.646 124.425  0.00  0.00    +0.000 A 
ATOM     22  C   LIG A   1      -8.348  -3.891 124.422  0.00  0.00    +0.000 A 
ATOM     23  C   LIG A   1      -9.216  -3.004 123.783  0.00  0.00    +0.003 A 
ENDBRANCH  17  18
ENDBRANCH  16  17
ENDBRANCH  15  16
ENDBRANCH  14  15
ENDBRANCH   1  14
TORSDOF 8
ENDMDL
MODEL 3
REMARK VINA RESULT:      -7.5      1.538      2.154
REMARK  Name = NuBBE_477
REMARK  8 active torsions:
REMARK  status: ('A' for Active; 'I' for Inactive)
REMARK    1  A    between atoms: C_2  and  C_3
REMARK    2  A    between atoms: C_2  and  O_13
REMARK    3  A    between atoms: C_4  and  C_5
REMARK    4  A    between atoms: C_7  and  O_8
REMARK    5  A    between atoms: C_9  and  O_12
REMARK    6  A    between atoms: O_13  and  C_14
REMARK    7  A    between atoms: C_14  and  C_15
REMARK    8  A    between atoms: C_15  and  C_16
REMARK                            x       y       z     vdW  Elec       q    Type
REMARK                         _______ _______ _______ _____ _____    ______ ____
ROOT
ATOM      1  C   LIG A   1      -5.970   2.979 124.537  0.00  0.00    +0.092 C 
ATOM      2  C   LIG A   1      -6.487   2.720 123.324  0.00  0.00    +0.015 C 
ENDROOT
BRANCH   2   3
ATOM      3  C   LIG A   1      -6.153   3.510 122.127  0.00  0.00    -0.021 A 
ATOM      4  C   LIG A   1      -5.122   4.462 122.182  0.00  0.00    +0.057 A 
ATOM      5  C   LIG A   1      -4.851   5.249 121.063  0.00  0.00    +0.159 A 
ATOM      6  C   LIG A   1      -5.599   5.103 119.898  0.00  0.00    +0.158 A 
ATOM      7  C   LIG A   1      -6.627   4.180 119.828  0.00  0.00    +0.050 A 
ATOM      8  C   LIG A   1      -6.907   3.390 120.945  0.00  0.00    +0.012 A 
BRANCH   5   9
ATOM      9  O   LIG A   1      -3.859   6.191 121.061  0.00  0.00    -0.503 OA
ATOM     10  H   LIG A   1      -4.272   7.069 121.121  0.00  0.00    +0.292 HD
ENDBRANCH   5   9
BRANCH   6  11
ATOM     11  O   LIG A   1      -5.332   5.882 118.809  0.00  0.00    -0.503 OA
ATOM     12  H   LIG A   1      -4.424   6.211 118.960  0.00  0.00    +0.292 HD
ENDBRANCH   6  11
ENDBRANCH   2   3
BRANCH   1  14
ATOM     13  O   LIG A   1      -7.127   2.326 126.527  0.00  0.00    -0.246 OA
ATOM     14  C   LIG A   1      -6.255   2.114 125.694  0.00  0.00    +0.332 C 
BRANCH  14  15
ATOM     15  O   LIG A   1      -5.415   1.053 125.659  0.00  0.00    -0.461 OA
BRANCH  15  16
ATOM     16  C   LIG A   1      -5.984  -0.192 126.107  0.00  0.00    +0.237 C 
BRANCH  16  17
ATOM     17  C   LIG A   1      -5.663  -1.314 125.121  0.00  0.00    +0.076 C 
BRANCH  17  18
ATOM     18  C   LIG A   1      -6.889  -1.912 124.482  0.00  0.00    -0.044 A 
ATOM     19  C   LIG A   1      -7.387  -3.143 124.932  0.00  0.00    +0.003 A 
ATOM     20  C   LIG A   1      -8.533  -3.697 124.357  0.00  0.00    +0.000 A 
ATOM     21  C   LIG A   1      -9.188  -3.027 123.326  0.00  0.00    +0.000 A 
ATOM     22  C   LIG A   1      -8.697  -1.806 122.867  0.00  0.00    +0.000 A 
ATOM     23  C   LIG A   1      -7.551  -1.251 123.440  0.00  0.00    +0.003 A 
ENDBRANCH  17  18
ENDBRANCH  16  17
ENDBRANCH  15  16
ENDBRANCH  14  15
ENDBRANCH   1  14
TORSDOF 8
ENDMDL
MODEL 4
REMARK VINA RESULT:      -7.3      1.195      2.236
REMARK  Name = NuBBE_477
REMARK  8 active torsions:
REMARK  status: ('A' for Active; 'I' for Inactive)
REMARK    1  A    between atoms: C_2  and  C_3
REMARK    2  A    between atoms: C_2  and  O_13
REMARK    3  A    between atoms: C_4  and  C_5
REMARK    4  A    between atoms: C_7  and  O_8
REMARK    5  A    between atoms: C_9  and  O_12
REMARK    6  A    between atoms: O_13  and  C_14
REMARK    7  A    between atoms: C_14  and  C_15
REMARK    8  A    between atoms: C_15  and  C_16
REMARK                            x       y       z     vdW  Elec       q    Type
REMARK                         _______ _______ _______ _____ _____    ______ ____
ROOT
ATOM      1  C   LIG A   1      -9.024   2.352 122.857  0.00  0.00    +0.092 C 
ATOM      2  C   LIG A   1      -7.800   2.106 122.358  0.00  0.00    +0.015 C 
ENDROOT
BRANCH   2   3
ATOM      3  C   LIG A   1      -6.834   3.173 122.047  0.00  0.00    -0.021 A 
ATOM      4  C   LIG A   1      -6.730   3.662 120.734  0.00  0.00    +0.057 A 
ATOM      5  C   LIG A   1      -5.772   4.629 120.434  0.00  0.00    +0.159 A 
ATOM      6  C   LIG A   1      -4.914   5.105 121.422  0.00  0.00    +0.158 A 
ATOM      7  C   LIG A   1      -4.993   4.627 122.718  0.00  0.00    +0.050 A 
ATOM      8  C   LIG A   1      -5.948   3.657 123.026  0.00  0.00    +0.012 A 
BRANCH   5   9
ATOM      9  O   LIG A   1      -5.626   5.140 119.174  0.00  0.00    -0.503 OA
ATOM     10  H   LIG A   1      -5.203   4.464 118.617  0.00  0.00    +0.292 HD
ENDBRANCH   5   9
BRANCH   6  11
ATOM     11  O   LIG A   1      -3.974   6.048 121.119  0.00  0.00    -0.503 OA
ATOM     12  H   LIG A   1      -3.806   6.506 121.966  0.00  0.00    +0.292 HD
ENDBRANCH   6  11
ENDBRANCH   2   3
BRANCH   1  14
ATOM     13  O   LIG A   1     -10.549   0.553 122.453  0.00  0.00    -0.246 OA
ATOM     14  C   LIG A   1      -9.932   1.258 123.241  0.00  0.00    +0.332 C 
BRANCH  14  15
ATOM     15  O   LIG A   1      -9.941   1.157 124.592  0.00  0.00    -0.461 OA
BRANCH  15  16
ATOM     16  C   LIG A   1      -8.755   0.577 125.169  0.00  0.00    +0.237 C 
BRANCH  16  17
ATOM     17  C   LIG A   1      -8.828  -0.948 125.124  0.00  0.00    +0.076 C 
BRANCH  17  18
ATOM     18  C   LIG A   1      -7.620  -1.582 124.484  0.00  0.00    -0.044 A 
ATOM     19  C   LIG A   1      -7.382  -1.416 123.112  0.00  0.00    +0.003 A 
ATOM     20  C   LIG A   1      -6.257  -1.986 122.514  0.00  0.00    +0.000 A 
ATOM     21  C   LIG A   1      -5.361  -2.728 123.281  0.00  0.00    +0.000 A 
ATOM     22  C   LIG A   1      -5.592  -2.905 124.644  0.00  0.00    +0.000 A 
ATOM     23  C   LIG A   1      -6.717  -2.337 125.243  0.00  0.00    +0.003 A 
ENDBRANCH  17  18
ENDBRANCH  16  17
ENDBRANCH  15  16
ENDBRANCH  14  15
ENDBRANCH   1  14
TORSDOF 8
ENDMDL
MODEL 5
REMARK VINA RESULT:      -7.3      2.541      3.381
REMARK  Name = NuBBE_477
REMARK  8 active torsions:
REMARK  status: ('A' for Active; 'I' for Inactive)
REMARK    1  A    between atoms: C_2  and  C_3
REMARK    2  A    between atoms: C_2  and  O_13
REMARK    3  A    between atoms: C_4  and  C_5
REMARK    4  A    between atoms: C_7  and  O_8
REMARK    5  A    between atoms: C_9  and  O_12
REMARK    6  A    between atoms: O_13  and  C_14
REMARK    7  A    between atoms: C_14  and  C_15
REMARK    8  A    between atoms: C_15  and  C_16
REMARK                            x       y       z     vdW  Elec       q    Type
REMARK                         _______ _______ _______ _____ _____    ______ ____
ROOT
ATOM      1  C   LIG A   1      -9.090   1.677 123.363  0.00  0.00    +0.092 C 
ATOM      2  C   LIG A   1      -8.087   2.561 123.224  0.00  0.00    +0.015 C 
ENDROOT
BRANCH   2   3
ATOM      3  C   LIG A   1      -7.771   3.218 121.945  0.00  0.00    -0.021 A 
ATOM      4  C   LIG A   1      -8.798   3.497 121.029  0.00  0.00    +0.057 A 
ATOM      5  C   LIG A   1      -8.485   4.064 119.794  0.00  0.00    +0.159 A 
ATOM      6  C   LIG A   1      -7.163   4.345 119.461  0.00  0.00    +0.158 A 
ATOM      7  C   LIG A   1      -6.135   4.066 120.344  0.00  0.00    +0.050 A 
ATOM      8  C   LIG A   1      -6.440   3.496 121.581  0.00  0.00    +0.012 A 
BRANCH   5   9
ATOM      9  O   LIG A   1      -9.445   4.357 118.865  0.00  0.00    -0.503 OA
ATOM     10  H   LIG A   1      -9.941   3.543 118.672  0.00  0.00    +0.292 HD
ENDBRANCH   5   9
BRANCH   6  11
ATOM     11  O   LIG A   1      -6.863   4.894 118.247  0.00  0.00    -0.503 OA
ATOM     12  H   LIG A   1      -6.124   4.351 117.909  0.00  0.00    +0.292 HD
ENDBRANCH   6  11
ENDBRANCH   2   3
BRANCH   1  14
ATOM     13  O   LIG A   1      -9.426   1.727 125.731  0.00  0.00    -0.246 OA
ATOM     14  C   LIG A   1      -9.436   1.107 124.676  0.00  0.00    +0.332 C 
BRANCH  14  15
ATOM     15  O   LIG A   1      -9.783  -0.191 124.506  0.00  0.00    -0.461 OA
BRANCH  15  16
ATOM     16  C   LIG A   1      -8.678  -1.113 124.426  0.00  0.00    +0.237 C 
BRANCH  16  17
ATOM     17  C   LIG A   1      -9.057  -2.457 125.047  0.00  0.00    +0.076 C 
BRANCH  17  18
ATOM     18  C   LIG A   1      -8.676  -2.568 126.500  0.00  0.00    -0.044 A 
ATOM     19  C   LIG A   1      -7.961  -1.534 127.121  0.00  0.00    +0.003 A 
ATOM     20  C   LIG A   1      -7.619  -1.621 128.472  0.00  0.00    +0.000 A 
ATOM     21  C   LIG A   1      -7.985  -2.743 129.213  0.00  0.00    +0.000 A 
ATOM     22  C   LIG A   1      -8.690  -3.779 128.603  0.00  0.00    +0.000 A 
ATOM     23  C   LIG A   1      -9.032  -3.694 127.252  0.00  0.00    +0.003 A 
ENDBRANCH  17  18
ENDBRANCH  16  17
ENDBRANCH  15  16
ENDBRANCH  14  15
ENDBRANCH   1  14
TORSDOF 8
ENDMDL
MODEL 6
REMARK VINA RESULT:      -7.2      2.335      2.946
REMARK  Name = NuBBE_477
REMARK  8 active torsions:
REMARK  status: ('A' for Active; 'I' for Inactive)
REMARK    1  A    between atoms: C_2  and  C_3
REMARK    2  A    between atoms: C_2  and  O_13
REMARK    3  A    between atoms: C_4  and  C_5
REMARK    4  A    between atoms: C_7  and  O_8
REMARK    5  A    between atoms: C_9  and  O_12
REMARK    6  A    between atoms: O_13  and  C_14
REMARK    7  A    between atoms: C_14  and  C_15
REMARK    8  A    between atoms: C_15  and  C_16
REMARK                            x       y       z     vdW  Elec       q    Type
REMARK                         _______ _______ _______ _____ _____    ______ ____
ROOT
ATOM      1  C   LIG A   1      -7.517   1.869 123.375  0.00  0.00    +0.092 C 
ATOM      2  C   LIG A   1      -6.537   2.789 123.353  0.00  0.00    +0.015 C 
ENDROOT
BRANCH   2   3
ATOM      3  C   LIG A   1      -6.189   3.560 122.148  0.00  0.00    -0.021 A 
ATOM      4  C   LIG A   1      -5.145   4.499 122.194  0.00  0.00    +0.057 A 
ATOM      5  C   LIG A   1      -4.860   5.268 121.067  0.00  0.00    +0.159 A 
ATOM      6  C   LIG A   1      -5.608   5.119 119.902  0.00  0.00    +0.158 A 
ATOM      7  C   LIG A   1      -6.648   4.208 119.840  0.00  0.00    +0.050 A 
ATOM      8  C   LIG A   1      -6.941   3.436 120.966  0.00  0.00    +0.012 A 
BRANCH   5   9
ATOM      9  O   LIG A   1      -3.856   6.196 121.056  0.00  0.00    -0.503 OA
ATOM     10  H   LIG A   1      -4.255   7.079 121.144  0.00  0.00    +0.292 HD
ENDBRANCH   5   9
BRANCH   6  11
ATOM     11  O   LIG A   1      -5.328   5.880 118.804  0.00  0.00    -0.503 OA
ATOM     12  H   LIG A   1      -6.072   5.712 118.193  0.00  0.00    +0.292 HD
ENDBRANCH   6  11
ENDBRANCH   2   3
BRANCH   1  14
ATOM     13  O   LIG A   1      -9.012   1.217 125.124  0.00  0.00    -0.246 OA
ATOM     14  C   LIG A   1      -7.898   1.181 124.619  0.00  0.00    +0.332 C 
BRANCH  14  15
ATOM     15  O   LIG A   1      -6.824   0.497 125.081  0.00  0.00    -0.461 OA
BRANCH  15  16
ATOM     16  C   LIG A   1      -6.756   0.362 126.514  0.00  0.00    +0.237 C 
BRANCH  16  17
ATOM     17  C   LIG A   1      -6.110  -0.968 126.897  0.00  0.00    +0.076 C 
BRANCH  17  18
ATOM     18  C   LIG A   1      -7.110  -2.015 127.314  0.00  0.00    -0.044 A 
ATOM     19  C   LIG A   1      -7.244  -2.360 128.667  0.00  0.00    +0.003 A 
ATOM     20  C   LIG A   1      -8.180  -3.317 129.064  0.00  0.00    +0.000 A 
ATOM     21  C   LIG A   1      -8.986  -3.940 128.114  0.00  0.00    +0.000 A 
ATOM     22  C   LIG A   1      -8.856  -3.609 126.766  0.00  0.00    +0.000 A 
ATOM     23  C   LIG A   1      -7.920  -2.653 126.367  0.00  0.00    +0.003 A 
ENDBRANCH  17  18
ENDBRANCH  16  17
ENDBRANCH  15  16
ENDBRANCH  14  15
ENDBRANCH   1  14
TORSDOF 8
ENDMDL
MODEL 7
REMARK VINA RESULT:      -7.1      1.555      2.278
REMARK  Name = NuBBE_477
REMARK  8 active torsions:
REMARK  status: ('A' for Active; 'I' for Inactive)
REMARK    1  A    between atoms: C_2  and  C_3
REMARK    2  A    between atoms: C_2  and  O_13
REMARK    3  A    between atoms: C_4  and  C_5
REMARK    4  A    between atoms: C_7  and  O_8
REMARK    5  A    between atoms: C_9  and  O_12
REMARK    6  A    between atoms: O_13  and  C_14
REMARK    7  A    between atoms: C_14  and  C_15
REMARK    8  A    between atoms: C_15  and  C_16
REMARK                            x       y       z     vdW  Elec       q    Type
REMARK                         _______ _______ _______ _____ _____    ______ ____
ROOT
ATOM      1  C   LIG A   1      -7.651   3.165 123.854  0.00  0.00    +0.092 C 
ATOM      2  C   LIG A   1      -6.636   2.905 123.012  0.00  0.00    +0.015 C 
ENDROOT
BRANCH   2   3
ATOM      3  C   LIG A   1      -6.391   3.687 121.788  0.00  0.00    -0.021 A 
ATOM      4  C   LIG A   1      -7.345   3.687 120.756  0.00  0.00    +0.057 A 
ATOM      5  C   LIG A   1      -7.081   4.380 119.576  0.00  0.00    +0.159 A 
ATOM      6  C   LIG A   1      -5.877   5.061 119.409  0.00  0.00    +0.158 A 
ATOM      7  C   LIG A   1      -4.921   5.062 120.409  0.00  0.00    +0.050 A 
ATOM      8  C   LIG A   1      -5.177   4.368 121.593  0.00  0.00    +0.012 A 
BRANCH   5   9
ATOM      9  O   LIG A   1      -7.972   4.415 118.539  0.00  0.00    -0.503 OA
ATOM     10  H   LIG A   1      -8.643   5.091 118.735  0.00  0.00    +0.292 HD
ENDBRANCH   5   9
BRANCH   6  11
ATOM     11  O   LIG A   1      -5.623   5.732 118.248  0.00  0.00    -0.503 OA
ATOM     12  H   LIG A   1      -4.731   6.111 118.375  0.00  0.00    +0.292 HD
ENDBRANCH   6  11
ENDBRANCH   2   3
BRANCH   1  14
ATOM     13  O   LIG A   1      -8.762   2.541 125.879  0.00  0.00    -0.246 OA
ATOM     14  C   LIG A   1      -7.814   2.422 125.114  0.00  0.00    +0.332 C 
BRANCH  14  15
ATOM     15  O   LIG A   1      -6.761   1.582 125.260  0.00  0.00    -0.461 OA
BRANCH  15  16
ATOM     16  C   LIG A   1      -6.911   0.587 126.291  0.00  0.00    +0.237 C 
BRANCH  16  17
ATOM     17  C   LIG A   1      -7.626  -0.647 125.744  0.00  0.00    +0.076 C 
BRANCH  17  18
ATOM     18  C   LIG A   1      -6.800  -1.419 124.748  0.00  0.00    -0.044 A 
ATOM     19  C   LIG A   1      -5.857  -2.356 125.194  0.00  0.00    +0.003 A 
ATOM     20  C   LIG A   1      -5.099  -3.088 124.277  0.00  0.00    +0.000 A 
ATOM     21  C   LIG A   1      -5.274  -2.887 122.910  0.00  0.00    +0.000 A 
ATOM     22  C   LIG A   1      -6.204  -1.953 122.457  0.00  0.00    +0.000 A 
ATOM     23  C   LIG A   1      -6.962  -1.219 123.372  0.00  0.00    +0.003 A 
ENDBRANCH  17  18
ENDBRANCH  16  17
ENDBRANCH  15  16
ENDBRANCH  14  15
ENDBRANCH   1  14
TORSDOF 8
ENDMDL
MODEL 8
REMARK VINA RESULT:      -7.1      2.375      3.235
REMARK  Name = NuBBE_477
REMARK  8 active torsions:
REMARK  status: ('A' for Active; 'I' for Inactive)
REMARK    1  A    between atoms: C_2  and  C_3
REMARK    2  A    between atoms: C_2  and  O_13
REMARK    3  A    between atoms: C_4  and  C_5
REMARK    4  A    between atoms: C_7  and  O_8
REMARK    5  A    between atoms: C_9  and  O_12
REMARK    6  A    between atoms: O_13  and  C_14
REMARK    7  A    between atoms: C_14  and  C_15
REMARK    8  A    between atoms: C_15  and  C_16
REMARK                            x       y       z     vdW  Elec       q    Type
REMARK                         _______ _______ _______ _____ _____    ______ ____
ROOT
ATOM      1  C   LIG A   1      -8.524   1.275 123.190  0.00  0.00    +0.092 C 
ATOM      2  C   LIG A   1      -8.560   2.413 122.475  0.00  0.00    +0.015 C 
ENDROOT
BRANCH   2   3
ATOM      3  C   LIG A   1      -7.374   3.258 122.255  0.00  0.00    -0.021 A 
ATOM      4  C   LIG A   1      -7.073   3.719 120.963  0.00  0.00    +0.057 A 
ATOM      5  C   LIG A   1      -5.917   4.468 120.752  0.00  0.00    +0.159 A 
ATOM      6  C   LIG A   1      -5.056   4.753 121.808  0.00  0.00    +0.158 A 
ATOM      7  C   LIG A   1      -5.328   4.296 123.086  0.00  0.00    +0.050 A 
ATOM      8  C   LIG A   1      -6.483   3.543 123.305  0.00  0.00    +0.012 A 
BRANCH   5   9
ATOM      9  O   LIG A   1      -5.575   4.943 119.515  0.00  0.00    -0.503 OA
ATOM     10  H   LIG A   1      -6.091   5.750 119.345  0.00  0.00    +0.292 HD
ENDBRANCH   5   9
BRANCH   6  11
ATOM     11  O   LIG A   1      -3.921   5.481 121.593  0.00  0.00    -0.503 OA
ATOM     12  H   LIG A   1      -3.218   4.978 122.048  0.00  0.00    +0.292 HD
ENDBRANCH   6  11
ENDBRANCH   2   3
BRANCH   1  14
ATOM     13  O   LIG A   1     -10.614   0.341 122.495  0.00  0.00    -0.246 OA
ATOM     14  C   LIG A   1      -9.708   0.408 123.315  0.00  0.00    +0.332 C 
BRANCH  14  15
ATOM     15  O   LIG A   1      -9.603  -0.304 124.462  0.00  0.00    -0.461 OA
BRANCH  15  16
ATOM     16  C   LIG A   1      -8.594  -1.333 124.453  0.00  0.00    +0.237 C 
BRANCH  16  17
ATOM     17  C   LIG A   1      -9.095  -2.581 125.179  0.00  0.00    +0.076 C 
BRANCH  17  18
ATOM     18  C   LIG A   1      -8.679  -2.632 126.626  0.00  0.00    -0.044 A 
ATOM     19  C   LIG A   1      -9.029  -3.734 127.420  0.00  0.00    +0.003 A 
ATOM     20  C   LIG A   1      -8.633  -3.797 128.757  0.00  0.00    +0.000 A 
ATOM     21  C   LIG A   1      -7.888  -2.759 129.314  0.00  0.00    +0.000 A 
ATOM     22  C   LIG A   1      -7.541  -1.657 128.535  0.00  0.00    +0.000 A 
ATOM     23  C   LIG A   1      -7.937  -1.591 127.198  0.00  0.00    +0.003 A 
ENDBRANCH  17  18
ENDBRANCH  16  17
ENDBRANCH  15  16
ENDBRANCH  14  15
ENDBRANCH   1  14
TORSDOF 8
ENDMDL
MODEL 9
REMARK VINA RESULT:      -7.0      9.283     10.570
REMARK  Name = NuBBE_477
REMARK  8 active torsions:
REMARK  status: ('A' for Active; 'I' for Inactive)
REMARK    1  A    between atoms: C_2  and  C_3
REMARK    2  A    between atoms: C_2  and  O_13
REMARK    3  A    between atoms: C_4  and  C_5
REMARK    4  A    between atoms: C_7  and  O_8
REMARK    5  A    between atoms: C_9  and  O_12
REMARK    6  A    between atoms: O_13  and  C_14
REMARK    7  A    between atoms: C_14  and  C_15
REMARK    8  A    between atoms: C_15  and  C_16
REMARK                            x       y       z     vdW  Elec       q    Type
REMARK                         _______ _______ _______ _____ _____    ______ ____
ROOT
ATOM      1  C   LIG A   1      -8.029   6.455 131.189  0.00  0.00    +0.092 C 
ATOM      2  C   LIG A   1      -9.326   6.388 131.539  0.00  0.00    +0.015 C 
ENDROOT
BRANCH   2   3
ATOM      3  C   LIG A   1     -10.409   6.931 130.703  0.00  0.00    -0.021 A 
ATOM      4  C   LIG A   1     -10.100   7.625 129.521  0.00  0.00    +0.057 A 
ATOM      5  C   LIG A   1     -11.127   8.188 128.765  0.00  0.00    +0.159 A 
ATOM      6  C   LIG A   1     -12.452   8.076 129.178  0.00  0.00    +0.158 A 
ATOM      7  C   LIG A   1     -12.776   7.406 130.345  0.00  0.00    +0.050 A 
ATOM      8  C   LIG A   1     -11.753   6.842 131.109  0.00  0.00    +0.012 A 
BRANCH   5   9
ATOM      9  O   LIG A   1     -10.884   8.875 127.607  0.00  0.00    -0.503 OA
ATOM     10  H   LIG A   1     -10.655   9.791 127.838  0.00  0.00    +0.292 HD
ENDBRANCH   5   9
BRANCH   6  11
ATOM     11  O   LIG A   1     -13.452   8.636 128.436  0.00  0.00    -0.503 OA
ATOM     12  H   LIG A   1     -13.473   9.571 128.720  0.00  0.00    +0.292 HD
ENDBRANCH   6  11
ENDBRANCH   2   3
BRANCH   1  14
ATOM     13  O   LIG A   1      -6.009   5.228 131.556  0.00  0.00    -0.246 OA
ATOM     14  C   LIG A   1      -6.980   5.823 132.005  0.00  0.00    +0.332 C 
BRANCH  14  15
ATOM     15  O   LIG A   1      -7.262   6.035 133.313  0.00  0.00    -0.461 OA
BRANCH  15  16
ATOM     16  C   LIG A   1      -7.050   4.901 134.176  0.00  0.00    +0.237 C 
BRANCH  16  17
ATOM     17  C   LIG A   1      -8.356   4.137 134.387  0.00  0.00    +0.076 C 
BRANCH  17  18
ATOM     18  C   LIG A   1      -8.484   2.923 133.503  0.00  0.00    -0.044 A 
ATOM     19  C   LIG A   1      -9.678   2.679 132.811  0.00  0.00    +0.003 A 
ATOM     20  C   LIG A   1      -9.799   1.566 131.977  0.00  0.00    +0.000 A 
ATOM     21  C   LIG A   1      -8.729   0.685 131.831  0.00  0.00    +0.000 A 
ATOM     22  C   LIG A   1      -7.540   0.915 132.520  0.00  0.00    +0.000 A 
ATOM     23  C   LIG A   1      -7.417   2.027 133.355  0.00  0.00    +0.003 A 
ENDBRANCH  17  18
ENDBRANCH  16  17
ENDBRANCH  15  16
ENDBRANCH  14  15
ENDBRANCH   1  14
TORSDOF 8
ENDMDL
