MODEL 1
REMARK VINA RESULT:      -6.3      0.000      0.000
REMARK  Name = NuBBE_1799
REMARK  20 active torsions:
REMARK  status: ('A' for Active; 'I' for Inactive)
REMARK    1  A    between atoms: C_4  and  C_5
REMARK    2  A    between atoms: C_5  and  C_6
REMARK    3  A    between atoms: C_6  and  O_7
REMARK    4  A    between atoms: C_6  and  C_11
REMARK    5  A    between atoms: O_7  and  C_8
REMARK    6  A    between atoms: C_8  and  C_9
REMARK    7  A    between atoms: C_8  and  C_10
REMARK    8  A    between atoms: C_11  and  O_12
REMARK    9  A    between atoms: O_12  and  C_13
REMARK   10  A    between atoms: C_13  and  C_14
REMARK   11  A    between atoms: C_13  and  C_15
REMARK   12  A    between atoms: C_17  and  C_18
REMARK   13  A    between atoms: C_18  and  C_19
REMARK   14  A    between atoms: C_19  and  C_20
REMARK   15  A    between atoms: C_20  and  C_21
REMARK   16  A    between atoms: C_21  and  C_22
REMARK   17  A    between atoms: C_22  and  C_23
REMARK   18  A    between atoms: C_23  and  C_24
REMARK   19  A    between atoms: C_24  and  C_25
REMARK   20  A    between atoms: C_25  and  C_26
REMARK                            x       y       z     vdW  Elec       q    Type
REMARK                         _______ _______ _______ _____ _____    ______ ____
ROOT
ATOM      1  O   LIG A   1     -10.553   0.656 122.149  0.00  0.00    -0.251 OA
ATOM      2  C   LIG A   1      -9.653  -0.068 122.668  0.00  0.00    +0.311 C 
ATOM      3  O   LIG A   1      -9.816  -1.364 123.133  0.00  0.00    -0.461 OA
ATOM      4  C   LIG A   1      -8.252   0.344 122.953  0.00  0.00    +0.104 C 
ATOM      5  C   LIG A   1      -7.574  -1.015 123.230  0.00  0.00    +0.059 C 
ATOM      6  C   LIG A   1      -8.664  -1.764 123.932  0.00  0.00    +0.177 C 
ENDROOT
BRANCH   6   7
ATOM      7  C   LIG A   1      -8.705  -3.278 124.135  0.00  0.00    +0.045 C 
BRANCH   7   8
ATOM      8  C   LIG A   1      -8.658  -3.756 125.579  0.00  0.00    +0.003 C 
BRANCH   8   9
ATOM      9  C   LIG A   1      -8.831  -2.618 126.602  0.00  0.00    +0.000 C 
BRANCH   9  10
ATOM     10  C   LIG A   1      -8.060  -2.689 127.929  0.00  0.00    -0.000 C 
BRANCH  10  11
ATOM     11  C   LIG A   1      -6.581  -2.285 127.954  0.00  0.00    +0.000 C 
BRANCH  11  12
ATOM     12  C   LIG A   1      -5.965  -1.788 126.637  0.00  0.00    +0.000 C 
BRANCH  12  13
ATOM     13  C   LIG A   1      -5.175  -2.792 125.786  0.00  0.00    +0.004 C 
BRANCH  13  14
ATOM     14  C   LIG A   1      -4.940  -2.387 124.328  0.00  0.00    +0.026 C 
BRANCH  14  15
ATOM     15  C   LIG A   1      -4.865  -3.545 123.382  0.00  0.00    -0.035 C 
ATOM     16  C   LIG A   1      -4.047  -4.590 123.560  0.00  0.00    +0.004 C 
ENDBRANCH  14  15
ENDBRANCH  13  14
ENDBRANCH  12  13
ENDBRANCH  11  12
ENDBRANCH  10  11
ENDBRANCH   9  10
ENDBRANCH   8   9
ENDBRANCH   7   8
ENDBRANCH   6   7
BRANCH   4  17
ATOM     17  C   LIG A   1      -8.028   1.481 123.987  0.00  0.00    +0.048 C 
BRANCH  17  18
ATOM     18  C   LIG A   1      -7.348   2.814 123.567  0.00  0.00    +0.145 C 
BRANCH  18  19
ATOM     19  C   LIG A   1      -6.636   2.753 122.171  0.00  0.00    +0.191 C 
BRANCH  19  20
ATOM     20  O   LIG A   1      -7.045   3.830 121.356  0.00  0.00    -0.375 OA
BRANCH  20  21
ATOM     21  C   LIG A   1      -6.491   4.104 120.073  0.00  0.00    +0.112 C 
ATOM     22  C   LIG A   1      -7.609   4.348 119.084  0.00  0.00    +0.037 C 
ATOM     23  C   LIG A   1      -5.320   5.081 120.065  0.00  0.00    +0.037 C 
ENDBRANCH  20  21
ENDBRANCH  19  20
ENDBRANCH  18  19
BRANCH  18  24
ATOM     24  O   LIG A   1      -6.319   3.209 124.516  0.00  0.00    -0.372 OA
BRANCH  24  25
ATOM     25  C   LIG A   1      -6.365   4.534 125.070  0.00  0.00    +0.112 C 
ATOM     26  C   LIG A   1      -7.783   4.809 125.594  0.00  0.00    +0.037 C 
ATOM     27  C   LIG A   1      -5.352   4.758 126.194  0.00  0.00    +0.037 C 
ENDBRANCH  24  25
ENDBRANCH  18  24
ENDBRANCH  17  18
ENDBRANCH   4  17
TORSDOF 16
ENDMDL
MODEL 2
REMARK VINA RESULT:      -6.1      4.554      6.782
REMARK  Name = NuBBE_1799
REMARK  20 active torsions:
REMARK  status: ('A' for Active; 'I' for Inactive)
REMARK    1  A    between atoms: C_4  and  C_5
REMARK    2  A    between atoms: C_5  and  C_6
REMARK    3  A    between atoms: C_6  and  O_7
REMARK    4  A    between atoms: C_6  and  C_11
REMARK    5  A    between atoms: O_7  and  C_8
REMARK    6  A    between atoms: C_8  and  C_9
REMARK    7  A    between atoms: C_8  and  C_10
REMARK    8  A    between atoms: C_11  and  O_12
REMARK    9  A    between atoms: O_12  and  C_13
REMARK   10  A    between atoms: C_13  and  C_14
REMARK   11  A    between atoms: C_13  and  C_15
REMARK   12  A    between atoms: C_17  and  C_18
REMARK   13  A    between atoms: C_18  and  C_19
REMARK   14  A    between atoms: C_19  and  C_20
REMARK   15  A    between atoms: C_20  and  C_21
REMARK   16  A    between atoms: C_21  and  C_22
REMARK   17  A    between atoms: C_22  and  C_23
REMARK   18  A    between atoms: C_23  and  C_24
REMARK   19  A    between atoms: C_24  and  C_25
REMARK   20  A    between atoms: C_25  and  C_26
REMARK                            x       y       z     vdW  Elec       q    Type
REMARK                         _______ _______ _______ _____ _____    ______ ____
ROOT
ATOM      1  O   LIG A   1      -8.392   3.243 127.328  0.00  0.00    -0.251 OA
ATOM      2  C   LIG A   1      -8.182   2.562 128.374  0.00  0.00    +0.311 C 
ATOM      3  O   LIG A   1      -7.792   1.232 128.418  0.00  0.00    -0.461 OA
ATOM      4  C   LIG A   1      -8.378   3.023 129.775  0.00  0.00    +0.104 C 
ATOM      5  C   LIG A   1      -7.640   1.928 130.574  0.00  0.00    +0.059 C 
ATOM      6  C   LIG A   1      -7.944   0.703 129.767  0.00  0.00    +0.177 C 
ENDROOT
BRANCH   6   7
ATOM      7  C   LIG A   1      -7.196  -0.626 129.865  0.00  0.00    +0.045 C 
BRANCH   7   8
ATOM      8  C   LIG A   1      -7.999  -1.803 130.398  0.00  0.00    +0.003 C 
BRANCH   8   9
ATOM      9  C   LIG A   1      -8.035  -3.002 129.431  0.00  0.00    +0.000 C 
BRANCH   9  10
ATOM     10  C   LIG A   1      -8.046  -2.734 127.918  0.00  0.00    -0.000 C 
BRANCH  10  11
ATOM     11  C   LIG A   1      -8.910  -3.621 127.012  0.00  0.00    +0.000 C 
BRANCH  11  12
ATOM     12  C   LIG A   1      -9.565  -2.953 125.792  0.00  0.00    +0.000 C 
BRANCH  12  13
ATOM     13  C   LIG A   1      -8.784  -2.936 124.472  0.00  0.00    +0.004 C 
BRANCH  13  14
ATOM     14  C   LIG A   1      -7.538  -3.825 124.425  0.00  0.00    +0.026 C 
BRANCH  14  15
ATOM     15  C   LIG A   1      -6.291  -3.102 124.024  0.00  0.00    -0.035 C 
ATOM     16  C   LIG A   1      -5.067  -3.639 124.113  0.00  0.00    +0.004 C 
ENDBRANCH  14  15
ENDBRANCH  13  14
ENDBRANCH  12  13
ENDBRANCH  11  12
ENDBRANCH  10  11
ENDBRANCH   9  10
ENDBRANCH   8   9
ENDBRANCH   7   8
ENDBRANCH   6   7
BRANCH   4  17
ATOM     17  C   LIG A   1      -9.820   3.388 130.222  0.00  0.00    +0.048 C 
BRANCH  17  18
ATOM     18  C   LIG A   1     -10.148   4.806 130.767  0.00  0.00    +0.145 C 
BRANCH  18  19
ATOM     19  C   LIG A   1     -11.509   5.388 130.246  0.00  0.00    +0.191 C 
BRANCH  19  20
ATOM     20  O   LIG A   1     -11.347   5.965 128.969  0.00  0.00    -0.375 OA
BRANCH  20  21
ATOM     21  C   LIG A   1     -11.807   7.268 128.626  0.00  0.00    +0.112 C 
ATOM     22  C   LIG A   1     -12.740   7.773 129.703  0.00  0.00    +0.037 C 
ATOM     23  C   LIG A   1     -10.732   8.226 128.123  0.00  0.00    +0.037 C 
ENDBRANCH  20  21
ENDBRANCH  19  20
ENDBRANCH  18  19
BRANCH  18  24
ATOM     24  O   LIG A   1      -9.133   5.773 130.381  0.00  0.00    -0.372 OA
BRANCH  24  25
ATOM     25  C   LIG A   1      -8.519   6.572 131.403  0.00  0.00    +0.112 C 
ATOM     26  C   LIG A   1      -8.815   5.946 132.775  0.00  0.00    +0.037 C 
ATOM     27  C   LIG A   1      -7.006   6.726 131.229  0.00  0.00    +0.037 C 
ENDBRANCH  24  25
ENDBRANCH  18  24
ENDBRANCH  17  18
ENDBRANCH   4  17
TORSDOF 16
ENDMDL
MODEL 3
REMARK VINA RESULT:      -6.1      3.362      5.542
REMARK  Name = NuBBE_1799
REMARK  20 active torsions:
REMARK  status: ('A' for Active; 'I' for Inactive)
REMARK    1  A    between atoms: C_4  and  C_5
REMARK    2  A    between atoms: C_5  and  C_6
REMARK    3  A    between atoms: C_6  and  O_7
REMARK    4  A    between atoms: C_6  and  C_11
REMARK    5  A    between atoms: O_7  and  C_8
REMARK    6  A    between atoms: C_8  and  C_9
REMARK    7  A    between atoms: C_8  and  C_10
REMARK    8  A    between atoms: C_11  and  O_12
REMARK    9  A    between atoms: O_12  and  C_13
REMARK   10  A    between atoms: C_13  and  C_14
REMARK   11  A    between atoms: C_13  and  C_15
REMARK   12  A    between atoms: C_17  and  C_18
REMARK   13  A    between atoms: C_18  and  C_19
REMARK   14  A    between atoms: C_19  and  C_20
REMARK   15  A    between atoms: C_20  and  C_21
REMARK   16  A    between atoms: C_21  and  C_22
REMARK   17  A    between atoms: C_22  and  C_23
REMARK   18  A    between atoms: C_23  and  C_24
REMARK   19  A    between atoms: C_24  and  C_25
REMARK   20  A    between atoms: C_25  and  C_26
REMARK                            x       y       z     vdW  Elec       q    Type
REMARK                         _______ _______ _______ _____ _____    ______ ____
ROOT
ATOM      1  O   LIG A   1      -4.627   0.275 129.953  0.00  0.00    -0.251 OA
ATOM      2  C   LIG A   1      -5.786  -0.233 129.975  0.00  0.00    +0.311 C 
ATOM      3  O   LIG A   1      -6.111  -1.539 129.638  0.00  0.00    -0.461 OA
ATOM      4  C   LIG A   1      -7.051   0.481 130.297  0.00  0.00    +0.104 C 
ATOM      5  C   LIG A   1      -8.030  -0.694 130.508  0.00  0.00    +0.059 C 
ATOM      6  C   LIG A   1      -7.554  -1.679 129.486  0.00  0.00    +0.177 C 
ENDROOT
BRANCH   6   7
ATOM      7  C   LIG A   1      -7.907  -3.165 129.461  0.00  0.00    +0.045 C 
BRANCH   7   8
ATOM      8  C   LIG A   1      -8.688  -3.643 128.245  0.00  0.00    +0.003 C 
BRANCH   8   9
ATOM      9  C   LIG A   1      -8.434  -2.791 126.988  0.00  0.00    +0.000 C 
BRANCH   9  10
ATOM     10  C   LIG A   1      -9.531  -2.706 125.915  0.00  0.00    -0.000 C 
BRANCH  10  11
ATOM     11  C   LIG A   1      -9.219  -3.183 124.491  0.00  0.00    +0.000 C 
BRANCH  11  12
ATOM     12  C   LIG A   1      -7.750  -3.485 124.157  0.00  0.00    +0.000 C 
BRANCH  12  13
ATOM     13  C   LIG A   1      -6.945  -2.415 123.409  0.00  0.00    +0.004 C 
BRANCH  13  14
ATOM     14  C   LIG A   1      -5.447  -2.694 123.257  0.00  0.00    +0.026 C 
BRANCH  14  15
ATOM     15  C   LIG A   1      -4.988  -3.940 123.947  0.00  0.00    -0.035 C 
ATOM     16  C   LIG A   1      -3.912  -4.639 123.566  0.00  0.00    +0.004 C 
ENDBRANCH  14  15
ENDBRANCH  13  14
ENDBRANCH  12  13
ENDBRANCH  11  12
ENDBRANCH  10  11
ENDBRANCH   9  10
ENDBRANCH   8   9
ENDBRANCH   7   8
ENDBRANCH   6   7
BRANCH   4  17
ATOM     17  C   LIG A   1      -7.498   1.625 129.347  0.00  0.00    +0.048 C 
BRANCH  17  18
ATOM     18  C   LIG A   1      -6.580   2.096 128.184  0.00  0.00    +0.145 C 
BRANCH  18  19
ATOM     19  C   LIG A   1      -6.201   3.616 128.249  0.00  0.00    +0.191 C 
BRANCH  19  20
ATOM     20  O   LIG A   1      -4.808   3.788 128.111  0.00  0.00    -0.375 OA
BRANCH  20  21
ATOM     21  C   LIG A   1      -4.043   3.224 127.050  0.00  0.00    +0.112 C 
ATOM     22  C   LIG A   1      -4.458   3.853 125.740  0.00  0.00    +0.037 C 
ATOM     23  C   LIG A   1      -2.548   3.093 127.324  0.00  0.00    +0.037 C 
ENDBRANCH  20  21
ENDBRANCH  19  20
ENDBRANCH  18  19
BRANCH  18  24
ATOM     24  O   LIG A   1      -7.218   1.905 126.891  0.00  0.00    -0.372 OA
BRANCH  24  25
ATOM     25  C   LIG A   1      -7.306   0.575 126.355  0.00  0.00    +0.112 C 
ATOM     26  C   LIG A   1      -8.044   0.625 125.008  0.00  0.00    +0.037 C 
ATOM     27  C   LIG A   1      -5.943  -0.095 126.166  0.00  0.00    +0.037 C 
ENDBRANCH  24  25
ENDBRANCH  18  24
ENDBRANCH  17  18
ENDBRANCH   4  17
TORSDOF 16
ENDMDL
MODEL 4
REMARK VINA RESULT:      -6.0      2.106      3.547
REMARK  Name = NuBBE_1799
REMARK  20 active torsions:
REMARK  status: ('A' for Active; 'I' for Inactive)
REMARK    1  A    between atoms: C_4  and  C_5
REMARK    2  A    between atoms: C_5  and  C_6
REMARK    3  A    between atoms: C_6  and  O_7
REMARK    4  A    between atoms: C_6  and  C_11
REMARK    5  A    between atoms: O_7  and  C_8
REMARK    6  A    between atoms: C_8  and  C_9
REMARK    7  A    between atoms: C_8  and  C_10
REMARK    8  A    between atoms: C_11  and  O_12
REMARK    9  A    between atoms: O_12  and  C_13
REMARK   10  A    between atoms: C_13  and  C_14
REMARK   11  A    between atoms: C_13  and  C_15
REMARK   12  A    between atoms: C_17  and  C_18
REMARK   13  A    between atoms: C_18  and  C_19
REMARK   14  A    between atoms: C_19  and  C_20
REMARK   15  A    between atoms: C_20  and  C_21
REMARK   16  A    between atoms: C_21  and  C_22
REMARK   17  A    between atoms: C_22  and  C_23
REMARK   18  A    between atoms: C_23  and  C_24
REMARK   19  A    between atoms: C_24  and  C_25
REMARK   20  A    between atoms: C_25  and  C_26
REMARK                            x       y       z     vdW  Elec       q    Type
REMARK                         _______ _______ _______ _____ _____    ______ ____
ROOT
ATOM      1  O   LIG A   1     -10.062  -0.516 122.285  0.00  0.00    -0.251 OA
ATOM      2  C   LIG A   1      -9.185  -1.119 122.970  0.00  0.00    +0.311 C 
ATOM      3  O   LIG A   1      -9.427  -2.043 123.975  0.00  0.00    -0.461 OA
ATOM      4  C   LIG A   1      -7.713  -0.911 122.891  0.00  0.00    +0.104 C 
ATOM      5  C   LIG A   1      -7.180  -2.135 123.666  0.00  0.00    +0.059 C 
ATOM      6  C   LIG A   1      -8.212  -2.292 124.740  0.00  0.00    +0.177 C 
ENDROOT
BRANCH   6   7
ATOM      7  C   LIG A   1      -8.412  -3.543 125.595  0.00  0.00    +0.045 C 
BRANCH   7   8
ATOM      8  C   LIG A   1      -9.363  -3.397 126.773  0.00  0.00    +0.003 C 
BRANCH   8   9
ATOM      9  C   LIG A   1      -8.879  -4.128 128.039  0.00  0.00    +0.000 C 
BRANCH   9  10
ATOM     10  C   LIG A   1      -8.332  -3.298 129.211  0.00  0.00    -0.000 C 
BRANCH  10  11
ATOM     11  C   LIG A   1      -7.267  -2.230 128.934  0.00  0.00    +0.000 C 
BRANCH  11  12
ATOM     12  C   LIG A   1      -5.800  -2.687 128.914  0.00  0.00    +0.000 C 
BRANCH  12  13
ATOM     13  C   LIG A   1      -5.190  -3.212 130.220  0.00  0.00    +0.004 C 
BRANCH  13  14
ATOM     14  C   LIG A   1      -5.406  -4.701 130.504  0.00  0.00    +0.026 C 
BRANCH  14  15
ATOM     15  C   LIG A   1      -5.424  -5.045 131.960  0.00  0.00    -0.035 C 
ATOM     16  C   LIG A   1      -5.949  -4.248 132.899  0.00  0.00    +0.004 C 
ENDBRANCH  14  15
ENDBRANCH  13  14
ENDBRANCH  12  13
ENDBRANCH  11  12
ENDBRANCH  10  11
ENDBRANCH   9  10
ENDBRANCH   8   9
ENDBRANCH   7   8
ENDBRANCH   6   7
BRANCH   4  17
ATOM     17  C   LIG A   1      -7.158   0.485 123.286  0.00  0.00    +0.048 C 
BRANCH  17  18
ATOM     18  C   LIG A   1      -7.982   1.440 124.194  0.00  0.00    +0.145 C 
BRANCH  18  19
ATOM     19  C   LIG A   1      -8.250   2.849 123.559  0.00  0.00    +0.191 C 
BRANCH  19  20
ATOM     20  O   LIG A   1      -7.796   2.887 122.224  0.00  0.00    -0.375 OA
BRANCH  20  21
ATOM     21  C   LIG A   1      -6.902   3.875 121.721  0.00  0.00    +0.112 C 
ATOM     22  C   LIG A   1      -5.644   3.889 122.560  0.00  0.00    +0.037 C 
ATOM     23  C   LIG A   1      -6.736   3.892 120.205  0.00  0.00    +0.037 C 
ENDBRANCH  20  21
ENDBRANCH  19  20
ENDBRANCH  18  19
BRANCH  18  24
ATOM     24  O   LIG A   1      -7.300   1.699 125.452  0.00  0.00    -0.372 OA
BRANCH  24  25
ATOM     25  C   LIG A   1      -5.904   1.376 125.558  0.00  0.00    +0.112 C 
ATOM     26  C   LIG A   1      -5.142   2.608 126.069  0.00  0.00    +0.037 C 
ATOM     27  C   LIG A   1      -5.625   0.185 126.478  0.00  0.00    +0.037 C 
ENDBRANCH  24  25
ENDBRANCH  18  24
ENDBRANCH  17  18
ENDBRANCH   4  17
TORSDOF 16
ENDMDL
MODEL 5
REMARK VINA RESULT:      -6.0      2.503      3.962
REMARK  Name = NuBBE_1799
REMARK  20 active torsions:
REMARK  status: ('A' for Active; 'I' for Inactive)
REMARK    1  A    between atoms: C_4  and  C_5
REMARK    2  A    between atoms: C_5  and  C_6
REMARK    3  A    between atoms: C_6  and  O_7
REMARK    4  A    between atoms: C_6  and  C_11
REMARK    5  A    between atoms: O_7  and  C_8
REMARK    6  A    between atoms: C_8  and  C_9
REMARK    7  A    between atoms: C_8  and  C_10
REMARK    8  A    between atoms: C_11  and  O_12
REMARK    9  A    between atoms: O_12  and  C_13
REMARK   10  A    between atoms: C_13  and  C_14
REMARK   11  A    between atoms: C_13  and  C_15
REMARK   12  A    between atoms: C_17  and  C_18
REMARK   13  A    between atoms: C_18  and  C_19
REMARK   14  A    between atoms: C_19  and  C_20
REMARK   15  A    between atoms: C_20  and  C_21
REMARK   16  A    between atoms: C_21  and  C_22
REMARK   17  A    between atoms: C_22  and  C_23
REMARK   18  A    between atoms: C_23  and  C_24
REMARK   19  A    between atoms: C_24  and  C_25
REMARK   20  A    between atoms: C_25  and  C_26
REMARK                            x       y       z     vdW  Elec       q    Type
REMARK                         _______ _______ _______ _____ _____    ______ ____
ROOT
ATOM      1  O   LIG A   1      -9.364   2.398 124.918  0.00  0.00    -0.251 OA
ATOM      2  C   LIG A   1      -8.716   1.461 124.366  0.00  0.00    +0.311 C 
ATOM      3  O   LIG A   1      -9.255   0.304 123.825  0.00  0.00    -0.461 OA
ATOM      4  C   LIG A   1      -7.235   1.370 124.247  0.00  0.00    +0.104 C 
ATOM      5  C   LIG A   1      -7.072   0.243 123.205  0.00  0.00    +0.059 C 
ATOM      6  C   LIG A   1      -8.204  -0.671 123.562  0.00  0.00    +0.177 C 
ENDROOT
BRANCH   6   7
ATOM      7  C   LIG A   1      -8.765  -1.773 122.663  0.00  0.00    +0.045 C 
BRANCH   7   8
ATOM      8  C   LIG A   1      -9.545  -2.872 123.369  0.00  0.00    +0.003 C 
BRANCH   8   9
ATOM      9  C   LIG A   1      -8.791  -3.479 124.566  0.00  0.00    +0.000 C 
BRANCH   9  10
ATOM     10  C   LIG A   1      -9.141  -3.000 125.984  0.00  0.00    -0.000 C 
BRANCH  10  11
ATOM     11  C   LIG A   1      -8.180  -2.048 126.706  0.00  0.00    +0.000 C 
BRANCH  11  12
ATOM     12  C   LIG A   1      -6.874  -2.645 127.252  0.00  0.00    +0.000 C 
BRANCH  12  13
ATOM     13  C   LIG A   1      -5.551  -2.167 126.639  0.00  0.00    +0.004 C 
BRANCH  13  14
ATOM     14  C   LIG A   1      -5.487  -2.169 125.109  0.00  0.00    +0.026 C 
BRANCH  14  15
ATOM     15  C   LIG A   1      -5.304  -3.529 124.511  0.00  0.00    -0.035 C 
ATOM     16  C   LIG A   1      -4.439  -3.788 123.522  0.00  0.00    +0.004 C 
ENDBRANCH  14  15
ENDBRANCH  13  14
ENDBRANCH  12  13
ENDBRANCH  11  12
ENDBRANCH  10  11
ENDBRANCH   9  10
ENDBRANCH   8   9
ENDBRANCH   7   8
ENDBRANCH   6   7
BRANCH   4  17
ATOM     17  C   LIG A   1      -6.409   1.261 125.557  0.00  0.00    +0.048 C 
BRANCH  17  18
ATOM     18  C   LIG A   1      -6.336   2.453 126.552  0.00  0.00    +0.145 C 
BRANCH  18  19
ATOM     19  C   LIG A   1      -5.224   3.504 126.205  0.00  0.00    +0.191 C 
BRANCH  19  20
ATOM     20  O   LIG A   1      -3.947   2.905 126.230  0.00  0.00    -0.375 OA
BRANCH  20  21
ATOM     21  C   LIG A   1      -2.908   3.297 127.122  0.00  0.00    +0.112 C 
ATOM     22  C   LIG A   1      -1.566   2.978 126.503  0.00  0.00    +0.037 C 
ATOM     23  C   LIG A   1      -3.080   4.673 127.756  0.00  0.00    +0.037 C 
ENDBRANCH  20  21
ENDBRANCH  19  20
ENDBRANCH  18  19
BRANCH  18  24
ATOM     24  O   LIG A   1      -6.043   2.002 127.903  0.00  0.00    -0.372 OA
BRANCH  24  25
ATOM     25  C   LIG A   1      -7.055   2.143 128.912  0.00  0.00    +0.112 C 
ATOM     26  C   LIG A   1      -6.917   3.525 129.570  0.00  0.00    +0.037 C 
ATOM     27  C   LIG A   1      -8.478   1.975 128.373  0.00  0.00    +0.037 C 
ENDBRANCH  24  25
ENDBRANCH  18  24
ENDBRANCH  17  18
ENDBRANCH   4  17
TORSDOF 16
ENDMDL
MODEL 6
REMARK VINA RESULT:      -6.0      2.886      5.866
REMARK  Name = NuBBE_1799
REMARK  20 active torsions:
REMARK  status: ('A' for Active; 'I' for Inactive)
REMARK    1  A    between atoms: C_4  and  C_5
REMARK    2  A    between atoms: C_5  and  C_6
REMARK    3  A    between atoms: C_6  and  O_7
REMARK    4  A    between atoms: C_6  and  C_11
REMARK    5  A    between atoms: O_7  and  C_8
REMARK    6  A    between atoms: C_8  and  C_9
REMARK    7  A    between atoms: C_8  and  C_10
REMARK    8  A    between atoms: C_11  and  O_12
REMARK    9  A    between atoms: O_12  and  C_13
REMARK   10  A    between atoms: C_13  and  C_14
REMARK   11  A    between atoms: C_13  and  C_15
REMARK   12  A    between atoms: C_17  and  C_18
REMARK   13  A    between atoms: C_18  and  C_19
REMARK   14  A    between atoms: C_19  and  C_20
REMARK   15  A    between atoms: C_20  and  C_21
REMARK   16  A    between atoms: C_21  and  C_22
REMARK   17  A    between atoms: C_22  and  C_23
REMARK   18  A    between atoms: C_23  and  C_24
REMARK   19  A    between atoms: C_24  and  C_25
REMARK   20  A    between atoms: C_25  and  C_26
REMARK                            x       y       z     vdW  Elec       q    Type
REMARK                         _______ _______ _______ _____ _____    ______ ____
ROOT
ATOM      1  O   LIG A   1      -8.689   4.738 125.725  0.00  0.00    -0.251 OA
ATOM      2  C   LIG A   1      -8.165   3.655 125.334  0.00  0.00    +0.311 C 
ATOM      3  O   LIG A   1      -8.734   2.742 124.459  0.00  0.00    -0.461 OA
ATOM      4  C   LIG A   1      -6.861   3.097 125.787  0.00  0.00    +0.104 C 
ATOM      5  C   LIG A   1      -6.606   1.998 124.734  0.00  0.00    +0.059 C 
ATOM      6  C   LIG A   1      -7.991   1.488 124.481  0.00  0.00    +0.177 C 
ENDROOT
BRANCH   6   7
ATOM      7  C   LIG A   1      -8.414   0.642 123.280  0.00  0.00    +0.045 C 
BRANCH   7   8
ATOM      8  C   LIG A   1      -8.904  -0.764 123.599  0.00  0.00    +0.003 C 
BRANCH   8   9
ATOM      9  C   LIG A   1      -8.189  -1.856 122.782  0.00  0.00    +0.000 C 
BRANCH   9  10
ATOM     10  C   LIG A   1      -6.652  -1.860 122.735  0.00  0.00    -0.000 C 
BRANCH  10  11
ATOM     11  C   LIG A   1      -5.871  -2.393 123.942  0.00  0.00    +0.000 C 
BRANCH  11  12
ATOM     12  C   LIG A   1      -5.488  -1.382 125.035  0.00  0.00    +0.000 C 
BRANCH  12  13
ATOM     13  C   LIG A   1      -5.856  -1.716 126.486  0.00  0.00    +0.004 C 
BRANCH  13  14
ATOM     14  C   LIG A   1      -7.335  -1.558 126.851  0.00  0.00    +0.026 C 
BRANCH  14  15
ATOM     15  C   LIG A   1      -8.070  -2.855 126.980  0.00  0.00    -0.035 C 
ATOM     16  C   LIG A   1      -9.188  -3.139 126.298  0.00  0.00    +0.004 C 
ENDBRANCH  14  15
ENDBRANCH  13  14
ENDBRANCH  12  13
ENDBRANCH  11  12
ENDBRANCH  10  11
ENDBRANCH   9  10
ENDBRANCH   8   9
ENDBRANCH   7   8
ENDBRANCH   6   7
BRANCH   4  17
ATOM     17  C   LIG A   1      -6.723   2.703 127.282  0.00  0.00    +0.048 C 
BRANCH  17  18
ATOM     18  C   LIG A   1      -6.338   3.764 128.351  0.00  0.00    +0.145 C 
BRANCH  18  19
ATOM     19  C   LIG A   1      -7.565   4.361 129.125  0.00  0.00    +0.191 C 
BRANCH  19  20
ATOM     20  O   LIG A   1      -7.287   5.673 129.563  0.00  0.00    -0.375 OA
BRANCH  20  21
ATOM     21  C   LIG A   1      -7.114   6.029 130.931  0.00  0.00    +0.112 C 
ATOM     22  C   LIG A   1      -5.890   6.906 131.072  0.00  0.00    +0.037 C 
ATOM     23  C   LIG A   1      -8.381   6.471 131.655  0.00  0.00    +0.037 C 
ENDBRANCH  20  21
ENDBRANCH  19  20
ENDBRANCH  18  19
BRANCH  18  24
ATOM     24  O   LIG A   1      -5.660   4.902 127.752  0.00  0.00    -0.372 OA
BRANCH  24  25
ATOM     25  C   LIG A   1      -4.225   4.953 127.800  0.00  0.00    +0.112 C 
ATOM     26  C   LIG A   1      -3.781   6.414 127.973  0.00  0.00    +0.037 C 
ATOM     27  C   LIG A   1      -3.624   4.101 128.920  0.00  0.00    +0.037 C 
ENDBRANCH  24  25
ENDBRANCH  18  24
ENDBRANCH  17  18
ENDBRANCH   4  17
TORSDOF 16
ENDMDL
MODEL 7
REMARK VINA RESULT:      -5.9      4.589      7.581
REMARK  Name = NuBBE_1799
REMARK  20 active torsions:
REMARK  status: ('A' for Active; 'I' for Inactive)
REMARK    1  A    between atoms: C_4  and  C_5
REMARK    2  A    between atoms: C_5  and  C_6
REMARK    3  A    between atoms: C_6  and  O_7
REMARK    4  A    between atoms: C_6  and  C_11
REMARK    5  A    between atoms: O_7  and  C_8
REMARK    6  A    between atoms: C_8  and  C_9
REMARK    7  A    between atoms: C_8  and  C_10
REMARK    8  A    between atoms: C_11  and  O_12
REMARK    9  A    between atoms: O_12  and  C_13
REMARK   10  A    between atoms: C_13  and  C_14
REMARK   11  A    between atoms: C_13  and  C_15
REMARK   12  A    between atoms: C_17  and  C_18
REMARK   13  A    between atoms: C_18  and  C_19
REMARK   14  A    between atoms: C_19  and  C_20
REMARK   15  A    between atoms: C_20  and  C_21
REMARK   16  A    between atoms: C_21  and  C_22
REMARK   17  A    between atoms: C_22  and  C_23
REMARK   18  A    between atoms: C_23  and  C_24
REMARK   19  A    between atoms: C_24  and  C_25
REMARK   20  A    between atoms: C_25  and  C_26
REMARK                            x       y       z     vdW  Elec       q    Type
REMARK                         _______ _______ _______ _____ _____    ______ ____
ROOT
ATOM      1  O   LIG A   1      -8.450   4.822 126.659  0.00  0.00    -0.251 OA
ATOM      2  C   LIG A   1      -7.727   4.355 127.586  0.00  0.00    +0.311 C 
ATOM      3  O   LIG A   1      -7.420   4.988 128.781  0.00  0.00    -0.461 OA
ATOM      4  C   LIG A   1      -6.994   3.059 127.560  0.00  0.00    +0.104 C 
ATOM      5  C   LIG A   1      -6.611   2.884 129.044  0.00  0.00    +0.059 C 
ATOM      6  C   LIG A   1      -6.332   4.296 129.458  0.00  0.00    +0.177 C 
ENDROOT
BRANCH   6   7
ATOM      7  C   LIG A   1      -6.251   4.792 130.902  0.00  0.00    +0.045 C 
BRANCH   7   8
ATOM      8  C   LIG A   1      -6.838   6.172 131.163  0.00  0.00    +0.003 C 
BRANCH   8   9
ATOM      9  C   LIG A   1      -8.081   6.141 132.071  0.00  0.00    +0.000 C 
BRANCH   9  10
ATOM     10  C   LIG A   1      -7.937   5.611 133.507  0.00  0.00    -0.000 C 
BRANCH  10  11
ATOM     11  C   LIG A   1      -8.709   4.350 133.916  0.00  0.00    +0.000 C 
BRANCH  11  12
ATOM     12  C   LIG A   1      -7.977   3.005 133.790  0.00  0.00    +0.000 C 
BRANCH  12  13
ATOM     13  C   LIG A   1      -8.281   2.130 132.567  0.00  0.00    +0.004 C 
BRANCH  13  14
ATOM     14  C   LIG A   1      -9.709   2.220 132.023  0.00  0.00    +0.026 C 
BRANCH  14  15
ATOM     15  C   LIG A   1      -9.812   2.916 130.702  0.00  0.00    -0.035 C 
ATOM     16  C   LIG A   1     -10.580   3.994 130.495  0.00  0.00    +0.004 C 
ENDBRANCH  14  15
ENDBRANCH  13  14
ENDBRANCH  12  13
ENDBRANCH  11  12
ENDBRANCH  10  11
ENDBRANCH   9  10
ENDBRANCH   8   9
ENDBRANCH   7   8
ENDBRANCH   6   7
BRANCH   4  17
ATOM     17  C   LIG A   1      -5.870   2.885 126.503  0.00  0.00    +0.048 C 
BRANCH  17  18
ATOM     18  C   LIG A   1      -5.173   4.124 125.873  0.00  0.00    +0.145 C 
BRANCH  18  19
ATOM     19  C   LIG A   1      -5.600   4.407 124.390  0.00  0.00    +0.191 C 
BRANCH  19  20
ATOM     20  O   LIG A   1      -6.732   3.641 124.042  0.00  0.00    -0.375 OA
BRANCH  20  21
ATOM     21  C   LIG A   1      -6.921   3.047 122.762  0.00  0.00    +0.112 C 
ATOM     22  C   LIG A   1      -8.395   3.032 122.426  0.00  0.00    +0.037 C 
ATOM     23  C   LIG A   1      -5.958   3.519 121.677  0.00  0.00    +0.037 C 
ENDBRANCH  20  21
ENDBRANCH  19  20
ENDBRANCH  18  19
BRANCH  18  24
ATOM     24  O   LIG A   1      -3.728   3.965 125.843  0.00  0.00    -0.372 OA
BRANCH  24  25
ATOM     25  C   LIG A   1      -3.052   3.580 127.051  0.00  0.00    +0.112 C 
ATOM     26  C   LIG A   1      -1.674   3.004 126.691  0.00  0.00    +0.037 C 
ATOM     27  C   LIG A   1      -2.881   4.731 128.045  0.00  0.00    +0.037 C 
ENDBRANCH  24  25
ENDBRANCH  18  24
ENDBRANCH  17  18
ENDBRANCH   4  17
TORSDOF 16
ENDMDL
MODEL 8
REMARK VINA RESULT:      -5.9      6.574      9.748
REMARK  Name = NuBBE_1799
REMARK  20 active torsions:
REMARK  status: ('A' for Active; 'I' for Inactive)
REMARK    1  A    between atoms: C_4  and  C_5
REMARK    2  A    between atoms: C_5  and  C_6
REMARK    3  A    between atoms: C_6  and  O_7
REMARK    4  A    between atoms: C_6  and  C_11
REMARK    5  A    between atoms: O_7  and  C_8
REMARK    6  A    between atoms: C_8  and  C_9
REMARK    7  A    between atoms: C_8  and  C_10
REMARK    8  A    between atoms: C_11  and  O_12
REMARK    9  A    between atoms: O_12  and  C_13
REMARK   10  A    between atoms: C_13  and  C_14
REMARK   11  A    between atoms: C_13  and  C_15
REMARK   12  A    between atoms: C_17  and  C_18
REMARK   13  A    between atoms: C_18  and  C_19
REMARK   14  A    between atoms: C_19  and  C_20
REMARK   15  A    between atoms: C_20  and  C_21
REMARK   16  A    between atoms: C_21  and  C_22
REMARK   17  A    between atoms: C_22  and  C_23
REMARK   18  A    between atoms: C_23  and  C_24
REMARK   19  A    between atoms: C_24  and  C_25
REMARK   20  A    between atoms: C_25  and  C_26
REMARK                            x       y       z     vdW  Elec       q    Type
REMARK                         _______ _______ _______ _____ _____    ______ ____
ROOT
ATOM      1  O   LIG A   1      -8.681   7.887 129.932  0.00  0.00    -0.251 OA
ATOM      2  C   LIG A   1      -8.159   6.997 130.664  0.00  0.00    +0.311 C 
ATOM      3  O   LIG A   1      -6.953   6.353 130.431  0.00  0.00    -0.461 OA
ATOM      4  C   LIG A   1      -8.761   6.402 131.888  0.00  0.00    +0.104 C 
ATOM      5  C   LIG A   1      -7.551   5.677 132.514  0.00  0.00    +0.059 C 
ATOM      6  C   LIG A   1      -6.822   5.190 131.299  0.00  0.00    +0.177 C 
ENDROOT
BRANCH   6   7
ATOM      7  C   LIG A   1      -5.371   4.713 131.273  0.00  0.00    +0.045 C 
BRANCH   7   8
ATOM      8  C   LIG A   1      -4.487   5.214 132.407  0.00  0.00    +0.003 C 
BRANCH   8   9
ATOM      9  C   LIG A   1      -4.009   6.664 132.210  0.00  0.00    +0.000 C 
BRANCH   9  10
ATOM     10  C   LIG A   1      -3.545   7.109 130.814  0.00  0.00    -0.000 C 
BRANCH  10  11
ATOM     11  C   LIG A   1      -2.228   6.557 130.256  0.00  0.00    +0.000 C 
BRANCH  11  12
ATOM     12  C   LIG A   1      -2.109   6.429 128.729  0.00  0.00    +0.000 C 
BRANCH  12  13
ATOM     13  C   LIG A   1      -3.014   5.414 128.018  0.00  0.00    +0.004 C 
BRANCH  13  14
ATOM     14  C   LIG A   1      -2.961   3.982 128.558  0.00  0.00    +0.026 C 
BRANCH  14  15
ATOM     15  C   LIG A   1      -3.901   3.040 127.874  0.00  0.00    -0.035 C 
ATOM     16  C   LIG A   1      -4.820   3.434 126.983  0.00  0.00    +0.004 C 
ENDBRANCH  14  15
ENDBRANCH  13  14
ENDBRANCH  12  13
ENDBRANCH  11  12
ENDBRANCH  10  11
ENDBRANCH   9  10
ENDBRANCH   8   9
ENDBRANCH   7   8
ENDBRANCH   6   7
BRANCH   4  17
ATOM     17  C   LIG A   1     -10.077   5.593 131.727  0.00  0.00    +0.048 C 
BRANCH  17  18
ATOM     18  C   LIG A   1     -10.543   5.105 130.327  0.00  0.00    +0.145 C 
BRANCH  18  19
ATOM     19  C   LIG A   1     -11.952   5.646 129.901  0.00  0.00    +0.191 C 
BRANCH  19  20
ATOM     20  O   LIG A   1     -11.904   6.193 128.602  0.00  0.00    -0.375 OA
BRANCH  20  21
ATOM     21  C   LIG A   1     -12.023   7.585 128.326  0.00  0.00    +0.112 C 
ATOM     22  C   LIG A   1     -12.218   8.341 129.620  0.00  0.00    +0.037 C 
ATOM     23  C   LIG A   1     -11.006   8.140 127.334  0.00  0.00    +0.037 C 
ENDBRANCH  20  21
ENDBRANCH  19  20
ENDBRANCH  18  19
BRANCH  18  24
ATOM     24  O   LIG A   1     -10.647   3.655 130.276  0.00  0.00    -0.372 OA
BRANCH  24  25
ATOM     25  C   LIG A   1      -9.534   2.868 130.729  0.00  0.00    +0.112 C 
ATOM     26  C   LIG A   1     -10.037   1.824 131.738  0.00  0.00    +0.037 C 
ATOM     27  C   LIG A   1      -8.786   2.164 129.595  0.00  0.00    +0.037 C 
ENDBRANCH  24  25
ENDBRANCH  18  24
ENDBRANCH  17  18
ENDBRANCH   4  17
TORSDOF 16
ENDMDL
MODEL 9
REMARK VINA RESULT:      -5.9      4.561      7.114
REMARK  Name = NuBBE_1799
REMARK  20 active torsions:
REMARK  status: ('A' for Active; 'I' for Inactive)
REMARK    1  A    between atoms: C_4  and  C_5
REMARK    2  A    between atoms: C_5  and  C_6
REMARK    3  A    between atoms: C_6  and  O_7
REMARK    4  A    between atoms: C_6  and  C_11
REMARK    5  A    between atoms: O_7  and  C_8
REMARK    6  A    between atoms: C_8  and  C_9
REMARK    7  A    between atoms: C_8  and  C_10
REMARK    8  A    between atoms: C_11  and  O_12
REMARK    9  A    between atoms: O_12  and  C_13
REMARK   10  A    between atoms: C_13  and  C_14
REMARK   11  A    between atoms: C_13  and  C_15
REMARK   12  A    between atoms: C_17  and  C_18
REMARK   13  A    between atoms: C_18  and  C_19
REMARK   14  A    between atoms: C_19  and  C_20
REMARK   15  A    between atoms: C_20  and  C_21
REMARK   16  A    between atoms: C_21  and  C_22
REMARK   17  A    between atoms: C_22  and  C_23
REMARK   18  A    between atoms: C_23  and  C_24
REMARK   19  A    between atoms: C_24  and  C_25
REMARK   20  A    between atoms: C_25  and  C_26
REMARK                            x       y       z     vdW  Elec       q    Type
REMARK                         _______ _______ _______ _____ _____    ______ ____
ROOT
ATOM      1  O   LIG A   1      -6.752   2.697 132.034  0.00  0.00    -0.251 OA
ATOM      2  C   LIG A   1      -7.323   1.596 131.784  0.00  0.00    +0.311 C 
ATOM      3  O   LIG A   1      -6.792   0.551 131.043  0.00  0.00    -0.461 OA
ATOM      4  C   LIG A   1      -8.710   1.219 132.170  0.00  0.00    +0.104 C 
ATOM      5  C   LIG A   1      -8.704  -0.304 131.920  0.00  0.00    +0.059 C 
ATOM      6  C   LIG A   1      -7.833  -0.413 130.706  0.00  0.00    +0.177 C 
ENDROOT
BRANCH   6   7
ATOM      7  C   LIG A   1      -7.175  -1.698 130.205  0.00  0.00    +0.045 C 
BRANCH   7   8
ATOM      8  C   LIG A   1      -8.089  -2.670 129.474  0.00  0.00    +0.003 C 
BRANCH   8   9
ATOM      9  C   LIG A   1      -7.940  -2.611 127.943  0.00  0.00    +0.000 C 
BRANCH   9  10
ATOM     10  C   LIG A   1      -8.844  -3.499 127.074  0.00  0.00    -0.000 C 
BRANCH  10  11
ATOM     11  C   LIG A   1      -9.443  -2.919 125.787  0.00  0.00    +0.000 C 
BRANCH  11  12
ATOM     12  C   LIG A   1      -8.804  -3.350 124.457  0.00  0.00    +0.000 C 
BRANCH  12  13
ATOM     13  C   LIG A   1      -7.318  -3.730 124.460  0.00  0.00    +0.004 C 
BRANCH  13  14
ATOM     14  C   LIG A   1      -6.377  -2.742 123.766  0.00  0.00    +0.026 C 
BRANCH  14  15
ATOM     15  C   LIG A   1      -4.948  -3.186 123.733  0.00  0.00    -0.035 C 
ATOM     16  C   LIG A   1      -4.576  -4.472 123.741  0.00  0.00    +0.004 C 
ENDBRANCH  14  15
ENDBRANCH  13  14
ENDBRANCH  12  13
ENDBRANCH  11  12
ENDBRANCH  10  11
ENDBRANCH   9  10
ENDBRANCH   8   9
ENDBRANCH   7   8
ENDBRANCH   6   7
BRANCH   4  17
ATOM     17  C   LIG A   1      -9.879   2.041 131.561  0.00  0.00    +0.048 C 
BRANCH  17  18
ATOM     18  C   LIG A   1      -9.597   3.282 130.670  0.00  0.00    +0.145 C 
BRANCH  18  19
ATOM     19  C   LIG A   1     -10.656   4.429 130.823  0.00  0.00    +0.191 C 
BRANCH  19  20
ATOM     20  O   LIG A   1     -10.146   5.648 130.330  0.00  0.00    -0.375 OA
BRANCH  20  21
ATOM     21  C   LIG A   1     -10.935   6.617 129.647  0.00  0.00    +0.112 C 
ATOM     22  C   LIG A   1     -12.202   6.877 130.430  0.00  0.00    +0.037 C 
ATOM     23  C   LIG A   1     -10.170   7.829 129.127  0.00  0.00    +0.037 C 
ENDBRANCH  20  21
ENDBRANCH  19  20
ENDBRANCH  18  19
BRANCH  18  24
ATOM     24  O   LIG A   1      -9.596   2.935 129.258  0.00  0.00    -0.372 OA
BRANCH  24  25
ATOM     25  C   LIG A   1      -8.339   2.683 128.611  0.00  0.00    +0.112 C 
ATOM     26  C   LIG A   1      -8.489   1.471 127.678  0.00  0.00    +0.037 C 
ATOM     27  C   LIG A   1      -7.815   3.878 127.814  0.00  0.00    +0.037 C 
ENDBRANCH  24  25
ENDBRANCH  18  24
ENDBRANCH  17  18
ENDBRANCH   4  17
TORSDOF 16
ENDMDL
