MODEL 1
REMARK VINA RESULT:      -8.9      0.000      0.000
REMARK  Name = NuBBE_281
REMARK  16 active torsions:
REMARK  status: ('A' for Active; 'I' for Inactive)
REMARK    1  A    between atoms: O_1  and  C_2
REMARK    2  A    between atoms: C_5  and  O_6
REMARK    3  A    between atoms: O_6  and  C_7
REMARK    4  A    between atoms: C_10  and  C_18
REMARK    5  A    between atoms: C_12  and  O_17
REMARK    6  A    between atoms: C_14  and  O_16
REMARK    7  A    between atoms: C_18  and  O_19
REMARK    8  A    between atoms: O_19  and  C_20
REMARK    9  A    between atoms: C_23  and  C_31
REMARK   10  A    between atoms: C_25  and  O_30
REMARK   11  A    between atoms: C_27  and  O_29
REMARK   12  A    between atoms: C_32  and  O_34
REMARK   13  A    between atoms: C_35  and  O_37
REMARK   14  A    between atoms: C_38  and  C_45
REMARK   15  A    between atoms: C_42  and  O_43
REMARK   16  A    between atoms: C_48  and  O_51
REMARK                            x       y       z     vdW  Elec       q    Type
REMARK                         _______ _______ _______ _____ _____    ______ ____
ROOT
ATOM      1  C   LIG A   1      -7.903   4.637 126.270  0.00  0.00    +0.340 C 
ATOM      2  O   LIG A   1      -8.890   4.215 125.299  0.00  0.00    -0.331 OA
ATOM      3  C   LIG A   1      -8.566   3.066 124.508  0.00  0.00    +0.179 C 
ATOM      4  C   LIG A   1      -7.183   3.208 123.830  0.00  0.00    +0.177 C 
ATOM      5  C   LIG A   1      -6.086   3.614 124.817  0.00  0.00    +0.180 C 
ATOM      6  C   LIG A   1      -6.522   4.844 125.604  0.00  0.00    +0.214 C 
ENDROOT
BRANCH   5   7
ATOM      7  O   LIG A   1      -5.777   2.540 125.706  0.00  0.00    -0.386 OA
ATOM      8  H   LIG A   1      -5.179   2.895 126.389  0.00  0.00    +0.210 HD
ENDBRANCH   5   7
BRANCH   4   9
ATOM      9  O   LIG A   1      -6.765   2.060 123.095  0.00  0.00    -0.387 OA
ATOM     10  H   LIG A   1      -7.322   1.326 123.419  0.00  0.00    +0.210 HD
ENDBRANCH   4   9
BRANCH   6  11
ATOM     11  O   LIG A   1      -6.563   5.975 124.712  0.00  0.00    -0.383 OA
ATOM     12  H   LIG A   1      -5.653   6.316 124.612  0.00  0.00    +0.210 HD
ENDBRANCH   6  11
BRANCH   1  13
ATOM     13  O   LIG A   1      -7.938   3.836 127.455  0.00  0.00    -0.453 OA
BRANCH  13  17
ATOM     14  C   LIG A   1      -9.692   5.797 131.616  0.00  0.00    +0.135 A 
ATOM     15  C   LIG A   1      -8.634   5.309 130.841  0.00  0.00    +0.109 A 
ATOM     16  C   LIG A   1      -8.785   4.993 129.413  0.00  0.00    +0.238 A 
ATOM     17  C   LIG A   1      -7.625   4.347 128.703  0.00  0.00    +0.214 A 
ATOM     18  C   LIG A   1      -6.432   4.405 129.353  0.00  0.00    +0.181 A 
ATOM     19  O   LIG A   1      -6.299   4.745 130.700  0.00  0.00    -0.451 OA
ATOM     20  C   LIG A   1      -7.403   5.081 131.431  0.00  0.00    +0.146 A 
ATOM     21  C   LIG A   1      -7.235   5.240 132.811  0.00  0.00    +0.092 A 
ATOM     22  C   LIG A   1      -8.310   5.674 133.581  0.00  0.00    +0.124 A 
ATOM     23  C   LIG A   1      -9.530   5.984 132.988  0.00  0.00    +0.091 A 
ATOM     24  O   LIG A   1      -9.834   5.258 128.849  0.00  0.00    -0.283 OA
BRANCH  18  25
ATOM     25  C   LIG A   1      -5.096   4.140 128.758  0.00  0.00    +0.021 A 
ATOM     26  C   LIG A   1      -4.550   2.845 128.770  0.00  0.00    +0.015 A 
ATOM     27  C   LIG A   1      -3.296   2.584 128.206  0.00  0.00    +0.046 A 
ATOM     28  C   LIG A   1      -2.593   3.617 127.601  0.00  0.00    +0.117 A 
ATOM     29  C   LIG A   1      -3.088   4.911 127.614  0.00  0.00    +0.046 A 
ATOM     30  C   LIG A   1      -4.303   5.180 128.249  0.00  0.00    +0.015 A 
BRANCH  28  31
ATOM     31  O   LIG A   1      -1.396   3.403 126.987  0.00  0.00    -0.507 OA
ATOM     32  H   LIG A   1      -0.868   4.217 127.036  0.00  0.00    +0.292 HD
ENDBRANCH  28  31
ENDBRANCH  18  25
BRANCH  14  33
ATOM     33  O   LIG A   1     -10.913   6.122 131.091  0.00  0.00    -0.506 OA
ATOM     34  H   LIG A   1     -11.188   5.398 130.483  0.00  0.00    +0.292 HD
ENDBRANCH  14  33
BRANCH  22  35
ATOM     35  O   LIG A   1      -8.206   5.820 134.933  0.00  0.00    -0.506 OA
ATOM     36  H   LIG A   1      -8.039   4.956 135.343  0.00  0.00    +0.292 HD
ENDBRANCH  22  35
ENDBRANCH  13  17
ENDBRANCH   1  13
BRANCH   3  37
ATOM     37  C   LIG A   1      -8.861   1.748 125.251  0.00  0.00    +0.197 C 
BRANCH  37  38
ATOM     38  O   LIG A   1      -8.130   0.675 124.644  0.00  0.00    -0.346 OA
BRANCH  38  39
ATOM     39  C   LIG A   1      -7.502  -0.181 125.600  0.00  0.00    +0.282 C 
ATOM     40  O   LIG A   1      -6.471  -0.988 125.016  0.00  0.00    -0.343 OA
ATOM     41  C   LIG A   1      -6.929  -1.791 123.922  0.00  0.00    +0.149 C 
ATOM     42  C   LIG A   1      -8.099  -2.716 124.298  0.00  0.00    +0.174 C 
ATOM     43  C   LIG A   1      -9.170  -1.974 125.109  0.00  0.00    +0.179 C 
ATOM     44  C   LIG A   1      -5.735  -2.589 123.416  0.00  0.00    +0.040 C 
ATOM     45  C   LIG A   1      -8.534  -1.139 126.232  0.00  0.00    +0.201 C 
BRANCH  43  46
ATOM     46  O   LIG A   1     -10.125  -2.912 125.618  0.00  0.00    -0.386 OA
ATOM     47  H   LIG A   1     -10.711  -3.138 124.871  0.00  0.00    +0.210 HD
ENDBRANCH  43  46
BRANCH  42  48
ATOM     48  O   LIG A   1      -8.712  -3.273 123.125  0.00  0.00    -0.387 OA
ATOM     49  H   LIG A   1      -9.115  -2.544 122.617  0.00  0.00    +0.210 HD
ENDBRANCH  42  48
BRANCH  45  50
ATOM     50  O   LIG A   1      -7.873  -1.982 127.195  0.00  0.00    -0.384 OA
ATOM     51  H   LIG A   1      -8.480  -2.082 127.953  0.00  0.00    +0.210 HD
ENDBRANCH  45  50
ENDBRANCH  38  39
ENDBRANCH  37  38
ENDBRANCH   3  37
TORSDOF 15
ENDMDL
MODEL 2
REMARK VINA RESULT:      -8.7      1.924      8.219
REMARK  Name = NuBBE_281
REMARK  16 active torsions:
REMARK  status: ('A' for Active; 'I' for Inactive)
REMARK    1  A    between atoms: O_1  and  C_2
REMARK    2  A    between atoms: C_5  and  O_6
REMARK    3  A    between atoms: O_6  and  C_7
REMARK    4  A    between atoms: C_10  and  C_18
REMARK    5  A    between atoms: C_12  and  O_17
REMARK    6  A    between atoms: C_14  and  O_16
REMARK    7  A    between atoms: C_18  and  O_19
REMARK    8  A    between atoms: O_19  and  C_20
REMARK    9  A    between atoms: C_23  and  C_31
REMARK   10  A    between atoms: C_25  and  O_30
REMARK   11  A    between atoms: C_27  and  O_29
REMARK   12  A    between atoms: C_32  and  O_34
REMARK   13  A    between atoms: C_35  and  O_37
REMARK   14  A    between atoms: C_38  and  C_45
REMARK   15  A    between atoms: C_42  and  O_43
REMARK   16  A    between atoms: C_48  and  O_51
REMARK                            x       y       z     vdW  Elec       q    Type
REMARK                         _______ _______ _______ _____ _____    ______ ____
ROOT
ATOM      1  C   LIG A   1      -5.208   2.384 127.195  0.00  0.00    +0.340 C 
ATOM      2  O   LIG A   1      -5.435   2.468 128.622  0.00  0.00    -0.331 OA
ATOM      3  C   LIG A   1      -5.647   3.775 129.165  0.00  0.00    +0.179 C 
ATOM      4  C   LIG A   1      -4.527   4.757 128.749  0.00  0.00    +0.177 C 
ATOM      5  C   LIG A   1      -4.267   4.744 127.242  0.00  0.00    +0.180 C 
ATOM      6  C   LIG A   1      -4.050   3.314 126.762  0.00  0.00    +0.214 C 
ENDROOT
BRANCH   5   7
ATOM      7  O   LIG A   1      -5.350   5.346 126.532  0.00  0.00    -0.386 OA
ATOM      8  H   LIG A   1      -6.131   4.778 126.662  0.00  0.00    +0.210 HD
ENDBRANCH   5   7
BRANCH   4   9
ATOM      9  O   LIG A   1      -4.724   6.099 129.191  0.00  0.00    -0.387 OA
ATOM     10  H   LIG A   1      -3.832   6.442 129.388  0.00  0.00    +0.210 HD
ENDBRANCH   4   9
BRANCH   6  11
ATOM     11  O   LIG A   1      -2.799   2.833 127.291  0.00  0.00    -0.383 OA
ATOM     12  H   LIG A   1      -2.168   2.751 126.551  0.00  0.00    +0.210 HD
ENDBRANCH   6  11
BRANCH   1  13
ATOM     13  O   LIG A   1      -6.425   2.475 126.449  0.00  0.00    -0.453 OA
BRANCH  13  17
ATOM     14  C   LIG A   1      -8.279  -2.071 126.076  0.00  0.00    +0.135 A 
ATOM     15  C   LIG A   1      -7.852  -0.869 125.500  0.00  0.00    +0.109 A 
ATOM     16  C   LIG A   1      -7.139   0.163 126.267  0.00  0.00    +0.238 A 
ATOM     17  C   LIG A   1      -6.843   1.473 125.589  0.00  0.00    +0.214 A 
ATOM     18  C   LIG A   1      -6.970   1.477 124.235  0.00  0.00    +0.181 A 
ATOM     19  O   LIG A   1      -7.615   0.472 123.515  0.00  0.00    -0.451 OA
ATOM     20  C   LIG A   1      -8.130  -0.613 124.168  0.00  0.00    +0.146 A 
ATOM     21  C   LIG A   1      -8.916  -1.498 123.422  0.00  0.00    +0.092 A 
ATOM     22  C   LIG A   1      -9.381  -2.664 124.022  0.00  0.00    +0.124 A 
ATOM     23  C   LIG A   1      -9.042  -2.973 125.336  0.00  0.00    +0.091 A 
ATOM     24  O   LIG A   1      -6.812  -0.068 127.420  0.00  0.00    -0.283 OA
BRANCH  18  25
ATOM     25  C   LIG A   1      -6.445   2.514 123.308  0.00  0.00    +0.021 A 
ATOM     26  C   LIG A   1      -5.737   3.623 123.801  0.00  0.00    +0.015 A 
ATOM     27  C   LIG A   1      -5.232   4.601 122.936  0.00  0.00    +0.046 A 
ATOM     28  C   LIG A   1      -5.410   4.457 121.567  0.00  0.00    +0.117 A 
ATOM     29  C   LIG A   1      -6.142   3.395 121.058  0.00  0.00    +0.046 A 
ATOM     30  C   LIG A   1      -6.711   2.465 121.931  0.00  0.00    +0.015 A 
BRANCH  28  31
ATOM     31  O   LIG A   1      -4.889   5.349 120.680  0.00  0.00    -0.507 OA
ATOM     32  H   LIG A   1      -4.738   6.193 121.136  0.00  0.00    +0.292 HD
ENDBRANCH  28  31
ENDBRANCH  18  25
BRANCH  14  33
ATOM     33  O   LIG A   1      -7.976  -2.430 127.361  0.00  0.00    -0.506 OA
ATOM     34  H   LIG A   1      -7.024  -2.675 127.395  0.00  0.00    +0.292 HD
ENDBRANCH  14  33
BRANCH  22  35
ATOM     35  O   LIG A   1     -10.172  -3.547 123.347  0.00  0.00    -0.506 OA
ATOM     36  H   LIG A   1      -9.811  -4.444 123.439  0.00  0.00    +0.292 HD
ENDBRANCH  22  35
ENDBRANCH  13  17
ENDBRANCH   1  13
BRANCH   3  37
ATOM     37  C   LIG A   1      -7.105   4.246 128.993  0.00  0.00    +0.197 C 
BRANCH  37  38
ATOM     38  O   LIG A   1      -7.770   4.241 130.262  0.00  0.00    -0.346 OA
BRANCH  38  39
ATOM     39  C   LIG A   1      -9.120   3.780 130.181  0.00  0.00    +0.282 C 
ATOM     40  O   LIG A   1     -10.039   4.835 129.873  0.00  0.00    -0.343 OA
ATOM     41  C   LIG A   1      -9.988   5.923 130.803  0.00  0.00    +0.149 C 
ATOM     42  C   LIG A   1     -10.236   5.489 132.257  0.00  0.00    +0.174 C 
ATOM     43  C   LIG A   1      -9.432   4.232 132.617  0.00  0.00    +0.179 C 
ATOM     44  C   LIG A   1     -11.016   6.953 130.352  0.00  0.00    +0.040 C 
ATOM     45  C   LIG A   1      -9.563   3.160 131.522  0.00  0.00    +0.201 C 
BRANCH  43  46
ATOM     46  O   LIG A   1      -9.852   3.741 133.895  0.00  0.00    -0.386 OA
ATOM     47  H   LIG A   1     -10.692   3.266 133.744  0.00  0.00    +0.210 HD
ENDBRANCH  43  46
BRANCH  42  48
ATOM     48  O   LIG A   1      -9.886   6.538 133.174  0.00  0.00    -0.387 OA
ATOM     49  H   LIG A   1      -9.435   6.134 133.940  0.00  0.00    +0.210 HD
ENDBRANCH  42  48
BRANCH  45  50
ATOM     50  O   LIG A   1     -10.923   2.699 131.407  0.00  0.00    -0.384 OA
ATOM     51  H   LIG A   1     -11.501   3.464 131.588  0.00  0.00    +0.210 HD
ENDBRANCH  45  50
ENDBRANCH  38  39
ENDBRANCH  37  38
ENDBRANCH   3  37
TORSDOF 15
ENDMDL
MODEL 3
REMARK VINA RESULT:      -8.7      2.505      7.999
REMARK  Name = NuBBE_281
REMARK  16 active torsions:
REMARK  status: ('A' for Active; 'I' for Inactive)
REMARK    1  A    between atoms: O_1  and  C_2
REMARK    2  A    between atoms: C_5  and  O_6
REMARK    3  A    between atoms: O_6  and  C_7
REMARK    4  A    between atoms: C_10  and  C_18
REMARK    5  A    between atoms: C_12  and  O_17
REMARK    6  A    between atoms: C_14  and  O_16
REMARK    7  A    between atoms: C_18  and  O_19
REMARK    8  A    between atoms: O_19  and  C_20
REMARK    9  A    between atoms: C_23  and  C_31
REMARK   10  A    between atoms: C_25  and  O_30
REMARK   11  A    between atoms: C_27  and  O_29
REMARK   12  A    between atoms: C_32  and  O_34
REMARK   13  A    between atoms: C_35  and  O_37
REMARK   14  A    between atoms: C_38  and  C_45
REMARK   15  A    between atoms: C_42  and  O_43
REMARK   16  A    between atoms: C_48  and  O_51
REMARK                            x       y       z     vdW  Elec       q    Type
REMARK                         _______ _______ _______ _____ _____    ______ ____
ROOT
ATOM      1  C   LIG A   1      -4.882   1.643 128.475  0.00  0.00    +0.340 C 
ATOM      2  O   LIG A   1      -4.145   1.700 129.719  0.00  0.00    -0.331 OA
ATOM      3  C   LIG A   1      -4.184   2.940 130.436  0.00  0.00    +0.179 C 
ATOM      4  C   LIG A   1      -3.794   4.135 129.534  0.00  0.00    +0.177 C 
ATOM      5  C   LIG A   1      -4.571   4.152 128.217  0.00  0.00    +0.180 C 
ATOM      6  C   LIG A   1      -4.465   2.796 127.531  0.00  0.00    +0.214 C 
ENDROOT
BRANCH   5   7
ATOM      7  O   LIG A   1      -5.941   4.492 128.437  0.00  0.00    -0.386 OA
ATOM      8  H   LIG A   1      -6.480   3.827 127.971  0.00  0.00    +0.210 HD
ENDBRANCH   5   7
BRANCH   4   9
ATOM      9  O   LIG A   1      -3.894   5.409 130.167  0.00  0.00    -0.387 OA
ATOM     10  H   LIG A   1      -3.865   5.226 131.126  0.00  0.00    +0.210 HD
ENDBRANCH   4   9
BRANCH   6  11
ATOM     11  O   LIG A   1      -3.109   2.608 127.082  0.00  0.00    -0.383 OA
ATOM     12  H   LIG A   1      -2.590   2.248 127.826  0.00  0.00    +0.210 HD
ENDBRANCH   6  11
BRANCH   1  13
ATOM     13  O   LIG A   1      -6.284   1.455 128.688  0.00  0.00    -0.453 OA
BRANCH  13  17
ATOM     14  C   LIG A   1      -9.233   2.025 124.786  0.00  0.00    +0.135 A 
ATOM     15  C   LIG A   1      -8.564   1.214 125.710  0.00  0.00    +0.109 A 
ATOM     16  C   LIG A   1      -7.898   1.762 126.901  0.00  0.00    +0.238 A 
ATOM     17  C   LIG A   1      -7.094   0.822 127.759  0.00  0.00    +0.214 A 
ATOM     18  C   LIG A   1      -7.314  -0.503 127.546  0.00  0.00    +0.181 A 
ATOM     19  O   LIG A   1      -7.982  -1.007 126.430  0.00  0.00    -0.451 OA
ATOM     20  C   LIG A   1      -8.492  -0.151 125.495  0.00  0.00    +0.146 A 
ATOM     21  C   LIG A   1      -8.994  -0.714 124.316  0.00  0.00    +0.092 A 
ATOM     22  C   LIG A   1      -9.608   0.110 123.378  0.00  0.00    +0.124 A 
ATOM     23  C   LIG A   1      -9.760   1.473 123.619  0.00  0.00    +0.091 A 
ATOM     24  O   LIG A   1      -8.013   2.949 127.157  0.00  0.00    -0.283 OA
BRANCH  18  25
ATOM     25  C   LIG A   1      -6.907  -1.615 128.445  0.00  0.00    +0.021 A 
ATOM     26  C   LIG A   1      -7.849  -2.240 129.281  0.00  0.00    +0.015 A 
ATOM     27  C   LIG A   1      -7.479  -3.293 130.125  0.00  0.00    +0.046 A 
ATOM     28  C   LIG A   1      -6.166  -3.745 130.116  0.00  0.00    +0.117 A 
ATOM     29  C   LIG A   1      -5.209  -3.117 129.333  0.00  0.00    +0.046 A 
ATOM     30  C   LIG A   1      -5.567  -2.016 128.553  0.00  0.00    +0.015 A 
BRANCH  28  31
ATOM     31  O   LIG A   1      -5.768  -4.802 130.875  0.00  0.00    -0.507 OA
ATOM     32  H   LIG A   1      -6.220  -4.761 131.734  0.00  0.00    +0.292 HD
ENDBRANCH  28  31
ENDBRANCH  18  25
BRANCH  14  33
ATOM     33  O   LIG A   1      -9.414   3.369 124.968  0.00  0.00    -0.506 OA
ATOM     34  H   LIG A   1     -10.354   3.582 124.767  0.00  0.00    +0.292 HD
ENDBRANCH  14  33
BRANCH  22  35
ATOM     35  O   LIG A   1     -10.091  -0.383 122.202  0.00  0.00    -0.506 OA
ATOM     36  H   LIG A   1      -9.780  -1.295 122.079  0.00  0.00    +0.292 HD
ENDBRANCH  22  35
ENDBRANCH  13  17
ENDBRANCH   1  13
BRANCH   3  37
ATOM     37  C   LIG A   1      -5.462   3.079 131.286  0.00  0.00    +0.197 C 
BRANCH  37  38
ATOM     38  O   LIG A   1      -5.905   4.442 131.278  0.00  0.00    -0.346 OA
BRANCH  38  39
ATOM     39  C   LIG A   1      -7.041   4.663 132.114  0.00  0.00    +0.282 C 
ATOM     40  O   LIG A   1      -8.124   3.774 131.810  0.00  0.00    -0.343 OA
ATOM     41  C   LIG A   1      -8.547   3.842 130.443  0.00  0.00    +0.149 C 
ATOM     42  C   LIG A   1      -8.960   5.257 130.006  0.00  0.00    +0.174 C 
ATOM     43  C   LIG A   1      -7.945   6.311 130.469  0.00  0.00    +0.179 C 
ATOM     44  C   LIG A   1      -9.696   2.856 130.277  0.00  0.00    +0.040 C 
ATOM     45  C   LIG A   1      -7.567   6.104 131.945  0.00  0.00    +0.201 C 
BRANCH  43  46
ATOM     46  O   LIG A   1      -8.470   7.622 130.233  0.00  0.00    -0.386 OA
ATOM     47  H   LIG A   1      -9.379   7.621 130.590  0.00  0.00    +0.210 HD
ENDBRANCH  43  46
BRANCH  42  48
ATOM     48  O   LIG A   1      -9.089   5.337 128.577  0.00  0.00    -0.387 OA
ATOM     49  H   LIG A   1      -8.224   5.599 128.209  0.00  0.00    +0.210 HD
ENDBRANCH  42  48
BRANCH  45  50
ATOM     50  O   LIG A   1      -8.707   6.298 132.805  0.00  0.00    -0.384 OA
ATOM     51  H   LIG A   1      -8.650   5.627 133.511  0.00  0.00    +0.210 HD
ENDBRANCH  45  50
ENDBRANCH  38  39
ENDBRANCH  37  38
ENDBRANCH   3  37
TORSDOF 15
ENDMDL
MODEL 4
REMARK VINA RESULT:      -8.6      2.187      4.464
REMARK  Name = NuBBE_281
REMARK  16 active torsions:
REMARK  status: ('A' for Active; 'I' for Inactive)
REMARK    1  A    between atoms: O_1  and  C_2
REMARK    2  A    between atoms: C_5  and  O_6
REMARK    3  A    between atoms: O_6  and  C_7
REMARK    4  A    between atoms: C_10  and  C_18
REMARK    5  A    between atoms: C_12  and  O_17
REMARK    6  A    between atoms: C_14  and  O_16
REMARK    7  A    between atoms: C_18  and  O_19
REMARK    8  A    between atoms: O_19  and  C_20
REMARK    9  A    between atoms: C_23  and  C_31
REMARK   10  A    between atoms: C_25  and  O_30
REMARK   11  A    between atoms: C_27  and  O_29
REMARK   12  A    between atoms: C_32  and  O_34
REMARK   13  A    between atoms: C_35  and  O_37
REMARK   14  A    between atoms: C_38  and  C_45
REMARK   15  A    between atoms: C_42  and  O_43
REMARK   16  A    between atoms: C_48  and  O_51
REMARK                            x       y       z     vdW  Elec       q    Type
REMARK                         _______ _______ _______ _____ _____    ______ ____
ROOT
ATOM      1  C   LIG A   1      -8.000   4.010 127.901  0.00  0.00    +0.340 C 
ATOM      2  O   LIG A   1      -8.271   3.468 126.587  0.00  0.00    -0.331 OA
ATOM      3  C   LIG A   1      -7.709   2.185 126.290  0.00  0.00    +0.179 C 
ATOM      4  C   LIG A   1      -6.189   2.146 126.576  0.00  0.00    +0.177 C 
ATOM      5  C   LIG A   1      -5.842   2.671 127.971  0.00  0.00    +0.180 C 
ATOM      6  C   LIG A   1      -6.481   4.038 128.187  0.00  0.00    +0.214 C 
ENDROOT
BRANCH   5   7
ATOM      7  O   LIG A   1      -6.271   1.757 128.981  0.00  0.00    -0.386 OA
ATOM      8  H   LIG A   1      -6.786   2.268 129.631  0.00  0.00    +0.210 HD
ENDBRANCH   5   7
BRANCH   4   9
ATOM      9  O   LIG A   1      -5.584   0.869 126.380  0.00  0.00    -0.387 OA
ATOM     10  H   LIG A   1      -6.248   0.218 126.678  0.00  0.00    +0.210 HD
ENDBRANCH   4   9
BRANCH   6  11
ATOM     11  O   LIG A   1      -5.828   4.995 127.331  0.00  0.00    -0.383 OA
ATOM     12  H   LIG A   1      -5.194   5.503 127.871  0.00  0.00    +0.210 HD
ENDBRANCH   6  11
BRANCH   1  13
ATOM     13  O   LIG A   1      -8.839   3.431 128.906  0.00  0.00    -0.453 OA
BRANCH  13  17
ATOM     14  C   LIG A   1      -7.536   3.169 133.647  0.00  0.00    +0.135 A 
ATOM     15  C   LIG A   1      -8.202   3.802 132.591  0.00  0.00    +0.109 A 
ATOM     16  C   LIG A   1      -8.363   3.173 131.272  0.00  0.00    +0.238 A 
ATOM     17  C   LIG A   1      -8.976   3.990 130.166  0.00  0.00    +0.214 A 
ATOM     18  C   LIG A   1      -9.621   5.121 130.558  0.00  0.00    +0.181 A 
ATOM     19  O   LIG A   1      -9.490   5.686 131.827  0.00  0.00    -0.451 OA
ATOM     20  C   LIG A   1      -8.708   5.078 132.768  0.00  0.00    +0.146 A 
ATOM     21  C   LIG A   1      -8.474   5.777 133.957  0.00  0.00    +0.092 A 
ATOM     22  C   LIG A   1      -7.763   5.159 134.981  0.00  0.00    +0.124 A 
ATOM     23  C   LIG A   1      -7.319   3.847 134.846  0.00  0.00    +0.091 A 
ATOM     24  O   LIG A   1      -7.997   2.020 131.111  0.00  0.00    -0.283 OA
BRANCH  18  25
ATOM     25  C   LIG A   1     -10.564   5.922 129.736  0.00  0.00    +0.021 A 
ATOM     26  C   LIG A   1     -10.085   6.897 128.843  0.00  0.00    +0.015 A 
ATOM     27  C   LIG A   1     -10.964   7.652 128.058  0.00  0.00    +0.046 A 
ATOM     28  C   LIG A   1     -12.330   7.414 128.144  0.00  0.00    +0.117 A 
ATOM     29  C   LIG A   1     -12.831   6.490 129.048  0.00  0.00    +0.046 A 
ATOM     30  C   LIG A   1     -11.954   5.796 129.885  0.00  0.00    +0.015 A 
BRANCH  28  31
ATOM     31  O   LIG A   1     -13.222   8.081 127.361  0.00  0.00    -0.507 OA
ATOM     32  H   LIG A   1     -14.072   7.610 127.382  0.00  0.00    +0.292 HD
ENDBRANCH  28  31
ENDBRANCH  18  25
BRANCH  14  33
ATOM     33  O   LIG A   1      -7.079   1.882 133.575  0.00  0.00    -0.506 OA
ATOM     34  H   LIG A   1      -6.338   1.855 132.928  0.00  0.00    +0.292 HD
ENDBRANCH  14  33
BRANCH  22  35
ATOM     35  O   LIG A   1      -7.486   5.805 136.149  0.00  0.00    -0.506 OA
ATOM     36  H   LIG A   1      -8.289   5.853 136.694  0.00  0.00    +0.292 HD
ENDBRANCH  22  35
ENDBRANCH  13  17
ENDBRANCH   1  13
BRANCH   3  37
ATOM     37  C   LIG A   1      -8.566   1.032 126.848  0.00  0.00    +0.197 C 
BRANCH  37  38
ATOM     38  O   LIG A   1      -8.687  -0.003 125.864  0.00  0.00    -0.346 OA
BRANCH  38  39
ATOM     39  C   LIG A   1      -8.321  -1.290 126.363  0.00  0.00    +0.282 C 
ATOM     40  O   LIG A   1      -6.993  -1.668 125.975  0.00  0.00    -0.343 OA
ATOM     41  C   LIG A   1      -6.791  -1.657 124.558  0.00  0.00    +0.149 C 
ATOM     42  C   LIG A   1      -7.780  -2.556 123.797  0.00  0.00    +0.174 C 
ATOM     43  C   LIG A   1      -9.219  -2.360 124.293  0.00  0.00    +0.179 C 
ATOM     44  C   LIG A   1      -5.351  -2.082 124.303  0.00  0.00    +0.040 C 
ATOM     45  C   LIG A   1      -9.282  -2.373 125.829  0.00  0.00    +0.201 C 
BRANCH  43  46
ATOM     46  O   LIG A   1     -10.067  -3.360 123.717  0.00  0.00    -0.386 OA
ATOM     47  H   LIG A   1      -9.474  -4.051 123.362  0.00  0.00    +0.210 HD
ENDBRANCH  43  46
BRANCH  42  48
ATOM     48  O   LIG A   1      -7.737  -2.291 122.386  0.00  0.00    -0.387 OA
ATOM     49  H   LIG A   1      -6.803  -2.291 122.105  0.00  0.00    +0.210 HD
ENDBRANCH  42  48
BRANCH  45  50
ATOM     50  O   LIG A   1      -8.891  -3.656 126.354  0.00  0.00    -0.384 OA
ATOM     51  H   LIG A   1      -9.489  -3.854 127.100  0.00  0.00    +0.210 HD
ENDBRANCH  45  50
ENDBRANCH  38  39
ENDBRANCH  37  38
ENDBRANCH   3  37
TORSDOF 15
ENDMDL
MODEL 5
REMARK VINA RESULT:      -8.4      1.855      4.254
REMARK  Name = NuBBE_281
REMARK  16 active torsions:
REMARK  status: ('A' for Active; 'I' for Inactive)
REMARK    1  A    between atoms: O_1  and  C_2
REMARK    2  A    between atoms: C_5  and  O_6
REMARK    3  A    between atoms: O_6  and  C_7
REMARK    4  A    between atoms: C_10  and  C_18
REMARK    5  A    between atoms: C_12  and  O_17
REMARK    6  A    between atoms: C_14  and  O_16
REMARK    7  A    between atoms: C_18  and  O_19
REMARK    8  A    between atoms: O_19  and  C_20
REMARK    9  A    between atoms: C_23  and  C_31
REMARK   10  A    between atoms: C_25  and  O_30
REMARK   11  A    between atoms: C_27  and  O_29
REMARK   12  A    between atoms: C_32  and  O_34
REMARK   13  A    between atoms: C_35  and  O_37
REMARK   14  A    between atoms: C_38  and  C_45
REMARK   15  A    between atoms: C_42  and  O_43
REMARK   16  A    between atoms: C_48  and  O_51
REMARK                            x       y       z     vdW  Elec       q    Type
REMARK                         _______ _______ _______ _____ _____    ______ ____
ROOT
ATOM      1  C   LIG A   1      -7.927   4.689 126.383  0.00  0.00    +0.340 C 
ATOM      2  O   LIG A   1      -8.839   4.262 125.343  0.00  0.00    -0.331 OA
ATOM      3  C   LIG A   1      -8.487   3.074 124.624  0.00  0.00    +0.179 C 
ATOM      4  C   LIG A   1      -7.046   3.147 124.068  0.00  0.00    +0.177 C 
ATOM      5  C   LIG A   1      -6.027   3.555 125.134  0.00  0.00    +0.180 C 
ATOM      6  C   LIG A   1      -6.487   4.827 125.836  0.00  0.00    +0.214 C 
ENDROOT
BRANCH   5   7
ATOM      7  O   LIG A   1      -5.834   2.506 126.084  0.00  0.00    -0.386 OA
ATOM      8  H   LIG A   1      -4.990   2.072 125.865  0.00  0.00    +0.210 HD
ENDBRANCH   5   7
BRANCH   4   9
ATOM      9  O   LIG A   1      -6.605   1.959 123.413  0.00  0.00    -0.387 OA
ATOM     10  H   LIG A   1      -7.401   1.586 122.988  0.00  0.00    +0.210 HD
ENDBRANCH   4   9
BRANCH   6  11
ATOM     11  O   LIG A   1      -6.410   5.924 124.904  0.00  0.00    -0.383 OA
ATOM     12  H   LIG A   1      -7.183   5.873 124.310  0.00  0.00    +0.210 HD
ENDBRANCH   6  11
BRANCH   1  13
ATOM     13  O   LIG A   1      -8.094   3.934 127.587  0.00  0.00    -0.453 OA
BRANCH  13  17
ATOM     14  C   LIG A   1      -4.578   4.077 131.032  0.00  0.00    +0.135 A 
ATOM     15  C   LIG A   1      -5.820   4.481 130.529  0.00  0.00    +0.109 A 
ATOM     16  C   LIG A   1      -6.450   3.831 129.370  0.00  0.00    +0.238 A 
ATOM     17  C   LIG A   1      -7.721   4.428 128.826  0.00  0.00    +0.214 A 
ATOM     18  C   LIG A   1      -8.349   5.317 129.641  0.00  0.00    +0.181 A 
ATOM     19  O   LIG A   1      -7.753   5.897 130.761  0.00  0.00    -0.451 OA
ATOM     20  C   LIG A   1      -6.479   5.550 131.112  0.00  0.00    +0.146 A 
ATOM     21  C   LIG A   1      -5.871   6.288 132.133  0.00  0.00    +0.092 A 
ATOM     22  C   LIG A   1      -4.611   5.910 132.589  0.00  0.00    +0.124 A 
ATOM     23  C   LIG A   1      -3.973   4.789 132.066  0.00  0.00    +0.091 A 
ATOM     24  O   LIG A   1      -5.932   2.839 128.886  0.00  0.00    -0.283 OA
BRANCH  18  25
ATOM     25  C   LIG A   1      -9.747   5.801 129.498  0.00  0.00    +0.021 A 
ATOM     26  C   LIG A   1     -10.786   5.220 130.245  0.00  0.00    +0.015 A 
ATOM     27  C   LIG A   1     -12.104   5.674 130.124  0.00  0.00    +0.046 A 
ATOM     28  C   LIG A   1     -12.385   6.734 129.271  0.00  0.00    +0.117 A 
ATOM     29  C   LIG A   1     -11.386   7.295 128.490  0.00  0.00    +0.046 A 
ATOM     30  C   LIG A   1     -10.087   6.785 128.557  0.00  0.00    +0.015 A 
BRANCH  28  31
ATOM     31  O   LIG A   1     -13.640   7.250 129.161  0.00  0.00    -0.507 OA
ATOM     32  H   LIG A   1     -13.758   7.600 128.262  0.00  0.00    +0.292 HD
ENDBRANCH  28  31
ENDBRANCH  18  25
BRANCH  14  33
ATOM     33  O   LIG A   1      -3.904   2.983 130.561  0.00  0.00    -0.506 OA
ATOM     34  H   LIG A   1      -3.417   2.575 131.312  0.00  0.00    +0.292 HD
ENDBRANCH  14  33
BRANCH  22  35
ATOM     35  O   LIG A   1      -3.965   6.611 133.563  0.00  0.00    -0.506 OA
ATOM     36  H   LIG A   1      -4.600   7.173 134.037  0.00  0.00    +0.292 HD
ENDBRANCH  22  35
ENDBRANCH  13  17
ENDBRANCH   1  13
BRANCH   3  37
ATOM     37  C   LIG A   1      -8.892   1.796 125.384  0.00  0.00    +0.197 C 
BRANCH  37  38
ATOM     38  O   LIG A   1      -8.443   0.640 124.664  0.00  0.00    -0.346 OA
BRANCH  38  39
ATOM     39  C   LIG A   1      -7.645  -0.237 125.460  0.00  0.00    +0.282 C 
ATOM     40  O   LIG A   1      -6.656  -0.927 124.687  0.00  0.00    -0.343 OA
ATOM     41  C   LIG A   1      -7.207  -1.679 123.600  0.00  0.00    +0.149 C 
ATOM     42  C   LIG A   1      -8.260  -2.707 124.046  0.00  0.00    +0.174 C 
ATOM     43  C   LIG A   1      -9.256  -2.099 125.043  0.00  0.00    +0.179 C 
ATOM     44  C   LIG A   1      -6.046  -2.356 122.883  0.00  0.00    +0.040 C 
ATOM     45  C   LIG A   1      -8.527  -1.305 126.139  0.00  0.00    +0.201 C 
BRANCH  43  46
ATOM     46  O   LIG A   1     -10.079  -3.134 125.594  0.00  0.00    -0.386 OA
ATOM     47  H   LIG A   1      -9.600  -3.481 126.370  0.00  0.00    +0.210 HD
ENDBRANCH  43  46
BRANCH  42  48
ATOM     48  O   LIG A   1      -8.990  -3.219 122.920  0.00  0.00    -0.387 OA
ATOM     49  H   LIG A   1      -9.544  -3.960 123.229  0.00  0.00    +0.210 HD
ENDBRANCH  42  48
BRANCH  45  50
ATOM     50  O   LIG A   1      -7.696  -2.168 126.940  0.00  0.00    -0.384 OA
ATOM     51  H   LIG A   1      -8.139  -3.038 126.977  0.00  0.00    +0.210 HD
ENDBRANCH  45  50
ENDBRANCH  38  39
ENDBRANCH  37  38
ENDBRANCH   3  37
TORSDOF 15
ENDMDL
MODEL 6
REMARK VINA RESULT:      -8.4      3.491      7.328
REMARK  Name = NuBBE_281
REMARK  16 active torsions:
REMARK  status: ('A' for Active; 'I' for Inactive)
REMARK    1  A    between atoms: O_1  and  C_2
REMARK    2  A    between atoms: C_5  and  O_6
REMARK    3  A    between atoms: O_6  and  C_7
REMARK    4  A    between atoms: C_10  and  C_18
REMARK    5  A    between atoms: C_12  and  O_17
REMARK    6  A    between atoms: C_14  and  O_16
REMARK    7  A    between atoms: C_18  and  O_19
REMARK    8  A    between atoms: O_19  and  C_20
REMARK    9  A    between atoms: C_23  and  C_31
REMARK   10  A    between atoms: C_25  and  O_30
REMARK   11  A    between atoms: C_27  and  O_29
REMARK   12  A    between atoms: C_32  and  O_34
REMARK   13  A    between atoms: C_35  and  O_37
REMARK   14  A    between atoms: C_38  and  C_45
REMARK   15  A    between atoms: C_42  and  O_43
REMARK   16  A    between atoms: C_48  and  O_51
REMARK                            x       y       z     vdW  Elec       q    Type
REMARK                         _______ _______ _______ _____ _____    ______ ____
ROOT
ATOM      1  C   LIG A   1      -7.824   2.806 130.746  0.00  0.00    +0.340 C 
ATOM      2  O   LIG A   1      -6.581   2.429 131.385  0.00  0.00    -0.331 OA
ATOM      3  C   LIG A   1      -5.691   1.604 130.626  0.00  0.00    +0.179 C 
ATOM      4  C   LIG A   1      -6.405   0.348 130.073  0.00  0.00    +0.177 C 
ATOM      5  C   LIG A   1      -7.709   0.687 129.349  0.00  0.00    +0.180 C 
ATOM      6  C   LIG A   1      -8.587   1.560 130.238  0.00  0.00    +0.214 C 
ENDROOT
BRANCH   5   7
ATOM      7  O   LIG A   1      -7.448   1.344 128.109  0.00  0.00    -0.386 OA
ATOM      8  H   LIG A   1      -6.485   1.481 128.052  0.00  0.00    +0.210 HD
ENDBRANCH   5   7
BRANCH   4   9
ATOM      9  O   LIG A   1      -5.592  -0.474 129.237  0.00  0.00    -0.387 OA
ATOM     10  H   LIG A   1      -6.083  -0.557 128.398  0.00  0.00    +0.210 HD
ENDBRANCH   4   9
BRANCH   6  11
ATOM     11  O   LIG A   1      -9.052   0.771 131.349  0.00  0.00    -0.383 OA
ATOM     12  H   LIG A   1      -9.270   1.378 132.082  0.00  0.00    +0.210 HD
ENDBRANCH   6  11
BRANCH   1  13
ATOM     13  O   LIG A   1      -7.648   3.882 129.819  0.00  0.00    -0.453 OA
BRANCH  13  17
ATOM     14  C   LIG A   1     -10.665   6.958 127.437  0.00  0.00    +0.135 A 
ATOM     15  C   LIG A   1      -9.986   6.556 128.592  0.00  0.00    +0.109 A 
ATOM     16  C   LIG A   1      -8.962   5.501 128.577  0.00  0.00    +0.238 A 
ATOM     17  C   LIG A   1      -8.388   5.051 129.894  0.00  0.00    +0.214 A 
ATOM     18  C   LIG A   1      -8.624   5.873 130.950  0.00  0.00    +0.181 A 
ATOM     19  O   LIG A   1      -9.572   6.896 130.939  0.00  0.00    -0.451 OA
ATOM     20  C   LIG A   1     -10.297   7.142 129.807  0.00  0.00    +0.146 A 
ATOM     21  C   LIG A   1     -11.350   8.058 129.906  0.00  0.00    +0.092 A 
ATOM     22  C   LIG A   1     -12.055   8.410 128.759  0.00  0.00    +0.124 A 
ATOM     23  C   LIG A   1     -11.700   7.890 127.518  0.00  0.00    +0.091 A 
ATOM     24  O   LIG A   1      -8.611   5.024 127.510  0.00  0.00    -0.283 OA
BRANCH  18  25
ATOM     25  C   LIG A   1      -7.924   5.839 132.261  0.00  0.00    +0.021 A 
ATOM     26  C   LIG A   1      -8.652   5.728 133.459  0.00  0.00    +0.015 A 
ATOM     27  C   LIG A   1      -8.002   5.687 134.698  0.00  0.00    +0.046 A 
ATOM     28  C   LIG A   1      -6.615   5.730 134.742  0.00  0.00    +0.117 A 
ATOM     29  C   LIG A   1      -5.876   5.883 133.579  0.00  0.00    +0.046 A 
ATOM     30  C   LIG A   1      -6.533   6.003 132.352  0.00  0.00    +0.015 A 
BRANCH  28  31
ATOM     31  O   LIG A   1      -5.934   5.636 135.917  0.00  0.00    -0.507 OA
ATOM     32  H   LIG A   1      -6.416   5.040 136.513  0.00  0.00    +0.292 HD
ENDBRANCH  28  31
ENDBRANCH  18  25
BRANCH  14  33
ATOM     33  O   LIG A   1     -10.360   6.485 126.190  0.00  0.00    -0.506 OA
ATOM     34  H   LIG A   1     -10.968   5.738 125.987  0.00  0.00    +0.292 HD
ENDBRANCH  14  33
BRANCH  22  35
ATOM     35  O   LIG A   1     -13.106   9.278 128.805  0.00  0.00    -0.506 OA
ATOM     36  H   LIG A   1     -13.671   9.147 128.026  0.00  0.00    +0.292 HD
ENDBRANCH  22  35
ENDBRANCH  13  17
ENDBRANCH   1  13
BRANCH   3  37
ATOM     37  C   LIG A   1      -4.835   2.425 129.641  0.00  0.00    +0.197 C 
BRANCH  37  38
ATOM     38  O   LIG A   1      -4.355   3.611 130.287  0.00  0.00    -0.346 OA
BRANCH  38  39
ATOM     39  C   LIG A   1      -3.113   4.071 129.753  0.00  0.00    +0.282 C 
ATOM     40  O   LIG A   1      -2.523   5.102 130.554  0.00  0.00    -0.343 OA
ATOM     41  C   LIG A   1      -3.380   6.234 130.745  0.00  0.00    +0.149 C 
ATOM     42  C   LIG A   1      -3.848   6.869 129.425  0.00  0.00    +0.174 C 
ATOM     43  C   LIG A   1      -4.316   5.807 128.421  0.00  0.00    +0.179 C 
ATOM     44  C   LIG A   1      -2.620   7.238 131.601  0.00  0.00    +0.040 C 
ATOM     45  C   LIG A   1      -3.312   4.646 128.335  0.00  0.00    +0.201 C 
BRANCH  43  46
ATOM     46  O   LIG A   1      -4.536   6.416 127.143  0.00  0.00    -0.386 OA
ATOM     47  H   LIG A   1      -5.087   5.791 126.634  0.00  0.00    +0.210 HD
ENDBRANCH  43  46
BRANCH  42  48
ATOM     48  O   LIG A   1      -4.923   7.795 129.651  0.00  0.00    -0.387 OA
ATOM     49  H   LIG A   1      -4.616   8.465 130.291  0.00  0.00    +0.210 HD
ENDBRANCH  42  48
BRANCH  45  50
ATOM     50  O   LIG A   1      -2.043   5.094 127.821  0.00  0.00    -0.384 OA
ATOM     51  H   LIG A   1      -1.356   4.519 128.210  0.00  0.00    +0.210 HD
ENDBRANCH  45  50
ENDBRANCH  38  39
ENDBRANCH  37  38
ENDBRANCH   3  37
TORSDOF 15
ENDMDL
MODEL 7
REMARK VINA RESULT:      -8.4      1.979      4.638
REMARK  Name = NuBBE_281
REMARK  16 active torsions:
REMARK  status: ('A' for Active; 'I' for Inactive)
REMARK    1  A    between atoms: O_1  and  C_2
REMARK    2  A    between atoms: C_5  and  O_6
REMARK    3  A    between atoms: O_6  and  C_7
REMARK    4  A    between atoms: C_10  and  C_18
REMARK    5  A    between atoms: C_12  and  O_17
REMARK    6  A    between atoms: C_14  and  O_16
REMARK    7  A    between atoms: C_18  and  O_19
REMARK    8  A    between atoms: O_19  and  C_20
REMARK    9  A    between atoms: C_23  and  C_31
REMARK   10  A    between atoms: C_25  and  O_30
REMARK   11  A    between atoms: C_27  and  O_29
REMARK   12  A    between atoms: C_32  and  O_34
REMARK   13  A    between atoms: C_35  and  O_37
REMARK   14  A    between atoms: C_38  and  C_45
REMARK   15  A    between atoms: C_42  and  O_43
REMARK   16  A    between atoms: C_48  and  O_51
REMARK                            x       y       z     vdW  Elec       q    Type
REMARK                         _______ _______ _______ _____ _____    ______ ____
ROOT
ATOM      1  C   LIG A   1      -7.947   4.432 126.292  0.00  0.00    +0.340 C 
ATOM      2  O   LIG A   1      -8.899   4.179 125.231  0.00  0.00    -0.331 OA
ATOM      3  C   LIG A   1      -8.607   3.090 124.349  0.00  0.00    +0.179 C 
ATOM      4  C   LIG A   1      -7.178   3.192 123.765  0.00  0.00    +0.177 C 
ATOM      5  C   LIG A   1      -6.120   3.418 124.846  0.00  0.00    +0.180 C 
ATOM      6  C   LIG A   1      -6.517   4.597 125.726  0.00  0.00    +0.214 C 
ENDROOT
BRANCH   5   7
ATOM      7  O   LIG A   1      -5.941   2.245 125.640  0.00  0.00    -0.386 OA
ATOM      8  H   LIG A   1      -6.826   1.874 125.808  0.00  0.00    +0.210 HD
ENDBRANCH   5   7
BRANCH   4   9
ATOM      9  O   LIG A   1      -6.796   2.090 122.943  0.00  0.00    -0.387 OA
ATOM     10  H   LIG A   1      -7.572   1.497 122.926  0.00  0.00    +0.210 HD
ENDBRANCH   4   9
BRANCH   6  11
ATOM     11  O   LIG A   1      -6.424   5.808 124.950  0.00  0.00    -0.383 OA
ATOM     12  H   LIG A   1      -5.898   6.455 125.458  0.00  0.00    +0.210 HD
ENDBRANCH   6  11
BRANCH   1  13
ATOM     13  O   LIG A   1      -8.110   3.526 127.387  0.00  0.00    -0.453 OA
BRANCH  13  17
ATOM     14  C   LIG A   1      -4.450   2.843 130.610  0.00  0.00    +0.135 A 
ATOM     15  C   LIG A   1      -5.662   3.436 130.237  0.00  0.00    +0.109 A 
ATOM     16  C   LIG A   1      -6.410   3.017 129.043  0.00  0.00    +0.238 A 
ATOM     17  C   LIG A   1      -7.631   3.807 128.656  0.00  0.00    +0.214 A 
ATOM     18  C   LIG A   1      -8.123   4.637 129.615  0.00  0.00    +0.181 A 
ATOM     19  O   LIG A   1      -7.418   4.996 130.764  0.00  0.00    -0.451 OA
ATOM     20  C   LIG A   1      -6.175   4.477 130.992  0.00  0.00    +0.146 A 
ATOM     21  C   LIG A   1      -5.446   5.005 132.063  0.00  0.00    +0.092 A 
ATOM     22  C   LIG A   1      -4.216   4.443 132.391  0.00  0.00    +0.124 A 
ATOM     23  C   LIG A   1      -3.727   3.344 131.691  0.00  0.00    +0.091 A 
ATOM     24  O   LIG A   1      -6.024   2.051 128.404  0.00  0.00    -0.283 OA
BRANCH  18  25
ATOM     25  C   LIG A   1      -9.465   5.275 129.618  0.00  0.00    +0.021 A 
ATOM     26  C   LIG A   1      -9.694   6.465 128.905  0.00  0.00    +0.015 A 
ATOM     27  C   LIG A   1     -10.955   7.070 128.894  0.00  0.00    +0.046 A 
ATOM     28  C   LIG A   1     -12.005   6.470 129.578  0.00  0.00    +0.117 A 
ATOM     29  C   LIG A   1     -11.795   5.321 130.325  0.00  0.00    +0.046 A 
ATOM     30  C   LIG A   1     -10.516   4.766 130.396  0.00  0.00    +0.015 A 
BRANCH  28  31
ATOM     31  O   LIG A   1     -13.264   6.987 129.552  0.00  0.00    -0.507 OA
ATOM     32  H   LIG A   1     -13.819   6.435 128.976  0.00  0.00    +0.292 HD
ENDBRANCH  28  31
ENDBRANCH  18  25
BRANCH  14  33
ATOM     33  O   LIG A   1      -3.921   1.761 129.962  0.00  0.00    -0.506 OA
ATOM     34  H   LIG A   1      -4.514   0.991 130.113  0.00  0.00    +0.292 HD
ENDBRANCH  14  33
BRANCH  22  35
ATOM     35  O   LIG A   1      -3.454   4.936 133.409  0.00  0.00    -0.506 OA
ATOM     36  H   LIG A   1      -2.712   4.334 133.583  0.00  0.00    +0.292 HD
ENDBRANCH  22  35
ENDBRANCH  13  17
ENDBRANCH   1  13
BRANCH   3  37
ATOM     37  C   LIG A   1      -9.038   1.733 124.940  0.00  0.00    +0.197 C 
BRANCH  37  38
ATOM     38  O   LIG A   1      -8.140   0.705 124.502  0.00  0.00    -0.346 OA
BRANCH  38  39
ATOM     39  C   LIG A   1      -8.816  -0.468 124.048  0.00  0.00    +0.282 C 
ATOM     40  O   LIG A   1      -9.159  -1.351 125.123  0.00  0.00    -0.343 OA
ATOM     41  C   LIG A   1      -8.032  -1.755 125.909  0.00  0.00    +0.149 C 
ATOM     42  C   LIG A   1      -6.925  -2.426 125.080  0.00  0.00    +0.174 C 
ATOM     43  C   LIG A   1      -6.628  -1.644 123.793  0.00  0.00    +0.179 C 
ATOM     44  C   LIG A   1      -8.550  -2.687 126.996  0.00  0.00    +0.040 C 
ATOM     45  C   LIG A   1      -7.927  -1.260 123.067  0.00  0.00    +0.201 C 
BRANCH  43  46
ATOM     46  O   LIG A   1      -5.754  -2.409 122.955  0.00  0.00    -0.386 OA
ATOM     47  H   LIG A   1      -5.396  -1.787 122.293  0.00  0.00    +0.210 HD
ENDBRANCH  43  46
BRANCH  42  48
ATOM     48  O   LIG A   1      -5.711  -2.542 125.840  0.00  0.00    -0.387 OA
ATOM     49  H   LIG A   1      -5.039  -1.968 125.428  0.00  0.00    +0.210 HD
ENDBRANCH  42  48
BRANCH  45  50
ATOM     50  O   LIG A   1      -8.637  -2.431 122.620  0.00  0.00    -0.384 OA
ATOM     51  H   LIG A   1      -8.110  -3.207 122.891  0.00  0.00    +0.210 HD
ENDBRANCH  45  50
ENDBRANCH  38  39
ENDBRANCH  37  38
ENDBRANCH   3  37
TORSDOF 15
ENDMDL
MODEL 8
REMARK VINA RESULT:      -8.4      3.094      4.552
REMARK  Name = NuBBE_281
REMARK  16 active torsions:
REMARK  status: ('A' for Active; 'I' for Inactive)
REMARK    1  A    between atoms: O_1  and  C_2
REMARK    2  A    between atoms: C_5  and  O_6
REMARK    3  A    between atoms: O_6  and  C_7
REMARK    4  A    between atoms: C_10  and  C_18
REMARK    5  A    between atoms: C_12  and  O_17
REMARK    6  A    between atoms: C_14  and  O_16
REMARK    7  A    between atoms: C_18  and  O_19
REMARK    8  A    between atoms: O_19  and  C_20
REMARK    9  A    between atoms: C_23  and  C_31
REMARK   10  A    between atoms: C_25  and  O_30
REMARK   11  A    between atoms: C_27  and  O_29
REMARK   12  A    between atoms: C_32  and  O_34
REMARK   13  A    between atoms: C_35  and  O_37
REMARK   14  A    between atoms: C_38  and  C_45
REMARK   15  A    between atoms: C_42  and  O_43
REMARK   16  A    between atoms: C_48  and  O_51
REMARK                            x       y       z     vdW  Elec       q    Type
REMARK                         _______ _______ _______ _____ _____    ______ ____
ROOT
ATOM      1  C   LIG A   1      -7.217   2.580 126.610  0.00  0.00    +0.340 C 
ATOM      2  O   LIG A   1      -8.192   2.361 125.564  0.00  0.00    -0.331 OA
ATOM      3  C   LIG A   1      -7.768   2.624 124.221  0.00  0.00    +0.179 C 
ATOM      4  C   LIG A   1      -7.151   4.036 124.083  0.00  0.00    +0.177 C 
ATOM      5  C   LIG A   1      -6.079   4.312 125.139  0.00  0.00    +0.180 C 
ATOM      6  C   LIG A   1      -6.627   4.008 126.529  0.00  0.00    +0.214 C 
ENDROOT
BRANCH   5   7
ATOM      7  O   LIG A   1      -4.904   3.542 124.889  0.00  0.00    -0.386 OA
ATOM      8  H   LIG A   1      -4.914   3.301 123.945  0.00  0.00    +0.210 HD
ENDBRANCH   5   7
BRANCH   4   9
ATOM      9  O   LIG A   1      -6.632   4.328 122.786  0.00  0.00    -0.387 OA
ATOM     10  H   LIG A   1      -7.407   4.338 122.192  0.00  0.00    +0.210 HD
ENDBRANCH   4   9
BRANCH   6  11
ATOM     11  O   LIG A   1      -7.635   4.984 126.854  0.00  0.00    -0.383 OA
ATOM     12  H   LIG A   1      -7.477   5.291 127.767  0.00  0.00    +0.210 HD
ENDBRANCH   6  11
BRANCH   1  13
ATOM     13  O   LIG A   1      -6.285   1.499 126.712  0.00  0.00    -0.453 OA
BRANCH  13  17
ATOM     14  C   LIG A   1      -6.937  -2.074 130.038  0.00  0.00    +0.135 A 
ATOM     15  C   LIG A   1      -6.261  -0.940 129.571  0.00  0.00    +0.109 A 
ATOM     16  C   LIG A   1      -6.754  -0.138 128.442  0.00  0.00    +0.238 A 
ATOM     17  C   LIG A   1      -5.885   0.980 127.933  0.00  0.00    +0.214 A 
ATOM     18  C   LIG A   1      -4.873   1.360 128.757  0.00  0.00    +0.181 A 
ATOM     19  O   LIG A   1      -4.440   0.608 129.850  0.00  0.00    -0.451 OA
ATOM     20  C   LIG A   1      -5.068  -0.564 130.163  0.00  0.00    +0.146 A 
ATOM     21  C   LIG A   1      -4.484  -1.359 131.155  0.00  0.00    +0.092 A 
ATOM     22  C   LIG A   1      -5.138  -2.514 131.573  0.00  0.00    +0.124 A 
ATOM     23  C   LIG A   1      -6.377  -2.861 131.043  0.00  0.00    +0.091 A 
ATOM     24  O   LIG A   1      -7.841  -0.400 127.952  0.00  0.00    -0.283 OA
BRANCH  18  25
ATOM     25  C   LIG A   1      -4.082   2.615 128.654  0.00  0.00    +0.021 A 
ATOM     26  C   LIG A   1      -3.174   2.804 127.598  0.00  0.00    +0.015 A 
ATOM     27  C   LIG A   1      -2.430   3.984 127.487  0.00  0.00    +0.046 A 
ATOM     28  C   LIG A   1      -2.614   4.995 128.422  0.00  0.00    +0.117 A 
ATOM     29  C   LIG A   1      -3.470   4.817 129.497  0.00  0.00    +0.046 A 
ATOM     30  C   LIG A   1      -4.150   3.605 129.646  0.00  0.00    +0.015 A 
BRANCH  28  31
ATOM     31  O   LIG A   1      -1.958   6.185 128.326  0.00  0.00    -0.507 OA
ATOM     32  H   LIG A   1      -2.260   6.769 129.041  0.00  0.00    +0.292 HD
ENDBRANCH  28  31
ENDBRANCH  18  25
BRANCH  14  33
ATOM     33  O   LIG A   1      -8.157  -2.463 129.557  0.00  0.00    -0.506 OA
ATOM     34  H   LIG A   1      -8.586  -1.683 129.139  0.00  0.00    +0.292 HD
ENDBRANCH  14  33
BRANCH  22  35
ATOM     35  O   LIG A   1      -4.600  -3.337 132.518  0.00  0.00    -0.506 OA
ATOM     36  H   LIG A   1      -4.578  -4.248 132.182  0.00  0.00    +0.292 HD
ENDBRANCH  22  35
ENDBRANCH  13  17
ENDBRANCH   1  13
BRANCH   3  37
ATOM     37  C   LIG A   1      -6.984   1.443 123.618  0.00  0.00    +0.197 C 
BRANCH  37  38
ATOM     38  O   LIG A   1      -7.718   0.226 123.804  0.00  0.00    -0.346 OA
BRANCH  38  39
ATOM     39  C   LIG A   1      -7.128  -0.887 123.132  0.00  0.00    +0.282 C 
ATOM     40  O   LIG A   1      -8.065  -1.950 122.912  0.00  0.00    -0.343 OA
ATOM     41  C   LIG A   1      -8.682  -2.422 124.115  0.00  0.00    +0.149 C 
ATOM     42  C   LIG A   1      -7.669  -2.896 125.170  0.00  0.00    +0.174 C 
ATOM     43  C   LIG A   1      -6.511  -1.901 125.330  0.00  0.00    +0.179 C 
ATOM     44  C   LIG A   1      -9.636  -3.543 123.723  0.00  0.00    +0.040 C 
ATOM     45  C   LIG A   1      -5.963  -1.466 123.961  0.00  0.00    +0.201 C 
BRANCH  43  46
ATOM     46  O   LIG A   1      -5.491  -2.477 126.154  0.00  0.00    -0.386 OA
ATOM     47  H   LIG A   1      -5.156  -1.755 126.719  0.00  0.00    +0.210 HD
ENDBRANCH  43  46
BRANCH  42  48
ATOM     48  O   LIG A   1      -8.302  -3.077 126.447  0.00  0.00    -0.387 OA
ATOM     49  H   LIG A   1      -9.264  -3.145 126.301  0.00  0.00    +0.210 HD
ENDBRANCH  42  48
BRANCH  45  50
ATOM     50  O   LIG A   1      -5.385  -2.581 123.256  0.00  0.00    -0.384 OA
ATOM     51  H   LIG A   1      -5.116  -3.237 123.927  0.00  0.00    +0.210 HD
ENDBRANCH  45  50
ENDBRANCH  38  39
ENDBRANCH  37  38
ENDBRANCH   3  37
TORSDOF 15
ENDMDL
MODEL 9
REMARK VINA RESULT:      -8.3      2.258      4.819
REMARK  Name = NuBBE_281
REMARK  16 active torsions:
REMARK  status: ('A' for Active; 'I' for Inactive)
REMARK    1  A    between atoms: O_1  and  C_2
REMARK    2  A    between atoms: C_5  and  O_6
REMARK    3  A    between atoms: O_6  and  C_7
REMARK    4  A    between atoms: C_10  and  C_18
REMARK    5  A    between atoms: C_12  and  O_17
REMARK    6  A    between atoms: C_14  and  O_16
REMARK    7  A    between atoms: C_18  and  O_19
REMARK    8  A    between atoms: O_19  and  C_20
REMARK    9  A    between atoms: C_23  and  C_31
REMARK   10  A    between atoms: C_25  and  O_30
REMARK   11  A    between atoms: C_27  and  O_29
REMARK   12  A    between atoms: C_32  and  O_34
REMARK   13  A    between atoms: C_35  and  O_37
REMARK   14  A    between atoms: C_38  and  C_45
REMARK   15  A    between atoms: C_42  and  O_43
REMARK   16  A    between atoms: C_48  and  O_51
REMARK                            x       y       z     vdW  Elec       q    Type
REMARK                         _______ _______ _______ _____ _____    ______ ____
ROOT
ATOM      1  C   LIG A   1      -6.344   3.805 129.427  0.00  0.00    +0.340 C 
ATOM      2  O   LIG A   1      -5.955   3.595 128.049  0.00  0.00    -0.331 OA
ATOM      3  C   LIG A   1      -5.944   2.242 127.580  0.00  0.00    +0.179 C 
ATOM      4  C   LIG A   1      -5.120   1.321 128.509  0.00  0.00    +0.177 C 
ATOM      5  C   LIG A   1      -5.515   1.467 129.980  0.00  0.00    +0.180 C 
ATOM      6  C   LIG A   1      -5.491   2.937 130.382  0.00  0.00    +0.214 C 
ENDROOT
BRANCH   5   7
ATOM      7  O   LIG A   1      -6.807   0.908 130.220  0.00  0.00    -0.386 OA
ATOM      8  H   LIG A   1      -7.403   1.646 130.443  0.00  0.00    +0.210 HD
ENDBRANCH   5   7
BRANCH   4   9
ATOM      9  O   LIG A   1      -5.140  -0.058 128.143  0.00  0.00    -0.387 OA
ATOM     10  H   LIG A   1      -5.163  -0.551 128.986  0.00  0.00    +0.210 HD
ENDBRANCH   4   9
BRANCH   6  11
ATOM     11  O   LIG A   1      -4.125   3.394 130.387  0.00  0.00    -0.383 OA
ATOM     12  H   LIG A   1      -3.975   3.913 129.573  0.00  0.00    +0.210 HD
ENDBRANCH   6  11
BRANCH   1  13
ATOM     13  O   LIG A   1      -7.763   3.755 129.599  0.00  0.00    -0.453 OA
BRANCH  13  17
ATOM     14  C   LIG A   1     -10.712   7.114 127.534  0.00  0.00    +0.135 A 
ATOM     15  C   LIG A   1     -10.082   6.557 128.652  0.00  0.00    +0.109 A 
ATOM     16  C   LIG A   1      -9.042   5.524 128.537  0.00  0.00    +0.238 A 
ATOM     17  C   LIG A   1      -8.524   4.894 129.803  0.00  0.00    +0.214 A 
ATOM     18  C   LIG A   1      -8.824   5.554 130.953  0.00  0.00    +0.181 A 
ATOM     19  O   LIG A   1      -9.786   6.560 131.041  0.00  0.00    -0.451 OA
ATOM     20  C   LIG A   1     -10.461   6.959 129.921  0.00  0.00    +0.146 A 
ATOM     21  C   LIG A   1     -11.532   7.841 130.098  0.00  0.00    +0.092 A 
ATOM     22  C   LIG A   1     -12.187   8.348 128.980  0.00  0.00    +0.124 A 
ATOM     23  C   LIG A   1     -11.765   8.014 127.696  0.00  0.00    +0.091 A 
ATOM     24  O   LIG A   1      -8.633   5.207 127.432  0.00  0.00    -0.283 OA
BRANCH  18  25
ATOM     25  C   LIG A   1      -8.187   5.339 132.278  0.00  0.00    +0.021 A 
ATOM     26  C   LIG A   1      -6.905   5.850 132.548  0.00  0.00    +0.015 A 
ATOM     27  C   LIG A   1      -6.299   5.660 133.795  0.00  0.00    +0.046 A 
ATOM     28  C   LIG A   1      -6.988   4.979 134.791  0.00  0.00    +0.117 A 
ATOM     29  C   LIG A   1      -8.234   4.428 134.537  0.00  0.00    +0.046 A 
ATOM     30  C   LIG A   1      -8.800   4.552 133.266  0.00  0.00    +0.015 A 
BRANCH  28  31
ATOM     31  O   LIG A   1      -6.467   4.818 136.038  0.00  0.00    -0.507 OA
ATOM     32  H   LIG A   1      -6.613   3.901 136.324  0.00  0.00    +0.292 HD
ENDBRANCH  28  31
ENDBRANCH  18  25
BRANCH  14  33
ATOM     33  O   LIG A   1     -10.341   6.827 126.249  0.00  0.00    -0.506 OA
ATOM     34  H   LIG A   1      -9.839   5.980 126.256  0.00  0.00    +0.292 HD
ENDBRANCH  14  33
BRANCH  22  35
ATOM     35  O   LIG A   1     -13.253   9.191 129.097  0.00  0.00    -0.506 OA
ATOM     36  H   LIG A   1     -13.390   9.414 130.033  0.00  0.00    +0.292 HD
ENDBRANCH  22  35
ENDBRANCH  13  17
ENDBRANCH   1  13
BRANCH   3  37
ATOM     37  C   LIG A   1      -7.349   1.761 127.166  0.00  0.00    +0.197 C 
BRANCH  37  38
ATOM     38  O   LIG A   1      -7.242   0.819 126.091  0.00  0.00    -0.346 OA
BRANCH  38  39
ATOM     39  C   LIG A   1      -7.887  -0.423 126.373  0.00  0.00    +0.282 C 
ATOM     40  O   LIG A   1      -7.007  -1.544 126.215  0.00  0.00    -0.343 OA
ATOM     41  C   LIG A   1      -6.420  -1.625 124.912  0.00  0.00    +0.149 C 
ATOM     42  C   LIG A   1      -7.460  -1.677 123.781  0.00  0.00    +0.174 C 
ATOM     43  C   LIG A   1      -8.564  -0.629 123.979  0.00  0.00    +0.179 C 
ATOM     44  C   LIG A   1      -5.525  -2.857 124.895  0.00  0.00    +0.040 C 
ATOM     45  C   LIG A   1      -9.085  -0.641 125.425  0.00  0.00    +0.201 C 
BRANCH  43  46
ATOM     46  O   LIG A   1      -9.616  -0.853 123.032  0.00  0.00    -0.386 OA
ATOM     47  H   LIG A   1     -10.079  -1.661 123.325  0.00  0.00    +0.210 HD
ENDBRANCH  43  46
BRANCH  42  48
ATOM     48  O   LIG A   1      -6.842  -1.459 122.502  0.00  0.00    -0.387 OA
ATOM     49  H   LIG A   1      -6.107  -2.095 122.409  0.00  0.00    +0.210 HD
ENDBRANCH  42  48
BRANCH  45  50
ATOM     50  O   LIG A   1      -9.718  -1.896 125.738  0.00  0.00    -0.384 OA
ATOM     51  H   LIG A   1      -9.269  -2.255 126.528  0.00  0.00    +0.210 HD
ENDBRANCH  45  50
ENDBRANCH  38  39
ENDBRANCH  37  38
ENDBRANCH   3  37
TORSDOF 15
ENDMDL
