MODEL 1
REMARK VINA RESULT:      -9.3      0.000      0.000
REMARK  Name = NuBBE_319
REMARK  18 active torsions:
REMARK  status: ('A' for Active; 'I' for Inactive)
REMARK    1  A    between atoms: C_1  and  O_2
REMARK    2  A    between atoms: O_2  and  C_3
REMARK    3  A    between atoms: C_6  and  C_7
REMARK    4  A    between atoms: C_11  and  O_30
REMARK    5  A    between atoms: C_13  and  O_14
REMARK    6  A    between atoms: O_14  and  C_15
REMARK    7  A    between atoms: C_17  and  O_29
REMARK    8  A    between atoms: C_19  and  O_28
REMARK    9  A    between atoms: C_21  and  O_27
REMARK   10  A    between atoms: C_23  and  C_26
REMARK   11  A    between atoms: O_30  and  C_31
REMARK   12  A    between atoms: C_31  and  C_32
REMARK   13  A    between atoms: C_37  and  O_38
REMARK   14  A    between atoms: O_38  and  C_39
REMARK   15  A    between atoms: C_41  and  O_53
REMARK   16  A    between atoms: C_43  and  O_52
REMARK   17  A    between atoms: C_45  and  O_51
REMARK   18  A    between atoms: C_47  and  C_50
REMARK                            x       y       z     vdW  Elec       q    Type
REMARK                         _______ _______ _______ _____ _____    ______ ____
ROOT
ATOM      1  C   LIG A   1      -6.594   2.936 123.858  0.00  0.00    +0.181 A 
ATOM      2  O   LIG A   1      -7.015   1.606 123.738  0.00  0.00    -0.451 OA
ATOM      3  C   LIG A   1      -7.527   0.962 124.852  0.00  0.00    +0.147 A 
ATOM      4  C   LIG A   1      -7.968  -0.339 124.605  0.00  0.00    +0.093 A 
ATOM      5  C   LIG A   1      -8.889  -0.831 125.492  0.00  0.00    +0.139 A 
ATOM      6  C   LIG A   1      -9.141  -0.087 126.630  0.00  0.00    +0.093 A 
ATOM      7  C   LIG A   1      -8.576   1.077 127.076  0.00  0.00    +0.142 A 
ATOM      8  C   LIG A   1      -7.834   1.666 126.053  0.00  0.00    +0.110 A 
ATOM      9  C   LIG A   1      -7.850   3.104 125.761  0.00  0.00    +0.238 A 
ATOM     10  O   LIG A   1      -8.962   3.632 125.661  0.00  0.00    -0.283 OA
ATOM     11  C   LIG A   1      -6.558   3.575 125.067  0.00  0.00    +0.214 A 
ENDROOT
BRANCH   1  15
ATOM     12  C   LIG A   1      -5.293   4.884 120.200  0.00  0.00    +0.120 A 
ATOM     13  C   LIG A   1      -6.498   4.178 120.242  0.00  0.00    +0.046 A 
ATOM     14  C   LIG A   1      -6.906   3.417 121.373  0.00  0.00    +0.015 A 
ATOM     15  C   LIG A   1      -6.195   3.493 122.548  0.00  0.00    +0.021 A 
ATOM     16  C   LIG A   1      -5.189   4.403 122.480  0.00  0.00    +0.015 A 
ATOM     17  C   LIG A   1      -4.588   4.939 121.350  0.00  0.00    +0.046 A 
BRANCH  12  19
ATOM     18  C   LIG A   1      -6.055   5.946 118.213  0.00  0.00    +0.277 C 
ATOM     19  O   LIG A   1      -5.030   5.768 119.197  0.00  0.00    -0.495 OA
ENDBRANCH  12  19
ENDBRANCH   1  15
BRANCH   7  20
ATOM     20  O   LIG A   1      -8.764   1.583 128.335  0.00  0.00    -0.460 OA
BRANCH  20  21
ATOM     21  C   LIG A   1      -7.794   2.109 129.355  0.00  0.00    +0.339 C 
ATOM     22  C   LIG A   1      -8.493   3.040 130.359  0.00  0.00    +0.214 C 
ATOM     23  C   LIG A   1      -9.353   2.174 131.232  0.00  0.00    +0.180 C 
ATOM     24  C   LIG A   1      -8.544   0.987 131.897  0.00  0.00    +0.174 C 
ATOM     25  C   LIG A   1      -7.273   0.366 130.983  0.00  0.00    +0.150 C 
ATOM     26  O   LIG A   1      -6.782   1.312 130.030  0.00  0.00    -0.334 OA
ATOM     27  C   LIG A   1      -6.149  -0.478 131.684  0.00  0.00    +0.040 C 
BRANCH  24  28
ATOM     28  O   LIG A   1      -9.628   0.045 132.143  0.00  0.00    -0.387 OA
ATOM     29  H   LIG A   1     -10.426   0.282 131.646  0.00  0.00    +0.210 HD
ENDBRANCH  24  28
BRANCH  23  30
ATOM     30  O   LIG A   1     -10.003   3.008 132.219  0.00  0.00    -0.386 OA
ATOM     31  H   LIG A   1      -9.813   3.933 131.954  0.00  0.00    +0.210 HD
ENDBRANCH  23  30
BRANCH  22  32
ATOM     32  O   LIG A   1      -7.622   3.777 131.232  0.00  0.00    -0.383 OA
ATOM     33  H   LIG A   1      -8.220   4.400 131.703  0.00  0.00    +0.210 HD
ENDBRANCH  22  32
ENDBRANCH  20  21
ENDBRANCH   7  20
BRANCH   5  34
ATOM     34  O   LIG A   1      -9.714  -1.920 125.174  0.00  0.00    -0.426 OA
BRANCH  34  35
ATOM     35  C   LIG A   1      -9.123  -3.100 124.756  0.00  0.00    +0.309 C 
ATOM     36  C   LIG A   1      -9.502  -3.371 123.285  0.00  0.00    +0.136 C 
ATOM     37  O   LIG A   1      -8.416  -3.749 125.383  0.00  0.00    -0.251 OA
ENDBRANCH  34  35
ENDBRANCH   5  34
BRANCH  11  38
ATOM     38  O   LIG A   1      -5.883   4.735 125.449  0.00  0.00    -0.453 OA
BRANCH  38  39
ATOM     39  C   LIG A   1      -4.580   4.900 126.232  0.00  0.00    +0.340 C 
ATOM     40  C   LIG A   1      -4.449   5.078 127.805  0.00  0.00    +0.214 C 
ATOM     41  C   LIG A   1      -4.816   3.767 128.440  0.00  0.00    +0.180 C 
ATOM     42  C   LIG A   1      -3.888   2.667 127.935  0.00  0.00    +0.174 C 
ATOM     43  C   LIG A   1      -3.000   3.027 126.668  0.00  0.00    +0.150 C 
ATOM     44  O   LIG A   1      -3.453   4.079 125.783  0.00  0.00    -0.334 OA
ATOM     45  C   LIG A   1      -1.466   2.849 126.711  0.00  0.00    +0.040 C 
BRANCH  42  46
ATOM     46  O   LIG A   1      -4.905   1.675 127.734  0.00  0.00    -0.387 OA
ATOM     47  H   LIG A   1      -5.697   1.974 128.196  0.00  0.00    +0.210 HD
ENDBRANCH  42  46
BRANCH  41  48
ATOM     48  O   LIG A   1      -4.800   3.696 129.870  0.00  0.00    -0.386 OA
ATOM     49  H   LIG A   1      -5.372   4.453 130.137  0.00  0.00    +0.210 HD
ENDBRANCH  41  48
BRANCH  40  50
ATOM     50  O   LIG A   1      -3.073   5.336 128.212  0.00  0.00    -0.383 OA
ATOM     51  H   LIG A   1      -2.700   5.997 127.588  0.00  0.00    +0.210 HD
ENDBRANCH  40  50
ENDBRANCH  38  39
ENDBRANCH  11  38
TORSDOF 14
ENDMDL
MODEL 2
REMARK VINA RESULT:      -9.0      2.321      5.787
REMARK  Name = NuBBE_319
REMARK  18 active torsions:
REMARK  status: ('A' for Active; 'I' for Inactive)
REMARK    1  A    between atoms: C_1  and  O_2
REMARK    2  A    between atoms: O_2  and  C_3
REMARK    3  A    between atoms: C_6  and  C_7
REMARK    4  A    between atoms: C_11  and  O_30
REMARK    5  A    between atoms: C_13  and  O_14
REMARK    6  A    between atoms: O_14  and  C_15
REMARK    7  A    between atoms: C_17  and  O_29
REMARK    8  A    between atoms: C_19  and  O_28
REMARK    9  A    between atoms: C_21  and  O_27
REMARK   10  A    between atoms: C_23  and  C_26
REMARK   11  A    between atoms: O_30  and  C_31
REMARK   12  A    between atoms: C_31  and  C_32
REMARK   13  A    between atoms: C_37  and  O_38
REMARK   14  A    between atoms: O_38  and  C_39
REMARK   15  A    between atoms: C_41  and  O_53
REMARK   16  A    between atoms: C_43  and  O_52
REMARK   17  A    between atoms: C_45  and  O_51
REMARK   18  A    between atoms: C_47  and  C_50
REMARK                            x       y       z     vdW  Elec       q    Type
REMARK                         _______ _______ _______ _____ _____    ______ ____
ROOT
ATOM      1  C   LIG A   1      -7.110   2.772 123.978  0.00  0.00    +0.181 A 
ATOM      2  O   LIG A   1      -7.403   3.786 124.900  0.00  0.00    -0.451 OA
ATOM      3  C   LIG A   1      -7.779   3.434 126.186  0.00  0.00    +0.147 A 
ATOM      4  C   LIG A   1      -7.991   4.522 127.034  0.00  0.00    +0.093 A 
ATOM      5  C   LIG A   1      -7.886   4.258 128.374  0.00  0.00    +0.139 A 
ATOM      6  C   LIG A   1      -7.777   2.934 128.758  0.00  0.00    +0.093 A 
ATOM      7  C   LIG A   1      -7.808   1.786 128.013  0.00  0.00    +0.142 A 
ATOM      8  C   LIG A   1      -7.673   2.094 126.660  0.00  0.00    +0.110 A 
ATOM      9  C   LIG A   1      -6.824   1.335 125.733  0.00  0.00    +0.238 A 
ATOM     10  O   LIG A   1      -5.667   1.116 126.104  0.00  0.00    -0.283 OA
ATOM     11  C   LIG A   1      -7.302   1.451 124.274  0.00  0.00    +0.214 A 
ENDROOT
BRANCH   1  15
ATOM     12  C   LIG A   1      -5.483   4.706 120.445  0.00  0.00    +0.120 A 
ATOM     13  C   LIG A   1      -6.766   4.154 120.428  0.00  0.00    +0.046 A 
ATOM     14  C   LIG A   1      -7.295   3.399 121.513  0.00  0.00    +0.015 A 
ATOM     15  C   LIG A   1      -6.612   3.333 122.704  0.00  0.00    +0.021 A 
ATOM     16  C   LIG A   1      -5.499   4.113 122.701  0.00  0.00    +0.015 A 
ATOM     17  C   LIG A   1      -4.807   4.621 121.611  0.00  0.00    +0.046 A 
BRANCH  12  19
ATOM     18  C   LIG A   1      -5.969   5.777 118.378  0.00  0.00    +0.277 C 
ATOM     19  O   LIG A   1      -5.087   5.594 119.492  0.00  0.00    -0.495 OA
ENDBRANCH  12  19
ENDBRANCH   1  15
BRANCH   7  20
ATOM     20  O   LIG A   1      -7.916   0.531 128.552  0.00  0.00    -0.460 OA
BRANCH  20  21
ATOM     21  C   LIG A   1      -7.681   0.018 129.944  0.00  0.00    +0.339 C 
ATOM     22  C   LIG A   1      -7.756  -1.516 129.993  0.00  0.00    +0.214 C 
ATOM     23  C   LIG A   1      -6.526  -2.036 129.308  0.00  0.00    +0.180 C 
ATOM     24  C   LIG A   1      -5.193  -1.428 129.909  0.00  0.00    +0.174 C 
ATOM     25  C   LIG A   1      -5.306   0.149 130.489  0.00  0.00    +0.150 C 
ATOM     26  O   LIG A   1      -6.646   0.499 130.845  0.00  0.00    -0.334 OA
ATOM     27  C   LIG A   1      -4.217   0.692 131.483  0.00  0.00    +0.040 C 
BRANCH  24  28
ATOM     28  O   LIG A   1      -4.301  -1.591 128.768  0.00  0.00    -0.387 OA
ATOM     29  H   LIG A   1      -3.712  -0.827 128.665  0.00  0.00    +0.210 HD
ENDBRANCH  24  28
BRANCH  23  30
ATOM     30  O   LIG A   1      -6.537  -3.481 129.363  0.00  0.00    -0.386 OA
ATOM     31  H   LIG A   1      -6.123  -3.719 130.220  0.00  0.00    +0.210 HD
ENDBRANCH  23  30
BRANCH  22  32
ATOM     32  O   LIG A   1      -7.778  -2.097 131.306  0.00  0.00    -0.383 OA
ATOM     33  H   LIG A   1      -6.837  -2.083 131.594  0.00  0.00    +0.210 HD
ENDBRANCH  22  32
ENDBRANCH  20  21
ENDBRANCH   7  20
BRANCH   5  34
ATOM     34  O   LIG A   1      -7.669   5.276 129.314  0.00  0.00    -0.426 OA
BRANCH  34  35
ATOM     35  C   LIG A   1      -8.751   5.755 130.033  0.00  0.00    +0.309 C 
ATOM     36  C   LIG A   1      -8.258   6.762 131.093  0.00  0.00    +0.136 C 
ATOM     37  O   LIG A   1      -9.849   5.489 129.839  0.00  0.00    -0.251 OA
ENDBRANCH  34  35
ENDBRANCH   5  34
BRANCH  11  38
ATOM     38  O   LIG A   1      -7.394   0.346 123.427  0.00  0.00    -0.453 OA
BRANCH  38  39
ATOM     39  C   LIG A   1      -7.992  -1.039 123.681  0.00  0.00    +0.340 C 
ATOM     40  C   LIG A   1      -7.342  -2.429 123.272  0.00  0.00    +0.214 C 
ATOM     41  C   LIG A   1      -6.143  -2.643 124.151  0.00  0.00    +0.180 C 
ATOM     42  C   LIG A   1      -6.567  -2.648 125.617  0.00  0.00    +0.174 C 
ATOM     43  C   LIG A   1      -8.034  -2.121 125.922  0.00  0.00    +0.150 C 
ATOM     44  O   LIG A   1      -8.658  -1.224 124.972  0.00  0.00    -0.334 OA
ATOM     45  C   LIG A   1      -9.029  -2.992 126.722  0.00  0.00    +0.040 C 
BRANCH  42  46
ATOM     46  O   LIG A   1      -5.489  -1.836 126.101  0.00  0.00    -0.387 OA
ATOM     47  H   LIG A   1      -5.568  -0.971 125.685  0.00  0.00    +0.210 HD
ENDBRANCH  42  46
BRANCH  41  48
ATOM     48  O   LIG A   1      -5.371  -3.830 123.942  0.00  0.00    -0.386 OA
ATOM     49  H   LIG A   1      -5.944  -4.366 123.344  0.00  0.00    +0.210 HD
ENDBRANCH  41  48
BRANCH  40  50
ATOM     50  O   LIG A   1      -8.233  -3.550 123.548  0.00  0.00    -0.383 OA
ATOM     51  H   LIG A   1      -8.663  -3.378 124.414  0.00  0.00    +0.210 HD
ENDBRANCH  40  50
ENDBRANCH  38  39
ENDBRANCH  11  38
TORSDOF 14
ENDMDL
MODEL 3
REMARK VINA RESULT:      -9.0      1.768      6.086
REMARK  Name = NuBBE_319
REMARK  18 active torsions:
REMARK  status: ('A' for Active; 'I' for Inactive)
REMARK    1  A    between atoms: C_1  and  O_2
REMARK    2  A    between atoms: O_2  and  C_3
REMARK    3  A    between atoms: C_6  and  C_7
REMARK    4  A    between atoms: C_11  and  O_30
REMARK    5  A    between atoms: C_13  and  O_14
REMARK    6  A    between atoms: O_14  and  C_15
REMARK    7  A    between atoms: C_17  and  O_29
REMARK    8  A    between atoms: C_19  and  O_28
REMARK    9  A    between atoms: C_21  and  O_27
REMARK   10  A    between atoms: C_23  and  C_26
REMARK   11  A    between atoms: O_30  and  C_31
REMARK   12  A    between atoms: C_31  and  C_32
REMARK   13  A    between atoms: C_37  and  O_38
REMARK   14  A    between atoms: O_38  and  C_39
REMARK   15  A    between atoms: C_41  and  O_53
REMARK   16  A    between atoms: C_43  and  O_52
REMARK   17  A    between atoms: C_45  and  O_51
REMARK   18  A    between atoms: C_47  and  C_50
REMARK                            x       y       z     vdW  Elec       q    Type
REMARK                         _______ _______ _______ _____ _____    ______ ____
ROOT
ATOM      1  C   LIG A   1      -6.359   3.022 124.411  0.00  0.00    +0.181 A 
ATOM      2  O   LIG A   1      -5.626   4.077 124.970  0.00  0.00    -0.451 OA
ATOM      3  C   LIG A   1      -5.192   3.970 126.281  0.00  0.00    +0.147 A 
ATOM      4  C   LIG A   1      -4.424   5.051 126.717  0.00  0.00    +0.093 A 
ATOM      5  C   LIG A   1      -3.593   4.798 127.776  0.00  0.00    +0.139 A 
ATOM      6  C   LIG A   1      -3.732   3.585 128.423  0.00  0.00    +0.093 A 
ATOM      7  C   LIG A   1      -4.624   2.565 128.221  0.00  0.00    +0.142 A 
ATOM      8  C   LIG A   1      -5.282   2.745 127.006  0.00  0.00    +0.110 A 
ATOM      9  C   LIG A   1      -5.547   1.658 126.055  0.00  0.00    +0.238 A 
ATOM     10  O   LIG A   1      -4.588   0.934 125.769  0.00  0.00    -0.283 OA
ATOM     11  C   LIG A   1      -6.763   1.949 125.156  0.00  0.00    +0.214 A 
ENDROOT
BRANCH   1  15
ATOM     12  C   LIG A   1      -6.890   4.005 120.214  0.00  0.00    +0.120 A 
ATOM     13  C   LIG A   1      -7.987   3.667 121.010  0.00  0.00    +0.046 A 
ATOM     14  C   LIG A   1      -7.853   3.214 122.353  0.00  0.00    +0.015 A 
ATOM     15  C   LIG A   1      -6.629   3.258 122.976  0.00  0.00    +0.021 A 
ATOM     16  C   LIG A   1      -5.678   3.841 122.200  0.00  0.00    +0.015 A 
ATOM     17  C   LIG A   1      -5.687   4.028 120.825  0.00  0.00    +0.046 A 
BRANCH  12  19
ATOM     18  C   LIG A   1      -6.041   5.566 118.632  0.00  0.00    +0.277 C 
ATOM     19  O   LIG A   1      -7.057   4.633 119.016  0.00  0.00    -0.495 OA
ENDBRANCH  12  19
ENDBRANCH   1  15
BRANCH   7  20
ATOM     20  O   LIG A   1      -4.792   1.517 129.087  0.00  0.00    -0.460 OA
BRANCH  20  21
ATOM     21  C   LIG A   1      -5.811   1.262 130.161  0.00  0.00    +0.339 C 
ATOM     22  C   LIG A   1      -7.065   2.127 129.956  0.00  0.00    +0.214 C 
ATOM     23  C   LIG A   1      -7.789   1.571 128.765  0.00  0.00    +0.180 C 
ATOM     24  C   LIG A   1      -8.081   0.021 128.900  0.00  0.00    +0.174 C 
ATOM     25  C   LIG A   1      -6.933  -0.867 129.754  0.00  0.00    +0.150 C 
ATOM     26  O   LIG A   1      -6.184  -0.052 130.660  0.00  0.00    -0.334 OA
ATOM     27  C   LIG A   1      -7.310  -2.280 130.328  0.00  0.00    +0.040 C 
BRANCH  24  28
ATOM     28  O   LIG A   1      -8.202  -0.340 127.494  0.00  0.00    -0.387 OA
ATOM     29  H   LIG A   1      -8.604  -1.216 127.384  0.00  0.00    +0.210 HD
ENDBRANCH  24  28
BRANCH  23  30
ATOM     30  O   LIG A   1      -8.999   2.335 128.557  0.00  0.00    -0.386 OA
ATOM     31  H   LIG A   1      -9.432   1.940 127.770  0.00  0.00    +0.210 HD
ENDBRANCH  23  30
BRANCH  22  32
ATOM     32  O   LIG A   1      -8.000   2.135 131.046  0.00  0.00    -0.383 OA
ATOM     33  H   LIG A   1      -8.310   1.203 131.108  0.00  0.00    +0.210 HD
ENDBRANCH  22  32
ENDBRANCH  20  21
ENDBRANCH   7  20
BRANCH   5  34
ATOM     34  O   LIG A   1      -2.493   5.620 128.066  0.00  0.00    -0.426 OA
BRANCH  34  35
ATOM     35  C   LIG A   1      -2.674   6.686 128.931  0.00  0.00    +0.309 C 
ATOM     36  C   LIG A   1      -1.974   6.384 130.272  0.00  0.00    +0.136 C 
ATOM     37  O   LIG A   1      -3.212   7.666 128.675  0.00  0.00    -0.251 OA
ENDBRANCH  34  35
ENDBRANCH   5  34
BRANCH  11  38
ATOM     38  O   LIG A   1      -7.746   0.994 124.896  0.00  0.00    -0.453 OA
BRANCH  38  39
ATOM     39  C   LIG A   1      -7.774  -0.128 123.857  0.00  0.00    +0.340 C 
ATOM     40  C   LIG A   1      -6.536  -1.012 123.400  0.00  0.00    +0.214 C 
ATOM     41  C   LIG A   1      -6.172  -1.909 124.549  0.00  0.00    +0.180 C 
ATOM     42  C   LIG A   1      -7.364  -2.786 124.920  0.00  0.00    +0.174 C 
ATOM     43  C   LIG A   1      -8.762  -2.371 124.292  0.00  0.00    +0.150 C 
ATOM     44  O   LIG A   1      -8.954  -0.996 123.881  0.00  0.00    -0.334 OA
ATOM     45  C   LIG A   1      -9.598  -3.396 123.493  0.00  0.00    +0.040 C 
BRANCH  42  46
ATOM     46  O   LIG A   1      -7.238  -2.638 126.342  0.00  0.00    -0.387 OA
ATOM     47  H   LIG A   1      -7.532  -3.462 126.746  0.00  0.00    +0.210 HD
ENDBRANCH  42  46
BRANCH  41  48
ATOM     48  O   LIG A   1      -5.053  -2.784 124.378  0.00  0.00    -0.386 OA
ATOM     49  H   LIG A   1      -4.418  -2.471 125.065  0.00  0.00    +0.210 HD
ENDBRANCH  41  48
BRANCH  40  50
ATOM     50  O   LIG A   1      -6.880  -1.907 122.301  0.00  0.00    -0.383 OA
ATOM     51  H   LIG A   1      -6.040  -2.263 121.938  0.00  0.00    +0.210 HD
ENDBRANCH  40  50
ENDBRANCH  38  39
ENDBRANCH  11  38
TORSDOF 14
ENDMDL
MODEL 4
REMARK VINA RESULT:      -8.9      2.771      7.502
REMARK  Name = NuBBE_319
REMARK  18 active torsions:
REMARK  status: ('A' for Active; 'I' for Inactive)
REMARK    1  A    between atoms: C_1  and  O_2
REMARK    2  A    between atoms: O_2  and  C_3
REMARK    3  A    between atoms: C_6  and  C_7
REMARK    4  A    between atoms: C_11  and  O_30
REMARK    5  A    between atoms: C_13  and  O_14
REMARK    6  A    between atoms: O_14  and  C_15
REMARK    7  A    between atoms: C_17  and  O_29
REMARK    8  A    between atoms: C_19  and  O_28
REMARK    9  A    between atoms: C_21  and  O_27
REMARK   10  A    between atoms: C_23  and  C_26
REMARK   11  A    between atoms: O_30  and  C_31
REMARK   12  A    between atoms: C_31  and  C_32
REMARK   13  A    between atoms: C_37  and  O_38
REMARK   14  A    between atoms: O_38  and  C_39
REMARK   15  A    between atoms: C_41  and  O_53
REMARK   16  A    between atoms: C_43  and  O_52
REMARK   17  A    between atoms: C_45  and  O_51
REMARK   18  A    between atoms: C_47  and  C_50
REMARK                            x       y       z     vdW  Elec       q    Type
REMARK                         _______ _______ _______ _____ _____    ______ ____
ROOT
ATOM      1  C   LIG A   1      -3.794   3.475 128.223  0.00  0.00    +0.181 A 
ATOM      2  O   LIG A   1      -3.871   3.982 126.919  0.00  0.00    -0.451 OA
ATOM      3  C   LIG A   1      -4.606   3.287 125.972  0.00  0.00    +0.147 A 
ATOM      4  C   LIG A   1      -4.662   3.910 124.725  0.00  0.00    +0.093 A 
ATOM      5  C   LIG A   1      -5.720   3.553 123.931  0.00  0.00    +0.139 A 
ATOM      6  C   LIG A   1      -6.502   2.492 124.348  0.00  0.00    +0.093 A 
ATOM      7  C   LIG A   1      -6.376   1.664 125.431  0.00  0.00    +0.142 A 
ATOM      8  C   LIG A   1      -5.453   2.196 126.329  0.00  0.00    +0.110 A 
ATOM      9  C   LIG A   1      -5.650   2.215 127.784  0.00  0.00    +0.238 A 
ATOM     10  O   LIG A   1      -6.736   2.646 128.185  0.00  0.00    -0.283 OA
ATOM     11  C   LIG A   1      -4.318   2.256 128.555  0.00  0.00    +0.214 A 
ENDROOT
BRANCH   1  15
ATOM     12  C   LIG A   1      -1.968   6.154 131.113  0.00  0.00    +0.120 A 
ATOM     13  C   LIG A   1      -1.976   6.473 129.753  0.00  0.00    +0.046 A 
ATOM     14  C   LIG A   1      -2.445   5.574 128.753  0.00  0.00    +0.015 A 
ATOM     15  C   LIG A   1      -3.076   4.407 129.118  0.00  0.00    +0.021 A 
ATOM     16  C   LIG A   1      -3.243   4.313 130.463  0.00  0.00    +0.015 A 
ATOM     17  C   LIG A   1      -2.570   4.999 131.464  0.00  0.00    +0.046 A 
BRANCH  12  19
ATOM     18  C   LIG A   1      -0.628   6.849 132.951  0.00  0.00    +0.277 C 
ATOM     19  O   LIG A   1      -1.716   7.105 132.056  0.00  0.00    -0.495 OA
ENDBRANCH  12  19
ENDBRANCH   1  15
BRANCH   7  20
ATOM     20  O   LIG A   1      -7.096   0.510 125.597  0.00  0.00    -0.460 OA
BRANCH  20  21
ATOM     21  C   LIG A   1      -6.740  -0.807 126.226  0.00  0.00    +0.339 C 
ATOM     22  C   LIG A   1      -7.997  -1.559 126.692  0.00  0.00    +0.214 C 
ATOM     23  C   LIG A   1      -8.703  -2.036 125.458  0.00  0.00    +0.180 C 
ATOM     24  C   LIG A   1      -7.759  -2.874 124.502  0.00  0.00    +0.174 C 
ATOM     25  C   LIG A   1      -6.137  -2.419 124.495  0.00  0.00    +0.150 C 
ATOM     26  O   LIG A   1      -5.761  -1.744 125.698  0.00  0.00    -0.334 OA
ATOM     27  C   LIG A   1      -5.051  -3.416 123.955  0.00  0.00    +0.040 C 
BRANCH  24  28
ATOM     28  O   LIG A   1      -8.446  -2.683 123.231  0.00  0.00    -0.387 OA
ATOM     29  H   LIG A   1      -7.819  -2.598 122.496  0.00  0.00    +0.210 HD
ENDBRANCH  24  28
BRANCH  23  30
ATOM     30  O   LIG A   1      -9.877  -2.784 125.852  0.00  0.00    -0.386 OA
ATOM     31  H   LIG A   1      -9.912  -2.728 126.831  0.00  0.00    +0.210 HD
ENDBRANCH  23  30
BRANCH  22  32
ATOM     32  O   LIG A   1      -7.761  -2.715 127.511  0.00  0.00    -0.383 OA
ATOM     33  H   LIG A   1      -6.791  -2.704 127.675  0.00  0.00    +0.210 HD
ENDBRANCH  22  32
ENDBRANCH  20  21
ENDBRANCH   7  20
BRANCH   5  34
ATOM     34  O   LIG A   1      -6.144   4.353 122.860  0.00  0.00    -0.426 OA
BRANCH  34  35
ATOM     35  C   LIG A   1      -5.329   4.454 121.745  0.00  0.00    +0.309 C 
ATOM     36  C   LIG A   1      -5.500   3.196 120.868  0.00  0.00    +0.136 C 
ATOM     37  O   LIG A   1      -4.669   5.355 121.483  0.00  0.00    -0.251 OA
ENDBRANCH  34  35
ENDBRANCH   5  34
BRANCH  11  38
ATOM     38  O   LIG A   1      -4.068   1.444 129.662  0.00  0.00    -0.453 OA
BRANCH  38  39
ATOM     39  C   LIG A   1      -4.929   0.345 130.287  0.00  0.00    +0.340 C 
ATOM     40  C   LIG A   1      -5.605  -0.867 129.515  0.00  0.00    +0.214 C 
ATOM     41  C   LIG A   1      -4.506  -1.794 129.078  0.00  0.00    +0.180 C 
ATOM     42  C   LIG A   1      -3.729  -2.287 130.295  0.00  0.00    +0.174 C 
ATOM     43  C   LIG A   1      -3.993  -1.512 131.656  0.00  0.00    +0.150 C 
ATOM     44  O   LIG A   1      -4.487  -0.152 131.592  0.00  0.00    -0.334 OA
ATOM     45  C   LIG A   1      -4.415  -2.282 132.927  0.00  0.00    +0.040 C 
BRANCH  42  46
ATOM     46  O   LIG A   1      -2.421  -2.137 129.724  0.00  0.00    -0.387 OA
ATOM     47  H   LIG A   1      -2.072  -3.020 129.563  0.00  0.00    +0.210 HD
ENDBRANCH  42  46
BRANCH  41  48
ATOM     48  O   LIG A   1      -4.878  -2.955 128.329  0.00  0.00    -0.386 OA
ATOM     49  H   LIG A   1      -5.249  -3.556 129.017  0.00  0.00    +0.210 HD
ENDBRANCH  41  48
BRANCH  40  50
ATOM     50  O   LIG A   1      -6.461  -1.661 130.388  0.00  0.00    -0.383 OA
ATOM     51  H   LIG A   1      -6.537  -1.181 131.242  0.00  0.00    +0.210 HD
ENDBRANCH  40  50
ENDBRANCH  38  39
ENDBRANCH  11  38
TORSDOF 14
ENDMDL
MODEL 5
REMARK VINA RESULT:      -8.8      2.093      6.362
REMARK  Name = NuBBE_319
REMARK  18 active torsions:
REMARK  status: ('A' for Active; 'I' for Inactive)
REMARK    1  A    between atoms: C_1  and  O_2
REMARK    2  A    between atoms: O_2  and  C_3
REMARK    3  A    between atoms: C_6  and  C_7
REMARK    4  A    between atoms: C_11  and  O_30
REMARK    5  A    between atoms: C_13  and  O_14
REMARK    6  A    between atoms: O_14  and  C_15
REMARK    7  A    between atoms: C_17  and  O_29
REMARK    8  A    between atoms: C_19  and  O_28
REMARK    9  A    between atoms: C_21  and  O_27
REMARK   10  A    between atoms: C_23  and  C_26
REMARK   11  A    between atoms: O_30  and  C_31
REMARK   12  A    between atoms: C_31  and  C_32
REMARK   13  A    between atoms: C_37  and  O_38
REMARK   14  A    between atoms: O_38  and  C_39
REMARK   15  A    between atoms: C_41  and  O_53
REMARK   16  A    between atoms: C_43  and  O_52
REMARK   17  A    between atoms: C_45  and  O_51
REMARK   18  A    between atoms: C_47  and  C_50
REMARK                            x       y       z     vdW  Elec       q    Type
REMARK                         _______ _______ _______ _____ _____    ______ ____
ROOT
ATOM      1  C   LIG A   1      -6.351   3.034 124.475  0.00  0.00    +0.181 A 
ATOM      2  O   LIG A   1      -5.662   4.113 125.046  0.00  0.00    -0.451 OA
ATOM      3  C   LIG A   1      -5.238   4.017 126.361  0.00  0.00    +0.147 A 
ATOM      4  C   LIG A   1      -4.515   5.124 126.808  0.00  0.00    +0.093 A 
ATOM      5  C   LIG A   1      -3.686   4.899 127.875  0.00  0.00    +0.139 A 
ATOM      6  C   LIG A   1      -3.788   3.678 128.517  0.00  0.00    +0.093 A 
ATOM      7  C   LIG A   1      -4.640   2.628 128.302  0.00  0.00    +0.142 A 
ATOM      8  C   LIG A   1      -5.291   2.788 127.080  0.00  0.00    +0.110 A 
ATOM      9  C   LIG A   1      -5.506   1.695 126.124  0.00  0.00    +0.238 A 
ATOM     10  O   LIG A   1      -4.518   1.008 125.845  0.00  0.00    -0.283 OA
ATOM     11  C   LIG A   1      -6.722   1.945 125.213  0.00  0.00    +0.214 A 
ENDROOT
BRANCH   1  15
ATOM     12  C   LIG A   1      -6.870   4.009 120.275  0.00  0.00    +0.120 A 
ATOM     13  C   LIG A   1      -7.965   3.644 121.061  0.00  0.00    +0.046 A 
ATOM     14  C   LIG A   1      -7.832   3.193 122.405  0.00  0.00    +0.015 A 
ATOM     15  C   LIG A   1      -6.614   3.266 123.039  0.00  0.00    +0.021 A 
ATOM     16  C   LIG A   1      -5.671   3.872 122.270  0.00  0.00    +0.015 A 
ATOM     17  C   LIG A   1      -5.672   4.060 120.896  0.00  0.00    +0.046 A 
BRANCH  12  19
ATOM     18  C   LIG A   1      -6.022   5.559 118.681  0.00  0.00    +0.277 C 
ATOM     19  O   LIG A   1      -7.042   4.635 119.076  0.00  0.00    -0.495 OA
ENDBRANCH  12  19
ENDBRANCH   1  15
BRANCH   7  20
ATOM     20  O   LIG A   1      -4.778   1.571 129.163  0.00  0.00    -0.460 OA
BRANCH  20  21
ATOM     21  C   LIG A   1      -5.985   0.790 129.599  0.00  0.00    +0.339 C 
ATOM     22  C   LIG A   1      -6.205  -0.440 128.704  0.00  0.00    +0.214 C 
ATOM     23  C   LIG A   1      -5.120  -1.422 129.036  0.00  0.00    +0.180 C 
ATOM     24  C   LIG A   1      -5.045  -1.746 130.583  0.00  0.00    +0.174 C 
ATOM     25  C   LIG A   1      -5.467  -0.483 131.616  0.00  0.00    +0.150 C 
ATOM     26  O   LIG A   1      -6.318   0.473 130.978  0.00  0.00    -0.334 OA
ATOM     27  C   LIG A   1      -5.856  -0.793 133.106  0.00  0.00    +0.040 C 
BRANCH  24  28
ATOM     28  O   LIG A   1      -3.656  -2.174 130.689  0.00  0.00    -0.387 OA
ATOM     29  H   LIG A   1      -3.113  -1.515 131.149  0.00  0.00    +0.210 HD
ENDBRANCH  24  28
BRANCH  23  30
ATOM     30  O   LIG A   1      -5.310  -2.614 128.240  0.00  0.00    -0.386 OA
ATOM     31  H   LIG A   1      -5.327  -3.360 128.877  0.00  0.00    +0.210 HD
ENDBRANCH  23  30
BRANCH  22  32
ATOM     32  O   LIG A   1      -7.455  -1.125 128.885  0.00  0.00    -0.383 OA
ATOM     33  H   LIG A   1      -7.639  -1.045 129.848  0.00  0.00    +0.210 HD
ENDBRANCH  22  32
ENDBRANCH  20  21
ENDBRANCH   7  20
BRANCH   5  34
ATOM     34  O   LIG A   1      -2.621   5.759 128.179  0.00  0.00    -0.426 OA
BRANCH  34  35
ATOM     35  C   LIG A   1      -2.828   6.767 129.106  0.00  0.00    +0.309 C 
ATOM     36  C   LIG A   1      -2.022   6.460 130.386  0.00  0.00    +0.136 C 
ATOM     37  O   LIG A   1      -3.455   7.711 128.934  0.00  0.00    -0.251 OA
ENDBRANCH  34  35
ENDBRANCH   5  34
BRANCH  11  38
ATOM     38  O   LIG A   1      -7.667   0.955 124.939  0.00  0.00    -0.453 OA
BRANCH  38  39
ATOM     39  C   LIG A   1      -7.609  -0.211 123.951  0.00  0.00    +0.340 C 
ATOM     40  C   LIG A   1      -6.396  -1.218 123.761  0.00  0.00    +0.214 C 
ATOM     41  C   LIG A   1      -6.331  -2.083 124.987  0.00  0.00    +0.180 C 
ATOM     42  C   LIG A   1      -7.645  -2.838 125.161  0.00  0.00    +0.174 C 
ATOM     43  C   LIG A   1      -8.862  -2.338 124.271  0.00  0.00    +0.150 C 
ATOM     44  O   LIG A   1      -8.849  -0.974 123.786  0.00  0.00    -0.334 OA
ATOM     45  C   LIG A   1      -9.630  -3.327 123.366  0.00  0.00    +0.040 C 
BRANCH  42  46
ATOM     46  O   LIG A   1      -7.766  -2.630 126.575  0.00  0.00    -0.387 OA
ATOM     47  H   LIG A   1      -8.617  -2.990 126.849  0.00  0.00    +0.210 HD
ENDBRANCH  42  46
BRANCH  41  48
ATOM     48  O   LIG A   1      -5.284  -3.057 125.055  0.00  0.00    -0.386 OA
ATOM     49  H   LIG A   1      -4.719  -2.726 125.793  0.00  0.00    +0.210 HD
ENDBRANCH  41  48
BRANCH  40  50
ATOM     50  O   LIG A   1      -6.616  -2.134 122.648  0.00  0.00    -0.383 OA
ATOM     51  H   LIG A   1      -5.945  -1.928 121.961  0.00  0.00    +0.210 HD
ENDBRANCH  40  50
ENDBRANCH  38  39
ENDBRANCH  11  38
TORSDOF 14
ENDMDL
MODEL 6
REMARK VINA RESULT:      -8.6      2.823      8.365
REMARK  Name = NuBBE_319
REMARK  18 active torsions:
REMARK  status: ('A' for Active; 'I' for Inactive)
REMARK    1  A    between atoms: C_1  and  O_2
REMARK    2  A    between atoms: O_2  and  C_3
REMARK    3  A    between atoms: C_6  and  C_7
REMARK    4  A    between atoms: C_11  and  O_30
REMARK    5  A    between atoms: C_13  and  O_14
REMARK    6  A    between atoms: O_14  and  C_15
REMARK    7  A    between atoms: C_17  and  O_29
REMARK    8  A    between atoms: C_19  and  O_28
REMARK    9  A    between atoms: C_21  and  O_27
REMARK   10  A    between atoms: C_23  and  C_26
REMARK   11  A    between atoms: O_30  and  C_31
REMARK   12  A    between atoms: C_31  and  C_32
REMARK   13  A    between atoms: C_37  and  O_38
REMARK   14  A    between atoms: O_38  and  C_39
REMARK   15  A    between atoms: C_41  and  O_53
REMARK   16  A    between atoms: C_43  and  O_52
REMARK   17  A    between atoms: C_45  and  O_51
REMARK   18  A    between atoms: C_47  and  C_50
REMARK                            x       y       z     vdW  Elec       q    Type
REMARK                         _______ _______ _______ _____ _____    ______ ____
ROOT
ATOM      1  C   LIG A   1      -7.292  -2.382 129.811  0.00  0.00    +0.181 A 
ATOM      2  O   LIG A   1      -7.448  -3.070 128.601  0.00  0.00    -0.451 OA
ATOM      3  C   LIG A   1      -7.748  -2.352 127.455  0.00  0.00    +0.147 A 
ATOM      4  C   LIG A   1      -7.825  -3.130 126.299  0.00  0.00    +0.093 A 
ATOM      5  C   LIG A   1      -7.635  -2.459 125.120  0.00  0.00    +0.139 A 
ATOM      6  C   LIG A   1      -7.583  -1.078 125.171  0.00  0.00    +0.093 A 
ATOM      7  C   LIG A   1      -7.744  -0.220 126.225  0.00  0.00    +0.142 A 
ATOM      8  C   LIG A   1      -7.693  -0.927 127.425  0.00  0.00    +0.110 A 
ATOM      9  C   LIG A   1      -6.968  -0.462 128.614  0.00  0.00    +0.238 A 
ATOM     10  O   LIG A   1      -5.802  -0.095 128.437  0.00  0.00    -0.283 OA
ATOM     11  C   LIG A   1      -7.547  -1.043 129.918  0.00  0.00    +0.214 A 
ENDROOT
BRANCH   1  15
ATOM     12  C   LIG A   1      -6.027  -4.747 133.227  0.00  0.00    +0.120 A 
ATOM     13  C   LIG A   1      -5.453  -4.948 131.970  0.00  0.00    +0.046 A 
ATOM     14  C   LIG A   1      -5.920  -4.293 130.796  0.00  0.00    +0.015 A 
ATOM     15  C   LIG A   1      -6.857  -3.292 130.893  0.00  0.00    +0.021 A 
ATOM     16  C   LIG A   1      -7.163  -2.998 132.184  0.00  0.00    +0.015 A 
ATOM     17  C   LIG A   1      -6.961  -3.777 133.314  0.00  0.00    +0.046 A 
BRANCH  12  19
ATOM     18  C   LIG A   1      -6.279  -5.868 135.310  0.00  0.00    +0.277 C 
ATOM     19  O   LIG A   1      -5.429  -5.219 134.357  0.00  0.00    -0.495 OA
ENDBRANCH  12  19
ENDBRANCH   1  15
BRANCH   7  20
ATOM     20  O   LIG A   1      -7.892   1.135 126.089  0.00  0.00    -0.460 OA
BRANCH  20  21
ATOM     21  C   LIG A   1      -7.296   2.112 125.115  0.00  0.00    +0.339 C 
ATOM     22  C   LIG A   1      -8.184   3.356 124.959  0.00  0.00    +0.214 C 
ATOM     23  C   LIG A   1      -8.064   4.142 126.232  0.00  0.00    +0.180 C 
ATOM     24  C   LIG A   1      -6.560   4.459 126.611  0.00  0.00    +0.174 C 
ATOM     25  C   LIG A   1      -5.431   3.292 126.159  0.00  0.00    +0.150 C 
ATOM     26  O   LIG A   1      -5.892   2.489 125.070  0.00  0.00    -0.334 OA
ATOM     27  C   LIG A   1      -3.909   3.672 126.076  0.00  0.00    +0.040 C 
BRANCH  24  28
ATOM     28  O   LIG A   1      -6.692   4.647 128.050  0.00  0.00    -0.387 OA
ATOM     29  H   LIG A   1      -6.158   4.005 128.544  0.00  0.00    +0.210 HD
ENDBRANCH  24  28
BRANCH  23  30
ATOM     30  O   LIG A   1      -8.859   5.344 126.114  0.00  0.00    -0.386 OA
ATOM     31  H   LIG A   1      -9.793   5.056 126.198  0.00  0.00    +0.210 HD
ENDBRANCH  23  30
BRANCH  22  32
ATOM     32  O   LIG A   1      -7.829   4.243 123.887  0.00  0.00    -0.383 OA
ATOM     33  H   LIG A   1      -6.887   4.034 123.700  0.00  0.00    +0.210 HD
ENDBRANCH  22  32
ENDBRANCH  20  21
ENDBRANCH   7  20
BRANCH   5  34
ATOM     34  O   LIG A   1      -7.282  -3.126 123.938  0.00  0.00    -0.426 OA
BRANCH  34  35
ATOM     35  C   LIG A   1      -6.110  -2.763 123.297  0.00  0.00    +0.309 C 
ATOM     36  C   LIG A   1      -4.923  -3.522 123.928  0.00  0.00    +0.136 C 
ATOM     37  O   LIG A   1      -6.034  -2.051 122.401  0.00  0.00    -0.251 OA
ENDBRANCH  34  35
ENDBRANCH   5  34
BRANCH  11  38
ATOM     38  O   LIG A   1      -7.773  -0.259 131.050  0.00  0.00    -0.453 OA
BRANCH  38  39
ATOM     39  C   LIG A   1      -7.325   1.170 131.361  0.00  0.00    +0.340 C 
ATOM     40  C   LIG A   1      -7.480   2.429 130.406  0.00  0.00    +0.214 C 
ATOM     41  C   LIG A   1      -8.943   2.765 130.336  0.00  0.00    +0.180 C 
ATOM     42  C   LIG A   1      -9.473   3.070 131.734  0.00  0.00    +0.174 C 
ATOM     43  C   LIG A   1      -8.527   2.667 132.944  0.00  0.00    +0.150 C 
ATOM     44  O   LIG A   1      -7.543   1.626 132.735  0.00  0.00    -0.334 OA
ATOM     45  C   LIG A   1      -8.130   3.713 134.011  0.00  0.00    +0.040 C 
BRANCH  42  46
ATOM     46  O   LIG A   1     -10.695   2.328 131.610  0.00  0.00    -0.387 OA
ATOM     47  H   LIG A   1     -11.202   2.724 130.893  0.00  0.00    +0.210 HD
ENDBRANCH  42  46
BRANCH  41  48
ATOM     48  O   LIG A   1      -9.332   3.859 129.500  0.00  0.00    -0.386 OA
ATOM     49  H   LIG A   1      -8.862   3.671 128.653  0.00  0.00    +0.210 HD
ENDBRANCH  41  48
BRANCH  40  50
ATOM     50  O   LIG A   1      -6.834   3.614 130.956  0.00  0.00    -0.383 OA
ATOM     51  H   LIG A   1      -6.803   3.507 131.932  0.00  0.00    +0.210 HD
ENDBRANCH  40  50
ENDBRANCH  38  39
ENDBRANCH  11  38
TORSDOF 14
ENDMDL
MODEL 7
REMARK VINA RESULT:      -8.6      2.262      5.870
REMARK  Name = NuBBE_319
REMARK  18 active torsions:
REMARK  status: ('A' for Active; 'I' for Inactive)
REMARK    1  A    between atoms: C_1  and  O_2
REMARK    2  A    between atoms: O_2  and  C_3
REMARK    3  A    between atoms: C_6  and  C_7
REMARK    4  A    between atoms: C_11  and  O_30
REMARK    5  A    between atoms: C_13  and  O_14
REMARK    6  A    between atoms: O_14  and  C_15
REMARK    7  A    between atoms: C_17  and  O_29
REMARK    8  A    between atoms: C_19  and  O_28
REMARK    9  A    between atoms: C_21  and  O_27
REMARK   10  A    between atoms: C_23  and  C_26
REMARK   11  A    between atoms: O_30  and  C_31
REMARK   12  A    between atoms: C_31  and  C_32
REMARK   13  A    between atoms: C_37  and  O_38
REMARK   14  A    between atoms: O_38  and  C_39
REMARK   15  A    between atoms: C_41  and  O_53
REMARK   16  A    between atoms: C_43  and  O_52
REMARK   17  A    between atoms: C_45  and  O_51
REMARK   18  A    between atoms: C_47  and  C_50
REMARK                            x       y       z     vdW  Elec       q    Type
REMARK                         _______ _______ _______ _____ _____    ______ ____
ROOT
ATOM      1  C   LIG A   1      -7.627   2.368 123.966  0.00  0.00    +0.181 A 
ATOM      2  O   LIG A   1      -7.613   3.418 124.893  0.00  0.00    -0.451 OA
ATOM      3  C   LIG A   1      -7.530   3.119 126.243  0.00  0.00    +0.147 A 
ATOM      4  C   LIG A   1      -7.466   4.241 127.071  0.00  0.00    +0.093 A 
ATOM      5  C   LIG A   1      -6.913   4.034 128.307  0.00  0.00    +0.139 A 
ATOM      6  C   LIG A   1      -6.656   2.728 128.682  0.00  0.00    +0.093 A 
ATOM      7  C   LIG A   1      -6.912   1.549 128.035  0.00  0.00    +0.142 A 
ATOM      8  C   LIG A   1      -7.245   1.801 126.705  0.00  0.00    +0.110 A 
ATOM      9  C   LIG A   1      -6.742   1.008 125.577  0.00  0.00    +0.238 A 
ATOM     10  O   LIG A   1      -5.523   0.811 125.545  0.00  0.00    -0.283 OA
ATOM     11  C   LIG A   1      -7.683   1.059 124.359  0.00  0.00    +0.214 A 
ENDROOT
BRANCH   1  15
ATOM     12  C   LIG A   1      -7.232   4.085 119.996  0.00  0.00    +0.120 A 
ATOM     13  C   LIG A   1      -8.493   3.869 120.556  0.00  0.00    +0.046 A 
ATOM     14  C   LIG A   1      -8.680   3.193 121.795  0.00  0.00    +0.015 A 
ATOM     15  C   LIG A   1      -7.595   2.877 122.578  0.00  0.00    +0.021 A 
ATOM     16  C   LIG A   1      -6.433   3.357 122.063  0.00  0.00    +0.015 A 
ATOM     17  C   LIG A   1      -6.169   3.754 120.760  0.00  0.00    +0.046 A 
BRANCH  12  19
ATOM     18  C   LIG A   1      -5.826   5.618 118.842  0.00  0.00    +0.277 C 
ATOM     19  O   LIG A   1      -7.070   4.913 118.926  0.00  0.00    -0.495 OA
ENDBRANCH  12  19
ENDBRANCH   1  15
BRANCH   7  20
ATOM     20  O   LIG A   1      -6.810   0.318 128.626  0.00  0.00    -0.460 OA
BRANCH  20  21
ATOM     21  C   LIG A   1      -5.632  -0.590 128.844  0.00  0.00    +0.339 C 
ATOM     22  C   LIG A   1      -4.672  -0.014 129.896  0.00  0.00    +0.214 C 
ATOM     23  C   LIG A   1      -5.354  -0.140 131.226  0.00  0.00    +0.180 C 
ATOM     24  C   LIG A   1      -5.838  -1.617 131.525  0.00  0.00    +0.174 C 
ATOM     25  C   LIG A   1      -6.307  -2.518 130.181  0.00  0.00    +0.150 C 
ATOM     26  O   LIG A   1      -5.710  -2.037 128.974  0.00  0.00    -0.334 OA
ATOM     27  C   LIG A   1      -6.378  -4.085 130.279  0.00  0.00    +0.040 C 
BRANCH  24  28
ATOM     28  O   LIG A   1      -6.908  -1.349 132.476  0.00  0.00    -0.387 OA
ATOM     29  H   LIG A   1      -6.594  -1.411 133.392  0.00  0.00    +0.210 HD
ENDBRANCH  24  28
BRANCH  23  30
ATOM     30  O   LIG A   1      -4.466   0.359 132.254  0.00  0.00    -0.386 OA
ATOM     31  H   LIG A   1      -4.487   1.336 132.173  0.00  0.00    +0.210 HD
ENDBRANCH  23  30
BRANCH  22  32
ATOM     32  O   LIG A   1      -3.405  -0.682 130.012  0.00  0.00    -0.383 OA
ATOM     33  H   LIG A   1      -2.764   0.041 130.194  0.00  0.00    +0.210 HD
ENDBRANCH  22  32
ENDBRANCH  20  21
ENDBRANCH   7  20
BRANCH   5  34
ATOM     34  O   LIG A   1      -6.413   5.093 129.080  0.00  0.00    -0.426 OA
BRANCH  34  35
ATOM     35  C   LIG A   1      -5.058   5.370 129.026  0.00  0.00    +0.309 C 
ATOM     36  C   LIG A   1      -4.406   5.016 130.379  0.00  0.00    +0.136 C 
ATOM     37  O   LIG A   1      -4.493   5.751 128.104  0.00  0.00    -0.251 OA
ENDBRANCH  34  35
ENDBRANCH   5  34
BRANCH  11  38
ATOM     38  O   LIG A   1      -8.032  -0.081 123.635  0.00  0.00    -0.453 OA
BRANCH  38  39
ATOM     39  C   LIG A   1      -8.518  -1.446 124.126  0.00  0.00    +0.340 C 
ATOM     40  C   LIG A   1      -7.953  -2.860 123.673  0.00  0.00    +0.214 C 
ATOM     41  C   LIG A   1      -6.572  -3.000 124.246  0.00  0.00    +0.180 C 
ATOM     42  C   LIG A   1      -6.628  -2.895 125.767  0.00  0.00    +0.174 C 
ATOM     43  C   LIG A   1      -7.989  -2.355 126.382  0.00  0.00    +0.150 C 
ATOM     44  O   LIG A   1      -8.845  -1.536 125.551  0.00  0.00    -0.334 OA
ATOM     45  C   LIG A   1      -8.739  -3.168 127.461  0.00  0.00    +0.040 C 
BRANCH  42  46
ATOM     46  O   LIG A   1      -5.483  -2.043 125.914  0.00  0.00    -0.387 OA
ATOM     47  H   LIG A   1      -5.665  -1.438 126.642  0.00  0.00    +0.210 HD
ENDBRANCH  42  46
BRANCH  41  48
ATOM     48  O   LIG A   1      -5.846  -4.195 123.941  0.00  0.00    -0.386 OA
ATOM     49  H   LIG A   1      -6.268  -4.505 123.105  0.00  0.00    +0.210 HD
ENDBRANCH  41  48
BRANCH  40  50
ATOM     50  O   LIG A   1      -8.723  -3.962 124.237  0.00  0.00    -0.383 OA
ATOM     51  H   LIG A   1      -8.611  -3.929 125.213  0.00  0.00    +0.210 HD
ENDBRANCH  40  50
ENDBRANCH  38  39
ENDBRANCH  11  38
TORSDOF 14
ENDMDL
MODEL 8
REMARK VINA RESULT:      -8.6      1.774      6.158
REMARK  Name = NuBBE_319
REMARK  18 active torsions:
REMARK  status: ('A' for Active; 'I' for Inactive)
REMARK    1  A    between atoms: C_1  and  O_2
REMARK    2  A    between atoms: O_2  and  C_3
REMARK    3  A    between atoms: C_6  and  C_7
REMARK    4  A    between atoms: C_11  and  O_30
REMARK    5  A    between atoms: C_13  and  O_14
REMARK    6  A    between atoms: O_14  and  C_15
REMARK    7  A    between atoms: C_17  and  O_29
REMARK    8  A    between atoms: C_19  and  O_28
REMARK    9  A    between atoms: C_21  and  O_27
REMARK   10  A    between atoms: C_23  and  C_26
REMARK   11  A    between atoms: O_30  and  C_31
REMARK   12  A    between atoms: C_31  and  C_32
REMARK   13  A    between atoms: C_37  and  O_38
REMARK   14  A    between atoms: O_38  and  C_39
REMARK   15  A    between atoms: C_41  and  O_53
REMARK   16  A    between atoms: C_43  and  O_52
REMARK   17  A    between atoms: C_45  and  O_51
REMARK   18  A    between atoms: C_47  and  C_50
REMARK                            x       y       z     vdW  Elec       q    Type
REMARK                         _______ _______ _______ _____ _____    ______ ____
ROOT
ATOM      1  C   LIG A   1      -6.480   2.987 124.433  0.00  0.00    +0.181 A 
ATOM      2  O   LIG A   1      -5.739   4.029 125.005  0.00  0.00    -0.451 OA
ATOM      3  C   LIG A   1      -5.325   3.913 126.322  0.00  0.00    +0.147 A 
ATOM      4  C   LIG A   1      -4.547   4.981 126.770  0.00  0.00    +0.093 A 
ATOM      5  C   LIG A   1      -3.734   4.715 127.840  0.00  0.00    +0.139 A 
ATOM      6  C   LIG A   1      -3.900   3.501 128.482  0.00  0.00    +0.093 A 
ATOM      7  C   LIG A   1      -4.803   2.495 128.265  0.00  0.00    +0.142 A 
ATOM      8  C   LIG A   1      -5.442   2.687 127.041  0.00  0.00    +0.110 A 
ATOM      9  C   LIG A   1      -5.709   1.607 126.084  0.00  0.00    +0.238 A 
ATOM     10  O   LIG A   1      -4.757   0.870 125.808  0.00  0.00    -0.283 OA
ATOM     11  C   LIG A   1      -6.909   1.918 125.170  0.00  0.00    +0.214 A 
ENDROOT
BRANCH   1  15
ATOM     12  C   LIG A   1      -6.943   3.992 120.233  0.00  0.00    +0.120 A 
ATOM     13  C   LIG A   1      -8.053   3.654 121.010  0.00  0.00    +0.046 A 
ATOM     14  C   LIG A   1      -7.942   3.194 122.353  0.00  0.00    +0.015 A 
ATOM     15  C   LIG A   1      -6.726   3.231 122.995  0.00  0.00    +0.021 A 
ATOM     16  C   LIG A   1      -5.762   3.814 122.236  0.00  0.00    +0.015 A 
ATOM     17  C   LIG A   1      -5.749   4.007 120.862  0.00  0.00    +0.046 A 
BRANCH  12  19
ATOM     18  C   LIG A   1      -6.040   5.522 118.650  0.00  0.00    +0.277 C 
ATOM     19  O   LIG A   1      -7.089   4.626 119.036  0.00  0.00    -0.495 OA
ENDBRANCH  12  19
ENDBRANCH   1  15
BRANCH   7  20
ATOM     20  O   LIG A   1      -4.998   1.447 129.125  0.00  0.00    -0.460 OA
BRANCH  20  21
ATOM     21  C   LIG A   1      -6.249   0.850 129.705  0.00  0.00    +0.339 C 
ATOM     22  C   LIG A   1      -6.042   0.440 131.172  0.00  0.00    +0.214 C 
ATOM     23  C   LIG A   1      -5.957   1.707 131.972  0.00  0.00    +0.180 C 
ATOM     24  C   LIG A   1      -7.195   2.664 131.730  0.00  0.00    +0.174 C 
ATOM     25  C   LIG A   1      -7.866   2.614 130.185  0.00  0.00    +0.150 C 
ATOM     26  O   LIG A   1      -7.589   1.381 129.516  0.00  0.00    -0.334 OA
ATOM     27  C   LIG A   1      -9.321   3.158 129.951  0.00  0.00    +0.040 C 
BRANCH  24  28
ATOM     28  O   LIG A   1      -6.603   3.945 132.091  0.00  0.00    -0.387 OA
ATOM     29  H   LIG A   1      -7.199   4.469 132.648  0.00  0.00    +0.210 HD
ENDBRANCH  24  28
BRANCH  23  30
ATOM     30  O   LIG A   1      -5.798   1.367 133.368  0.00  0.00    -0.386 OA
ATOM     31  H   LIG A   1      -5.294   0.525 133.382  0.00  0.00    +0.210 HD
ENDBRANCH  23  30
BRANCH  22  32
ATOM     32  O   LIG A   1      -7.095  -0.348 131.751  0.00  0.00    -0.383 OA
ATOM     33  H   LIG A   1      -7.921   0.063 131.412  0.00  0.00    +0.210 HD
ENDBRANCH  22  32
ENDBRANCH  20  21
ENDBRANCH   7  20
BRANCH   5  34
ATOM     34  O   LIG A   1      -2.627   5.520 128.147  0.00  0.00    -0.426 OA
BRANCH  34  35
ATOM     35  C   LIG A   1      -2.814   6.613 128.976  0.00  0.00    +0.309 C 
ATOM     36  C   LIG A   1      -2.091   6.371 130.317  0.00  0.00    +0.136 C 
ATOM     37  O   LIG A   1      -3.372   7.575 128.693  0.00  0.00    -0.251 OA
ENDBRANCH  34  35
ENDBRANCH   5  34
BRANCH  11  38
ATOM     38  O   LIG A   1      -7.902   0.977 124.893  0.00  0.00    -0.453 OA
BRANCH  38  39
ATOM     39  C   LIG A   1      -7.929  -0.145 123.854  0.00  0.00    +0.340 C 
ATOM     40  C   LIG A   1      -6.685  -1.006 123.373  0.00  0.00    +0.214 C 
ATOM     41  C   LIG A   1      -6.283  -1.896 124.515  0.00  0.00    +0.180 C 
ATOM     42  C   LIG A   1      -7.451  -2.795 124.908  0.00  0.00    +0.174 C 
ATOM     43  C   LIG A   1      -8.868  -2.405 124.307  0.00  0.00    +0.150 C 
ATOM     44  O   LIG A   1      -9.093  -1.034 123.901  0.00  0.00    -0.334 OA
ATOM     45  C   LIG A   1      -9.701  -3.445 123.523  0.00  0.00    +0.040 C 
BRANCH  42  46
ATOM     46  O   LIG A   1      -7.301  -2.645 126.327  0.00  0.00    -0.387 OA
ATOM     47  H   LIG A   1      -8.183  -2.663 126.715  0.00  0.00    +0.210 HD
ENDBRANCH  42  46
BRANCH  41  48
ATOM     48  O   LIG A   1      -5.151  -2.751 124.322  0.00  0.00    -0.386 OA
ATOM     49  H   LIG A   1      -4.557  -2.209 123.752  0.00  0.00    +0.210 HD
ENDBRANCH  41  48
BRANCH  40  50
ATOM     50  O   LIG A   1      -7.034  -1.907 122.281  0.00  0.00    -0.383 OA
ATOM     51  H   LIG A   1      -7.878  -2.348 122.521  0.00  0.00    +0.210 HD
ENDBRANCH  40  50
ENDBRANCH  38  39
ENDBRANCH  11  38
TORSDOF 14
ENDMDL
MODEL 9
REMARK VINA RESULT:      -8.6      4.833      9.475
REMARK  Name = NuBBE_319
REMARK  18 active torsions:
REMARK  status: ('A' for Active; 'I' for Inactive)
REMARK    1  A    between atoms: C_1  and  O_2
REMARK    2  A    between atoms: O_2  and  C_3
REMARK    3  A    between atoms: C_6  and  C_7
REMARK    4  A    between atoms: C_11  and  O_30
REMARK    5  A    between atoms: C_13  and  O_14
REMARK    6  A    between atoms: O_14  and  C_15
REMARK    7  A    between atoms: C_17  and  O_29
REMARK    8  A    between atoms: C_19  and  O_28
REMARK    9  A    between atoms: C_21  and  O_27
REMARK   10  A    between atoms: C_23  and  C_26
REMARK   11  A    between atoms: O_30  and  C_31
REMARK   12  A    between atoms: C_31  and  C_32
REMARK   13  A    between atoms: C_37  and  O_38
REMARK   14  A    between atoms: O_38  and  C_39
REMARK   15  A    between atoms: C_41  and  O_53
REMARK   16  A    between atoms: C_43  and  O_52
REMARK   17  A    between atoms: C_45  and  O_51
REMARK   18  A    between atoms: C_47  and  C_50
REMARK                            x       y       z     vdW  Elec       q    Type
REMARK                         _______ _______ _______ _____ _____    ______ ____
ROOT
ATOM      1  C   LIG A   1      -8.940   6.088 131.184  0.00  0.00    +0.181 A 
ATOM      2  O   LIG A   1      -9.029   5.965 132.577  0.00  0.00    -0.451 OA
ATOM      3  C   LIG A   1      -7.937   5.480 133.279  0.00  0.00    +0.147 A 
ATOM      4  C   LIG A   1      -8.116   5.453 134.663  0.00  0.00    +0.093 A 
ATOM      5  C   LIG A   1      -6.968   5.455 135.408  0.00  0.00    +0.139 A 
ATOM      6  C   LIG A   1      -5.770   5.289 134.738  0.00  0.00    +0.093 A 
ATOM      7  C   LIG A   1      -5.516   5.062 133.412  0.00  0.00    +0.142 A 
ATOM      8  C   LIG A   1      -6.664   5.304 132.661  0.00  0.00    +0.110 A 
ATOM      9  C   LIG A   1      -6.663   6.021 131.380  0.00  0.00    +0.238 A 
ATOM     10  O   LIG A   1      -6.060   7.099 131.356  0.00  0.00    -0.283 OA
ATOM     11  C   LIG A   1      -7.855   5.630 130.488  0.00  0.00    +0.214 A 
ENDROOT
BRANCH   1  15
ATOM     12  C   LIG A   1     -12.256   8.280 129.435  0.00  0.00    +0.120 A 
ATOM     13  C   LIG A   1     -12.417   7.583 130.634  0.00  0.00    +0.046 A 
ATOM     14  C   LIG A   1     -11.404   6.746 131.181  0.00  0.00    +0.015 A 
ATOM     15  C   LIG A   1     -10.146   6.733 130.625  0.00  0.00    +0.021 A 
ATOM     16  C   LIG A   1     -10.022   7.638 129.619  0.00  0.00    +0.015 A 
ATOM     17  C   LIG A   1     -11.026   8.248 128.881  0.00  0.00    +0.046 A 
BRANCH  12  19
ATOM     18  C   LIG A   1     -13.271  10.383 129.892  0.00  0.00    +0.277 C 
ATOM     19  O   LIG A   1     -13.152   9.231 129.049  0.00  0.00    -0.495 OA
ENDBRANCH  12  19
ENDBRANCH   1  15
BRANCH   7  20
ATOM     20  O   LIG A   1      -4.291   4.690 132.923  0.00  0.00    -0.460 OA
BRANCH  20  21
ATOM     21  C   LIG A   1      -2.900   5.144 133.264  0.00  0.00    +0.339 C 
ATOM     22  C   LIG A   1      -2.000   5.164 132.019  0.00  0.00    +0.214 C 
ATOM     23  C   LIG A   1      -2.455   6.315 131.169  0.00  0.00    +0.180 C 
ATOM     24  C   LIG A   1      -2.494   7.681 131.967  0.00  0.00    +0.174 C 
ATOM     25  C   LIG A   1      -2.875   7.561 133.604  0.00  0.00    +0.150 C 
ATOM     26  O   LIG A   1      -2.580   6.266 134.132  0.00  0.00    -0.334 OA
ATOM     27  C   LIG A   1      -2.521   8.745 134.574  0.00  0.00    +0.040 C 
BRANCH  24  28
ATOM     28  O   LIG A   1      -3.471   8.414 131.171  0.00  0.00    -0.387 OA
ATOM     29  H   LIG A   1      -3.316   9.371 131.210  0.00  0.00    +0.210 HD
ENDBRANCH  24  28
BRANCH  23  30
ATOM     30  O   LIG A   1      -1.608   6.393 129.999  0.00  0.00    -0.386 OA
ATOM     31  H   LIG A   1      -1.040   7.182 130.133  0.00  0.00    +0.210 HD
ENDBRANCH  23  30
BRANCH  22  32
ATOM     32  O   LIG A   1      -0.599   5.359 132.268  0.00  0.00    -0.383 OA
ATOM     33  H   LIG A   1      -0.231   5.625 131.395  0.00  0.00    +0.210 HD
ENDBRANCH  22  32
ENDBRANCH  20  21
ENDBRANCH   7  20
BRANCH   5  34
ATOM     34  O   LIG A   1      -6.963   5.832 136.760  0.00  0.00    -0.426 OA
BRANCH  34  35
ATOM     35  C   LIG A   1      -6.890   7.180 137.071  0.00  0.00    +0.309 C 
ATOM     36  C   LIG A   1      -8.285   7.686 137.492  0.00  0.00    +0.136 C 
ATOM     37  O   LIG A   1      -5.933   7.811 137.071  0.00  0.00    -0.251 OA
ENDBRANCH  34  35
ENDBRANCH   5  34
BRANCH  11  38
ATOM     38  O   LIG A   1      -7.713   5.355 129.127  0.00  0.00    -0.453 OA
BRANCH  38  39
ATOM     39  C   LIG A   1      -6.979   4.210 128.428  0.00  0.00    +0.340 C 
ATOM     40  C   LIG A   1      -7.635   3.116 127.483  0.00  0.00    +0.214 C 
ATOM     41  C   LIG A   1      -8.044   3.804 126.211  0.00  0.00    +0.180 C 
ATOM     42  C   LIG A   1      -6.824   4.438 125.549  0.00  0.00    +0.174 C 
ATOM     43  C   LIG A   1      -5.514   4.535 126.442  0.00  0.00    +0.150 C 
ATOM     44  O   LIG A   1      -5.659   4.533 127.883  0.00  0.00    -0.334 OA
ATOM     45  C   LIG A   1      -4.175   3.953 125.936  0.00  0.00    +0.040 C 
BRANCH  42  46
ATOM     46  O   LIG A   1      -7.452   5.681 125.207  0.00  0.00    -0.387 OA
ATOM     47  H   LIG A   1      -8.211   5.793 125.791  0.00  0.00    +0.210 HD
ENDBRANCH  42  46
BRANCH  41  48
ATOM     48  O   LIG A   1      -8.693   3.014 125.209  0.00  0.00    -0.386 OA
ATOM     49  H   LIG A   1      -8.912   2.181 125.690  0.00  0.00    +0.210 HD
ENDBRANCH  41  48
BRANCH  40  50
ATOM     50  O   LIG A   1      -6.676   2.094 127.083  0.00  0.00    -0.383 OA
ATOM     51  H   LIG A   1      -5.894   2.555 126.708  0.00  0.00    +0.210 HD
ENDBRANCH  40  50
ENDBRANCH  38  39
ENDBRANCH  11  38
TORSDOF 14
ENDMDL
