MODEL 1
REMARK VINA RESULT:      -6.9      0.000      0.000
REMARK  Name = NuBBE_1840
REMARK  10 active torsions:
REMARK  status: ('A' for Active; 'I' for Inactive)
REMARK    1  A    between atoms: O_1  and  C_2
REMARK    2  A    between atoms: C_7  and  C_9
REMARK    3  A    between atoms: C_11  and  O_12
REMARK    4  A    between atoms: O_12  and  C_13
REMARK    5  A    between atoms: C_14  and  O_15
REMARK    6  A    between atoms: O_15  and  C_16
REMARK    7  A    between atoms: C_17  and  O_18
REMARK    8  A    between atoms: O_18  and  C_19
REMARK    9  A    between atoms: C_23  and  C_24
REMARK   10  A    between atoms: C_24  and  C_25
REMARK                            x       y       z     vdW  Elec       q    Type
REMARK                         _______ _______ _______ _____ _____    ______ ____
ROOT
ATOM      1  C   LIG A   1      -6.279   4.037 123.316  0.00  0.00    +0.124 A 
ATOM      2  C   LIG A   1      -7.118   3.982 124.432  0.00  0.00    +0.091 A 
ATOM      3  C   LIG A   1      -8.185   3.113 124.376  0.00  0.00    +0.128 A 
ATOM      4  C   LIG A   1      -8.460   2.350 123.254  0.00  0.00    -0.001 A 
ATOM      5  C   LIG A   1      -9.710   1.590 123.491  0.00  0.00    +0.088 C 
ATOM      6  C   LIG A   1      -9.701   1.617 125.031  0.00  0.00    +0.208 C 
ATOM      7  O   LIG A   1      -9.056   2.875 125.414  0.00  0.00    -0.483 OA
ATOM      8  C   LIG A   1      -7.642   2.404 122.144  0.00  0.00    +0.014 A 
ATOM      9  C   LIG A   1      -6.504   3.234 122.178  0.00  0.00    -0.002 A 
ENDROOT
BRANCH   6  10
ATOM     10  C   LIG A   1      -9.023   0.417 125.700  0.00  0.00    +0.000 A 
ATOM     11  C   LIG A   1      -8.342   0.560 126.922  0.00  0.00    +0.057 A 
ATOM     12  C   LIG A   1      -7.787  -0.535 127.589  0.00  0.00    +0.166 A 
ATOM     13  C   LIG A   1      -7.920  -1.819 127.022  0.00  0.00    +0.203 A 
ATOM     14  C   LIG A   1      -8.512  -1.977 125.755  0.00  0.00    +0.166 A 
ATOM     15  C   LIG A   1      -9.094  -0.863 125.124  0.00  0.00    +0.057 A 
BRANCH  12  16
ATOM     16  O   LIG A   1      -7.065  -0.397 128.754  0.00  0.00    -0.491 OA
ATOM     17  C   LIG A   1      -7.808  -0.148 129.950  0.00  0.00    +0.277 C 
ENDBRANCH  12  16
BRANCH  13  18
ATOM     18  O   LIG A   1      -7.450  -2.949 127.638  0.00  0.00    -0.488 OA
ATOM     19  C   LIG A   1      -8.367  -3.600 128.505  0.00  0.00    +0.277 C 
ENDBRANCH  13  18
BRANCH  14  20
ATOM     20  O   LIG A   1      -8.635  -3.156 125.053  0.00  0.00    -0.491 OA
ATOM     21  C   LIG A   1      -9.246  -3.084 123.763  0.00  0.00    +0.277 C 
ENDBRANCH  14  20
ENDBRANCH   6  10
BRANCH   1  22
ATOM     22  O   LIG A   1      -5.207   4.888 123.325  0.00  0.00    -0.506 OA
ATOM     23  H   LIG A   1      -5.535   5.801 123.367  0.00  0.00    +0.292 HD
ENDBRANCH   1  22
BRANCH   9  24
ATOM     24  C   LIG A   1      -5.568   3.248 120.987  0.00  0.00    +0.065 C 
BRANCH  24  25
ATOM     25  C   LIG A   1      -5.979   4.237 119.931  0.00  0.00    -0.030 C 
ATOM     26  C   LIG A   1      -5.345   5.420 119.705  0.00  0.00    +0.004 C 
ENDBRANCH  24  25
ENDBRANCH   9  24
TORSDOF 7
ENDMDL
MODEL 2
REMARK VINA RESULT:      -6.8      1.981      7.205
REMARK  Name = NuBBE_1840
REMARK  10 active torsions:
REMARK  status: ('A' for Active; 'I' for Inactive)
REMARK    1  A    between atoms: O_1  and  C_2
REMARK    2  A    between atoms: C_7  and  C_9
REMARK    3  A    between atoms: C_11  and  O_12
REMARK    4  A    between atoms: O_12  and  C_13
REMARK    5  A    between atoms: C_14  and  O_15
REMARK    6  A    between atoms: O_15  and  C_16
REMARK    7  A    between atoms: C_17  and  O_18
REMARK    8  A    between atoms: O_18  and  C_19
REMARK    9  A    between atoms: C_23  and  C_24
REMARK   10  A    between atoms: C_24  and  C_25
REMARK                            x       y       z     vdW  Elec       q    Type
REMARK                         _______ _______ _______ _____ _____    ______ ____
ROOT
ATOM      1  C   LIG A   1      -8.030  -2.565 124.527  0.00  0.00    +0.124 A 
ATOM      2  C   LIG A   1      -8.736  -1.932 123.502  0.00  0.00    +0.091 A 
ATOM      3  C   LIG A   1      -9.325  -0.721 123.795  0.00  0.00    +0.128 A 
ATOM      4  C   LIG A   1      -9.272  -0.160 125.059  0.00  0.00    -0.001 A 
ATOM      5  C   LIG A   1     -10.066   1.091 125.057  0.00  0.00    +0.088 C 
ATOM      6  C   LIG A   1     -10.032   1.377 123.544  0.00  0.00    +0.208 C 
ATOM      7  O   LIG A   1      -9.983   0.070 122.883  0.00  0.00    -0.483 OA
ATOM      8  C   LIG A   1      -8.585  -0.782 126.081  0.00  0.00    +0.014 A 
ATOM      9  C   LIG A   1      -7.915  -1.993 125.812  0.00  0.00    -0.002 A 
ENDROOT
BRANCH   6  10
ATOM     10  C   LIG A   1      -8.886   2.281 123.078  0.00  0.00    +0.000 A 
ATOM     11  C   LIG A   1      -7.798   2.564 123.924  0.00  0.00    +0.057 A 
ATOM     12  C   LIG A   1      -6.705   3.318 123.491  0.00  0.00    +0.166 A 
ATOM     13  C   LIG A   1      -6.691   3.803 122.167  0.00  0.00    +0.203 A 
ATOM     14  C   LIG A   1      -7.808   3.615 121.331  0.00  0.00    +0.166 A 
ATOM     15  C   LIG A   1      -8.878   2.822 121.780  0.00  0.00    +0.057 A 
BRANCH  12  16
ATOM     16  O   LIG A   1      -5.666   3.652 124.330  0.00  0.00    -0.491 OA
ATOM     17  C   LIG A   1      -5.855   4.790 125.174  0.00  0.00    +0.277 C 
ENDBRANCH  12  16
BRANCH  13  18
ATOM     18  O   LIG A   1      -5.634   4.505 121.650  0.00  0.00    -0.488 OA
ATOM     19  C   LIG A   1      -4.730   3.754 120.853  0.00  0.00    +0.277 C 
ENDBRANCH  13  18
BRANCH  14  20
ATOM     20  O   LIG A   1      -7.959   4.101 120.051  0.00  0.00    -0.491 OA
ATOM     21  C   LIG A   1      -9.286   4.142 119.523  0.00  0.00    +0.277 C 
ENDBRANCH  14  20
ENDBRANCH   6  10
BRANCH   1  22
ATOM     22  O   LIG A   1      -7.430  -3.770 124.283  0.00  0.00    -0.506 OA
ATOM     23  H   LIG A   1      -8.119  -4.452 124.211  0.00  0.00    +0.292 HD
ENDBRANCH   1  22
BRANCH   9  24
ATOM     24  C   LIG A   1      -7.106  -2.647 126.913  0.00  0.00    +0.065 C 
BRANCH  24  25
ATOM     25  C   LIG A   1      -7.936  -3.002 128.117  0.00  0.00    -0.030 C 
ATOM     26  C   LIG A   1      -8.892  -3.970 128.125  0.00  0.00    +0.004 C 
ENDBRANCH  24  25
ENDBRANCH   9  24
TORSDOF 7
ENDMDL
MODEL 3
REMARK VINA RESULT:      -6.6      3.594      6.640
REMARK  Name = NuBBE_1840
REMARK  10 active torsions:
REMARK  status: ('A' for Active; 'I' for Inactive)
REMARK    1  A    between atoms: O_1  and  C_2
REMARK    2  A    between atoms: C_7  and  C_9
REMARK    3  A    between atoms: C_11  and  O_12
REMARK    4  A    between atoms: O_12  and  C_13
REMARK    5  A    between atoms: C_14  and  O_15
REMARK    6  A    between atoms: O_15  and  C_16
REMARK    7  A    between atoms: C_17  and  O_18
REMARK    8  A    between atoms: O_18  and  C_19
REMARK    9  A    between atoms: C_23  and  C_24
REMARK   10  A    between atoms: C_24  and  C_25
REMARK                            x       y       z     vdW  Elec       q    Type
REMARK                         _______ _______ _______ _____ _____    ______ ____
ROOT
ATOM      1  C   LIG A   1      -7.984  -3.289 125.506  0.00  0.00    +0.124 A 
ATOM      2  C   LIG A   1      -8.484  -3.318 126.810  0.00  0.00    +0.091 A 
ATOM      3  C   LIG A   1      -7.723  -2.720 127.791  0.00  0.00    +0.128 A 
ATOM      4  C   LIG A   1      -6.490  -2.149 127.525  0.00  0.00    -0.001 A 
ATOM      5  C   LIG A   1      -5.904  -1.669 128.798  0.00  0.00    +0.088 C 
ATOM      6  C   LIG A   1      -7.206  -1.546 129.613  0.00  0.00    +0.208 C 
ATOM      7  O   LIG A   1      -8.105  -2.585 129.105  0.00  0.00    -0.483 OA
ATOM      8  C   LIG A   1      -5.984  -2.124 126.241  0.00  0.00    +0.014 A 
ATOM      9  C   LIG A   1      -6.755  -2.671 125.195  0.00  0.00    -0.002 A 
ENDROOT
BRANCH   6  10
ATOM     10  C   LIG A   1      -7.870  -0.166 129.574  0.00  0.00    +0.000 A 
ATOM     11  C   LIG A   1      -8.437   0.396 130.732  0.00  0.00    +0.057 A 
ATOM     12  C   LIG A   1      -8.974   1.686 130.737  0.00  0.00    +0.166 A 
ATOM     13  C   LIG A   1      -8.941   2.445 129.549  0.00  0.00    +0.203 A 
ATOM     14  C   LIG A   1      -8.467   1.871 128.355  0.00  0.00    +0.166 A 
ATOM     15  C   LIG A   1      -7.898   0.586 128.387  0.00  0.00    +0.057 A 
BRANCH  12  16
ATOM     16  O   LIG A   1      -9.586   2.221 131.849  0.00  0.00    -0.491 OA
ATOM     17  C   LIG A   1      -8.737   2.622 132.926  0.00  0.00    +0.277 C 
ENDBRANCH  12  16
BRANCH  13  18
ATOM     18  O   LIG A   1      -9.399   3.734 129.486  0.00  0.00    -0.488 OA
ATOM     19  C   LIG A   1      -8.431   4.742 129.737  0.00  0.00    +0.277 C 
ENDBRANCH  13  18
BRANCH  14  20
ATOM     20  O   LIG A   1      -8.451   2.469 127.114  0.00  0.00    -0.491 OA
ATOM     21  C   LIG A   1      -7.192   2.956 126.643  0.00  0.00    +0.277 C 
ENDBRANCH  14  20
ENDBRANCH   6  10
BRANCH   1  22
ATOM     22  O   LIG A   1      -8.704  -3.874 124.499  0.00  0.00    -0.506 OA
ATOM     23  H   LIG A   1      -8.778  -4.825 124.681  0.00  0.00    +0.292 HD
ENDBRANCH   1  22
BRANCH   9  24
ATOM     24  C   LIG A   1      -6.232  -2.588 123.776  0.00  0.00    +0.065 C 
BRANCH  24  25
ATOM     25  C   LIG A   1      -4.837  -3.132 123.633  0.00  0.00    -0.030 C 
ATOM     26  C   LIG A   1      -4.525  -4.455 123.684  0.00  0.00    +0.004 C 
ENDBRANCH  24  25
ENDBRANCH   9  24
TORSDOF 7
ENDMDL
MODEL 4
REMARK VINA RESULT:      -6.6      1.930      6.742
REMARK  Name = NuBBE_1840
REMARK  10 active torsions:
REMARK  status: ('A' for Active; 'I' for Inactive)
REMARK    1  A    between atoms: O_1  and  C_2
REMARK    2  A    between atoms: C_7  and  C_9
REMARK    3  A    between atoms: C_11  and  O_12
REMARK    4  A    between atoms: O_12  and  C_13
REMARK    5  A    between atoms: C_14  and  O_15
REMARK    6  A    between atoms: O_15  and  C_16
REMARK    7  A    between atoms: C_17  and  O_18
REMARK    8  A    between atoms: O_18  and  C_19
REMARK    9  A    between atoms: C_23  and  C_24
REMARK   10  A    between atoms: C_24  and  C_25
REMARK                            x       y       z     vdW  Elec       q    Type
REMARK                         _______ _______ _______ _____ _____    ______ ____
ROOT
ATOM      1  C   LIG A   1      -7.520  -2.010 124.591  0.00  0.00    +0.124 A 
ATOM      2  C   LIG A   1      -7.506  -1.099 123.532  0.00  0.00    +0.091 A 
ATOM      3  C   LIG A   1      -8.410  -0.059 123.583  0.00  0.00    +0.128 A 
ATOM      4  C   LIG A   1      -9.333   0.068 124.606  0.00  0.00    -0.001 A 
ATOM      5  C   LIG A   1     -10.199   1.236 124.321  0.00  0.00    +0.088 C 
ATOM      6  C   LIG A   1      -9.253   1.992 123.369  0.00  0.00    +0.208 C 
ATOM      7  O   LIG A   1      -8.473   0.967 122.670  0.00  0.00    -0.483 OA
ATOM      8  C   LIG A   1      -9.360  -0.832 125.651  0.00  0.00    +0.014 A 
ATOM      9  C   LIG A   1      -8.414  -1.877 125.673  0.00  0.00    -0.002 A 
ENDROOT
BRANCH   6  10
ATOM     10  C   LIG A   1      -8.341   3.023 124.042  0.00  0.00    +0.000 A 
ATOM     11  C   LIG A   1      -8.656   3.549 125.308  0.00  0.00    +0.057 A 
ATOM     12  C   LIG A   1      -7.798   4.428 125.974  0.00  0.00    +0.166 A 
ATOM     13  C   LIG A   1      -6.581   4.792 125.361  0.00  0.00    +0.203 A 
ATOM     14  C   LIG A   1      -6.287   4.356 124.055  0.00  0.00    +0.166 A 
ATOM     15  C   LIG A   1      -7.150   3.444 123.424  0.00  0.00    +0.057 A 
BRANCH  12  16
ATOM     16  O   LIG A   1      -8.125   4.996 127.185  0.00  0.00    -0.491 OA
ATOM     17  C   LIG A   1      -7.962   4.181 128.348  0.00  0.00    +0.277 C 
ENDBRANCH  12  16
BRANCH  13  18
ATOM     18  O   LIG A   1      -5.664   5.607 125.970  0.00  0.00    -0.488 OA
ATOM     19  C   LIG A   1      -4.671   4.944 126.739  0.00  0.00    +0.277 C 
ENDBRANCH  13  18
BRANCH  14  20
ATOM     20  O   LIG A   1      -5.179   4.698 123.312  0.00  0.00    -0.491 OA
ATOM     21  C   LIG A   1      -5.206   4.377 121.919  0.00  0.00    +0.277 C 
ENDBRANCH  14  20
ENDBRANCH   6  10
BRANCH   1  22
ATOM     22  O   LIG A   1      -6.642  -3.060 124.582  0.00  0.00    -0.506 OA
ATOM     23  H   LIG A   1      -5.754  -2.726 124.792  0.00  0.00    +0.292 HD
ENDBRANCH   1  22
BRANCH   9  24
ATOM     24  C   LIG A   1      -8.398  -2.831 126.851  0.00  0.00    +0.065 C 
BRANCH  24  25
ATOM     25  C   LIG A   1      -7.734  -2.246 128.067  0.00  0.00    -0.030 C 
ATOM     26  C   LIG A   1      -7.982  -2.653 129.342  0.00  0.00    +0.004 C 
ENDBRANCH  24  25
ENDBRANCH   9  24
TORSDOF 7
ENDMDL
MODEL 5
REMARK VINA RESULT:      -6.6      3.630      6.956
REMARK  Name = NuBBE_1840
REMARK  10 active torsions:
REMARK  status: ('A' for Active; 'I' for Inactive)
REMARK    1  A    between atoms: O_1  and  C_2
REMARK    2  A    between atoms: C_7  and  C_9
REMARK    3  A    between atoms: C_11  and  O_12
REMARK    4  A    between atoms: O_12  and  C_13
REMARK    5  A    between atoms: C_14  and  O_15
REMARK    6  A    between atoms: O_15  and  C_16
REMARK    7  A    between atoms: C_17  and  O_18
REMARK    8  A    between atoms: O_18  and  C_19
REMARK    9  A    between atoms: C_23  and  C_24
REMARK   10  A    between atoms: C_24  and  C_25
REMARK                            x       y       z     vdW  Elec       q    Type
REMARK                         _______ _______ _______ _____ _____    ______ ____
ROOT
ATOM      1  C   LIG A   1      -8.030  -3.258 125.407  0.00  0.00    +0.124 A 
ATOM      2  C   LIG A   1      -8.556  -3.272 126.701  0.00  0.00    +0.091 A 
ATOM      3  C   LIG A   1      -7.773  -2.746 127.705  0.00  0.00    +0.128 A 
ATOM      4  C   LIG A   1      -6.497  -2.262 127.472  0.00  0.00    -0.001 A 
ATOM      5  C   LIG A   1      -5.903  -1.847 128.764  0.00  0.00    +0.088 C 
ATOM      6  C   LIG A   1      -7.208  -1.644 129.557  0.00  0.00    +0.208 C 
ATOM      7  O   LIG A   1      -8.169  -2.607 129.015  0.00  0.00    -0.483 OA
ATOM      8  C   LIG A   1      -5.966  -2.252 126.199  0.00  0.00    +0.014 A 
ATOM      9  C   LIG A   1      -6.754  -2.724 125.129  0.00  0.00    -0.002 A 
ENDROOT
BRANCH   6  10
ATOM     10  C   LIG A   1      -7.771  -0.219 129.531  0.00  0.00    +0.000 A 
ATOM     11  C   LIG A   1      -7.808   0.521 128.336  0.00  0.00    +0.057 A 
ATOM     12  C   LIG A   1      -8.391   1.790 128.273  0.00  0.00    +0.166 A 
ATOM     13  C   LIG A   1      -8.962   2.338 129.440  0.00  0.00    +0.203 A 
ATOM     14  C   LIG A   1      -8.854   1.659 130.668  0.00  0.00    +0.166 A 
ATOM     15  C   LIG A   1      -8.295   0.370 130.695  0.00  0.00    +0.057 A 
BRANCH  12  16
ATOM     16  O   LIG A   1      -8.376   2.547 127.123  0.00  0.00    -0.491 OA
ATOM     17  C   LIG A   1      -7.124   3.122 126.741  0.00  0.00    +0.277 C 
ENDBRANCH  12  16
BRANCH  13  18
ATOM     18  O   LIG A   1      -9.598   3.551 129.449  0.00  0.00    -0.488 OA
ATOM     19  C   LIG A   1      -8.778   4.671 129.748  0.00  0.00    +0.277 C 
ENDBRANCH  13  18
BRANCH  14  20
ATOM     20  O   LIG A   1      -9.294   2.113 131.891  0.00  0.00    -0.491 OA
ATOM     21  C   LIG A   1      -8.302   2.351 132.893  0.00  0.00    +0.277 C 
ENDBRANCH  14  20
ENDBRANCH   6  10
BRANCH   1  22
ATOM     22  O   LIG A   1      -8.771  -3.772 124.377  0.00  0.00    -0.506 OA
ATOM     23  H   LIG A   1      -8.263  -4.484 123.953  0.00  0.00    +0.292 HD
ENDBRANCH   1  22
BRANCH   9  24
ATOM     24  C   LIG A   1      -6.200  -2.656 123.721  0.00  0.00    +0.065 C 
BRANCH  24  25
ATOM     25  C   LIG A   1      -4.797  -3.187 123.618  0.00  0.00    -0.030 C 
ATOM     26  C   LIG A   1      -4.477  -4.510 123.655  0.00  0.00    +0.004 C 
ENDBRANCH  24  25
ENDBRANCH   9  24
TORSDOF 7
ENDMDL
MODEL 6
REMARK VINA RESULT:      -6.5      4.808      7.487
REMARK  Name = NuBBE_1840
REMARK  10 active torsions:
REMARK  status: ('A' for Active; 'I' for Inactive)
REMARK    1  A    between atoms: O_1  and  C_2
REMARK    2  A    between atoms: C_7  and  C_9
REMARK    3  A    between atoms: C_11  and  O_12
REMARK    4  A    between atoms: O_12  and  C_13
REMARK    5  A    between atoms: C_14  and  O_15
REMARK    6  A    between atoms: O_15  and  C_16
REMARK    7  A    between atoms: C_17  and  O_18
REMARK    8  A    between atoms: O_18  and  C_19
REMARK    9  A    between atoms: C_23  and  C_24
REMARK   10  A    between atoms: C_24  and  C_25
REMARK                            x       y       z     vdW  Elec       q    Type
REMARK                         _______ _______ _______ _____ _____    ______ ____
ROOT
ATOM      1  C   LIG A   1      -4.056   7.184 129.183  0.00  0.00    +0.124 A 
ATOM      2  C   LIG A   1      -3.268   6.619 128.178  0.00  0.00    +0.091 A 
ATOM      3  C   LIG A   1      -3.167   5.245 128.153  0.00  0.00    +0.128 A 
ATOM      4  C   LIG A   1      -3.775   4.442 129.102  0.00  0.00    -0.001 A 
ATOM      5  C   LIG A   1      -3.406   3.031 128.837  0.00  0.00    +0.088 C 
ATOM      6  C   LIG A   1      -3.035   3.171 127.349  0.00  0.00    +0.208 C 
ATOM      7  O   LIG A   1      -2.503   4.527 127.187  0.00  0.00    -0.483 OA
ATOM      8  C   LIG A   1      -4.548   4.991 130.104  0.00  0.00    +0.014 A 
ATOM      9  C   LIG A   1      -4.730   6.389 130.134  0.00  0.00    -0.002 A 
ENDROOT
BRANCH   6  10
ATOM     10  C   LIG A   1      -4.177   2.900 126.364  0.00  0.00    +0.000 A 
ATOM     11  C   LIG A   1      -4.920   1.707 126.430  0.00  0.00    +0.057 A 
ATOM     12  C   LIG A   1      -6.017   1.476 125.597  0.00  0.00    +0.166 A 
ATOM     13  C   LIG A   1      -6.391   2.469 124.668  0.00  0.00    +0.203 A 
ATOM     14  C   LIG A   1      -5.608   3.628 124.516  0.00  0.00    +0.166 A 
ATOM     15  C   LIG A   1      -4.532   3.852 125.393  0.00  0.00    +0.057 A 
BRANCH  12  16
ATOM     16  O   LIG A   1      -6.712   0.287 125.611  0.00  0.00    -0.491 OA
ATOM     17  C   LIG A   1      -5.948  -0.912 125.460  0.00  0.00    +0.277 C 
ENDBRANCH  12  16
BRANCH  13  18
ATOM     18  O   LIG A   1      -7.484   2.340 123.852  0.00  0.00    -0.488 OA
ATOM     19  C   LIG A   1      -8.705   2.840 124.378  0.00  0.00    +0.277 C 
ENDBRANCH  13  18
BRANCH  14  20
ATOM     20  O   LIG A   1      -5.812   4.635 123.599  0.00  0.00    -0.491 OA
ATOM     21  C   LIG A   1      -5.129   4.525 122.348  0.00  0.00    +0.277 C 
ENDBRANCH  14  20
ENDBRANCH   6  10
BRANCH   1  22
ATOM     22  O   LIG A   1      -4.184   8.545 129.249  0.00  0.00    -0.506 OA
ATOM     23  H   LIG A   1      -4.912   8.761 129.856  0.00  0.00    +0.292 HD
ENDBRANCH   1  22
BRANCH   9  24
ATOM     24  C   LIG A   1      -5.631   6.991 131.193  0.00  0.00    +0.065 C 
BRANCH  24  25
ATOM     25  C   LIG A   1      -6.990   6.349 131.239  0.00  0.00    -0.030 C 
ATOM     26  C   LIG A   1      -8.142   6.973 130.869  0.00  0.00    +0.004 C 
ENDBRANCH  24  25
ENDBRANCH   9  24
TORSDOF 7
ENDMDL
MODEL 7
REMARK VINA RESULT:      -6.4      2.003      7.089
REMARK  Name = NuBBE_1840
REMARK  10 active torsions:
REMARK  status: ('A' for Active; 'I' for Inactive)
REMARK    1  A    between atoms: O_1  and  C_2
REMARK    2  A    between atoms: C_7  and  C_9
REMARK    3  A    between atoms: C_11  and  O_12
REMARK    4  A    between atoms: O_12  and  C_13
REMARK    5  A    between atoms: C_14  and  O_15
REMARK    6  A    between atoms: O_15  and  C_16
REMARK    7  A    between atoms: C_17  and  O_18
REMARK    8  A    between atoms: O_18  and  C_19
REMARK    9  A    between atoms: C_23  and  C_24
REMARK   10  A    between atoms: C_24  and  C_25
REMARK                            x       y       z     vdW  Elec       q    Type
REMARK                         _______ _______ _______ _____ _____    ______ ____
ROOT
ATOM      1  C   LIG A   1      -7.747  -2.204 124.515  0.00  0.00    +0.124 A 
ATOM      2  C   LIG A   1      -7.714  -1.260 123.486  0.00  0.00    +0.091 A 
ATOM      3  C   LIG A   1      -8.547  -0.169 123.604  0.00  0.00    +0.128 A 
ATOM      4  C   LIG A   1      -9.422  -0.018 124.667  0.00  0.00    -0.001 A 
ATOM      5  C   LIG A   1     -10.222   1.211 124.452  0.00  0.00    +0.088 C 
ATOM      6  C   LIG A   1      -9.265   1.938 123.488  0.00  0.00    +0.208 C 
ATOM      7  O   LIG A   1      -8.579   0.890 122.728  0.00  0.00    -0.483 OA
ATOM      8  C   LIG A   1      -9.468  -0.949 125.683  0.00  0.00    +0.014 A 
ATOM      9  C   LIG A   1      -8.591  -2.052 125.636  0.00  0.00    -0.002 A 
ENDROOT
BRANCH   6  10
ATOM     10  C   LIG A   1      -8.265   2.887 124.156  0.00  0.00    +0.000 A 
ATOM     11  C   LIG A   1      -7.050   3.215 123.528  0.00  0.00    +0.057 A 
ATOM     12  C   LIG A   1      -6.162   4.141 124.082  0.00  0.00    +0.166 A 
ATOM     13  C   LIG A   1      -6.497   4.767 125.300  0.00  0.00    +0.203 A 
ATOM     14  C   LIG A   1      -7.660   4.386 125.995  0.00  0.00    +0.166 A 
ATOM     15  C   LIG A   1      -8.553   3.480 125.398  0.00  0.00    +0.057 A 
BRANCH  12  16
ATOM     16  O   LIG A   1      -4.942   4.423 123.506  0.00  0.00    -0.491 OA
ATOM     17  C   LIG A   1      -4.908   4.529 122.081  0.00  0.00    +0.277 C 
ENDBRANCH  12  16
BRANCH  13  18
ATOM     18  O   LIG A   1      -5.706   5.723 125.880  0.00  0.00    -0.488 OA
ATOM     19  C   LIG A   1      -4.723   5.240 126.784  0.00  0.00    +0.277 C 
ENDBRANCH  13  18
BRANCH  14  20
ATOM     20  O   LIG A   1      -8.065   4.856 127.225  0.00  0.00    -0.491 OA
ATOM     21  C   LIG A   1      -7.902   3.979 128.342  0.00  0.00    +0.277 C 
ENDBRANCH  14  20
ENDBRANCH   6  10
BRANCH   1  22
ATOM     22  O   LIG A   1      -6.939  -3.306 124.440  0.00  0.00    -0.506 OA
ATOM     23  H   LIG A   1      -7.344  -4.025 124.952  0.00  0.00    +0.292 HD
ENDBRANCH   1  22
BRANCH   9  24
ATOM     24  C   LIG A   1      -8.592  -3.043 126.781  0.00  0.00    +0.065 C 
BRANCH  24  25
ATOM     25  C   LIG A   1      -7.946  -2.499 128.026  0.00  0.00    -0.030 C 
ATOM     26  C   LIG A   1      -7.759  -3.219 129.166  0.00  0.00    +0.004 C 
ENDBRANCH  24  25
ENDBRANCH   9  24
TORSDOF 7
ENDMDL
MODEL 8
REMARK VINA RESULT:      -6.2      4.743      7.563
REMARK  Name = NuBBE_1840
REMARK  10 active torsions:
REMARK  status: ('A' for Active; 'I' for Inactive)
REMARK    1  A    between atoms: O_1  and  C_2
REMARK    2  A    between atoms: C_7  and  C_9
REMARK    3  A    between atoms: C_11  and  O_12
REMARK    4  A    between atoms: O_12  and  C_13
REMARK    5  A    between atoms: C_14  and  O_15
REMARK    6  A    between atoms: O_15  and  C_16
REMARK    7  A    between atoms: C_17  and  O_18
REMARK    8  A    between atoms: O_18  and  C_19
REMARK    9  A    between atoms: C_23  and  C_24
REMARK   10  A    between atoms: C_24  and  C_25
REMARK                            x       y       z     vdW  Elec       q    Type
REMARK                         _______ _______ _______ _____ _____    ______ ____
ROOT
ATOM      1  C   LIG A   1      -4.247   7.132 129.396  0.00  0.00    +0.124 A 
ATOM      2  C   LIG A   1      -3.481   6.650 128.332  0.00  0.00    +0.091 A 
ATOM      3  C   LIG A   1      -3.355   5.283 128.213  0.00  0.00    +0.128 A 
ATOM      4  C   LIG A   1      -3.917   4.407 129.126  0.00  0.00    -0.001 A 
ATOM      5  C   LIG A   1      -3.531   3.025 128.757  0.00  0.00    +0.088 C 
ATOM      6  C   LIG A   1      -3.211   3.270 127.270  0.00  0.00    +0.208 C 
ATOM      7  O   LIG A   1      -2.710   4.643 127.181  0.00  0.00    -0.483 OA
ATOM      8  C   LIG A   1      -4.667   4.874 130.186  0.00  0.00    +0.014 A 
ATOM      9  C   LIG A   1      -4.874   6.263 130.313  0.00  0.00    -0.002 A 
ENDROOT
BRANCH   6  10
ATOM     10  C   LIG A   1      -4.380   3.039 126.307  0.00  0.00    +0.000 A 
ATOM     11  C   LIG A   1      -4.605   3.907 125.224  0.00  0.00    +0.057 A 
ATOM     12  C   LIG A   1      -5.614   3.670 124.287  0.00  0.00    +0.166 A 
ATOM     13  C   LIG A   1      -6.424   2.524 124.430  0.00  0.00    +0.203 A 
ATOM     14  C   LIG A   1      -6.281   1.692 125.557  0.00  0.00    +0.166 A 
ATOM     15  C   LIG A   1      -5.234   1.934 126.463  0.00  0.00    +0.057 A 
BRANCH  12  16
ATOM     16  O   LIG A   1      -5.883   4.546 123.259  0.00  0.00    -0.491 OA
ATOM     17  C   LIG A   1      -4.987   4.532 122.145  0.00  0.00    +0.277 C 
ENDBRANCH  12  16
BRANCH  13  18
ATOM     18  O   LIG A   1      -7.399   2.193 123.527  0.00  0.00    -0.488 OA
ATOM     19  C   LIG A   1      -8.699   2.681 123.821  0.00  0.00    +0.277 C 
ENDBRANCH  13  18
BRANCH  14  20
ATOM     20  O   LIG A   1      -7.052   0.592 125.860  0.00  0.00    -0.491 OA
ATOM     21  C   LIG A   1      -7.220   0.276 127.244  0.00  0.00    +0.277 C 
ENDBRANCH  14  20
ENDBRANCH   6  10
BRANCH   1  22
ATOM     22  O   LIG A   1      -4.398   8.483 129.555  0.00  0.00    -0.506 OA
ATOM     23  H   LIG A   1      -5.074   8.643 130.235  0.00  0.00    +0.292 HD
ENDBRANCH   1  22
BRANCH   9  24
ATOM     24  C   LIG A   1      -5.750   6.776 131.438  0.00  0.00    +0.065 C 
BRANCH  24  25
ATOM     25  C   LIG A   1      -7.203   6.855 131.057  0.00  0.00    -0.030 C 
ATOM     26  C   LIG A   1      -8.220   6.382 131.827  0.00  0.00    +0.004 C 
ENDBRANCH  24  25
ENDBRANCH   9  24
TORSDOF 7
ENDMDL
MODEL 9
REMARK VINA RESULT:      -6.1      2.753      6.534
REMARK  Name = NuBBE_1840
REMARK  10 active torsions:
REMARK  status: ('A' for Active; 'I' for Inactive)
REMARK    1  A    between atoms: O_1  and  C_2
REMARK    2  A    between atoms: C_7  and  C_9
REMARK    3  A    between atoms: C_11  and  O_12
REMARK    4  A    between atoms: O_12  and  C_13
REMARK    5  A    between atoms: C_14  and  O_15
REMARK    6  A    between atoms: O_15  and  C_16
REMARK    7  A    between atoms: C_17  and  O_18
REMARK    8  A    between atoms: O_18  and  C_19
REMARK    9  A    between atoms: C_23  and  C_24
REMARK   10  A    between atoms: C_24  and  C_25
REMARK                            x       y       z     vdW  Elec       q    Type
REMARK                         _______ _______ _______ _____ _____    ______ ____
ROOT
ATOM      1  C   LIG A   1      -7.296  -1.732 124.412  0.00  0.00    +0.124 A 
ATOM      2  C   LIG A   1      -6.713  -0.658 123.736  0.00  0.00    +0.091 A 
ATOM      3  C   LIG A   1      -7.383   0.546 123.768  0.00  0.00    +0.128 A 
ATOM      4  C   LIG A   1      -8.606   0.695 124.399  0.00  0.00    -0.001 A 
ATOM      5  C   LIG A   1      -9.087   2.080 124.182  0.00  0.00    +0.088 C 
ATOM      6  C   LIG A   1      -7.731   2.744 123.879  0.00  0.00    +0.208 C 
ATOM      7  O   LIG A   1      -6.910   1.719 123.229  0.00  0.00    -0.483 OA
ATOM      8  C   LIG A   1      -9.194  -0.363 125.062  0.00  0.00    +0.014 A 
ATOM      9  C   LIG A   1      -8.517  -1.598 125.107  0.00  0.00    -0.002 A 
ENDROOT
BRANCH   6  10
ATOM     10  C   LIG A   1      -7.014   3.344 125.093  0.00  0.00    +0.000 A 
ATOM     11  C   LIG A   1      -7.738   3.774 126.220  0.00  0.00    +0.057 A 
ATOM     12  C   LIG A   1      -7.099   4.248 127.369  0.00  0.00    +0.166 A 
ATOM     13  C   LIG A   1      -5.690   4.290 127.399  0.00  0.00    +0.203 A 
ATOM     14  C   LIG A   1      -4.946   3.957 126.251  0.00  0.00    +0.166 A 
ATOM     15  C   LIG A   1      -5.613   3.449 125.123  0.00  0.00    +0.057 A 
BRANCH  12  16
ATOM     16  O   LIG A   1      -7.800   4.728 128.453  0.00  0.00    -0.491 OA
ATOM     17  C   LIG A   1      -8.442   3.763 129.288  0.00  0.00    +0.277 C 
ENDBRANCH  12  16
BRANCH  13  18
ATOM     18  O   LIG A   1      -4.988   4.692 128.505  0.00  0.00    -0.488 OA
ATOM     19  C   LIG A   1      -4.685   3.670 129.443  0.00  0.00    +0.277 C 
ENDBRANCH  13  18
BRANCH  14  20
ATOM     20  O   LIG A   1      -3.577   4.029 126.118  0.00  0.00    -0.491 OA
ATOM     21  C   LIG A   1      -2.827   2.864 126.471  0.00  0.00    +0.277 C 
ENDBRANCH  14  20
ENDBRANCH   6  10
BRANCH   1  22
ATOM     22  O   LIG A   1      -6.668  -2.948 124.405  0.00  0.00    -0.506 OA
ATOM     23  H   LIG A   1      -6.644  -3.292 125.313  0.00  0.00    +0.292 HD
ENDBRANCH   1  22
BRANCH   9  24
ATOM     24  C   LIG A   1      -9.127  -2.744 125.888  0.00  0.00    +0.065 C 
BRANCH  24  25
ATOM     25  C   LIG A   1      -8.551  -2.882 127.271  0.00  0.00    -0.030 C 
ATOM     26  C   LIG A   1      -8.848  -3.900 128.123  0.00  0.00    +0.004 C 
ENDBRANCH  24  25
ENDBRANCH   9  24
TORSDOF 7
ENDMDL
