MODEL 1
REMARK VINA RESULT:      -6.8      0.000      0.000
REMARK  Name = NuBBE_107
REMARK  14 active torsions:
REMARK  status: ('A' for Active; 'I' for Inactive)
REMARK    1  A    between atoms: C_2  and  C_3
REMARK    2  A    between atoms: C_4  and  C_32
REMARK    3  A    between atoms: C_6  and  C_7
REMARK    4  A    between atoms: C_7  and  O_8
REMARK    5  A    between atoms: O_8  and  C_9
REMARK    6  A    between atoms: C_13  and  O_15
REMARK    7  A    between atoms: O_15  and  C_16
REMARK    8  A    between atoms: C_19  and  C_27
REMARK    9  A    between atoms: C_21  and  O_26
REMARK   10  A    between atoms: C_23  and  O_25
REMARK   11  A    between atoms: C_27  and  O_28
REMARK   12  A    between atoms: C_29  and  O_31
REMARK   13  A    between atoms: C_32  and  C_33
REMARK   14  A    between atoms: C_33  and  O_34
REMARK                            x       y       z     vdW  Elec       q    Type
REMARK                         _______ _______ _______ _____ _____    ______ ____
ROOT
ATOM      1  C   LIG A   1      -8.166  -1.879 126.665  0.00  0.00    +0.088 C 
ATOM      2  C   LIG A   1      -7.745  -2.249 125.194  0.00  0.00    +0.052 C 
ATOM      3  C   LIG A   1      -6.225  -2.152 125.083  0.00  0.00    +0.075 C 
ATOM      4  C   LIG A   1      -5.524  -1.434 125.977  0.00  0.00    +0.201 C 
ATOM      5  O   LIG A   1      -6.024  -0.717 127.029  0.00  0.00    -0.470 OA
ATOM      6  C   LIG A   1      -7.448  -0.554 127.043  0.00  0.00    +0.316 C 
ENDROOT
BRANCH   1   8
ATOM      7  C   LIG A   1      -8.789  -3.699 128.325  0.00  0.00    +0.004 C 
ATOM      8  C   LIG A   1      -7.859  -2.940 127.725  0.00  0.00    -0.025 C 
ENDBRANCH   1   8
BRANCH   3   9
ATOM      9  C   LIG A   1      -5.458  -2.752 123.951  0.00  0.00    +0.338 C 
ATOM     10  O   LIG A   1      -5.574  -2.410 122.775  0.00  0.00    -0.245 OA
BRANCH   9  11
ATOM     11  O   LIG A   1      -4.620  -3.718 124.413  0.00  0.00    -0.465 OA
ATOM     12  C   LIG A   1      -4.367  -4.819 123.541  0.00  0.00    +0.280 C 
ENDBRANCH   9  11
ENDBRANCH   3   9
BRANCH   6  13
ATOM     13  O   LIG A   1      -7.878   0.504 126.165  0.00  0.00    -0.309 OA
BRANCH  13  14
ATOM     14  C   LIG A   1      -7.134   1.716 126.360  0.00  0.00    +0.286 C 
ATOM     15  O   LIG A   1      -7.847   2.532 127.312  0.00  0.00    -0.340 OA
ATOM     16  C   LIG A   1      -7.545   3.930 127.173  0.00  0.00    +0.178 C 
ATOM     17  C   LIG A   1      -8.181   4.473 125.877  0.00  0.00    +0.177 C 
ATOM     18  C   LIG A   1      -8.164   3.397 124.774  0.00  0.00    +0.179 C 
ATOM     19  C   LIG A   1      -6.984   2.429 124.977  0.00  0.00    +0.201 C 
BRANCH  18  20
ATOM     20  O   LIG A   1      -9.413   2.696 124.754  0.00  0.00    -0.386 OA
ATOM     21  H   LIG A   1      -9.218   1.739 124.694  0.00  0.00    +0.210 HD
ENDBRANCH  18  20
BRANCH  17  22
ATOM     22  O   LIG A   1      -7.470   5.640 125.453  0.00  0.00    -0.387 OA
ATOM     23  H   LIG A   1      -6.712   5.342 124.918  0.00  0.00    +0.210 HD
ENDBRANCH  17  22
BRANCH  19  24
ATOM     24  O   LIG A   1      -5.735   3.144 124.937  0.00  0.00    -0.384 OA
ATOM     25  H   LIG A   1      -5.851   3.942 124.392  0.00  0.00    +0.210 HD
ENDBRANCH  19  24
BRANCH  16  26
ATOM     26  C   LIG A   1      -8.099   4.680 128.389  0.00  0.00    +0.190 C 
BRANCH  26  27
ATOM     27  O   LIG A   1      -9.108   5.611 127.996  0.00  0.00    -0.392 OA
ATOM     28  H   LIG A   1      -9.922   5.353 128.465  0.00  0.00    +0.209 HD
ENDBRANCH  26  27
ENDBRANCH  16  26
ENDBRANCH  13  14
ENDBRANCH   6  13
BRANCH   2  29
ATOM     29  C   LIG A   1      -8.414  -3.539 124.680  0.00  0.00    +0.129 C 
BRANCH  29  30
ATOM     30  C   LIG A   1      -9.228  -3.281 123.438  0.00  0.00    +0.305 C 
ATOM     31  O   LIG A   1     -10.353  -3.709 123.204  0.00  0.00    -0.251 OA
BRANCH  30  32
ATOM     32  O   LIG A   1      -8.610  -2.467 122.558  0.00  0.00    -0.481 OA
ATOM     33  H   LIG A   1      -8.346  -3.049 121.815  0.00  0.00    +0.295 HD
ENDBRANCH  30  32
ENDBRANCH  29  30
ENDBRANCH   2  29
TORSDOF 13
ENDMDL
MODEL 2
REMARK VINA RESULT:      -6.7      4.438      7.107
REMARK  Name = NuBBE_107
REMARK  14 active torsions:
REMARK  status: ('A' for Active; 'I' for Inactive)
REMARK    1  A    between atoms: C_2  and  C_3
REMARK    2  A    between atoms: C_4  and  C_32
REMARK    3  A    between atoms: C_6  and  C_7
REMARK    4  A    between atoms: C_7  and  O_8
REMARK    5  A    between atoms: O_8  and  C_9
REMARK    6  A    between atoms: C_13  and  O_15
REMARK    7  A    between atoms: O_15  and  C_16
REMARK    8  A    between atoms: C_19  and  C_27
REMARK    9  A    between atoms: C_21  and  O_26
REMARK   10  A    between atoms: C_23  and  O_25
REMARK   11  A    between atoms: C_27  and  O_28
REMARK   12  A    between atoms: C_29  and  O_31
REMARK   13  A    between atoms: C_32  and  C_33
REMARK   14  A    between atoms: C_33  and  O_34
REMARK                            x       y       z     vdW  Elec       q    Type
REMARK                         _______ _______ _______ _____ _____    ______ ____
ROOT
ATOM      1  C   LIG A   1      -7.575   3.255 128.366  0.00  0.00    +0.088 C 
ATOM      2  C   LIG A   1      -6.692   4.275 127.556  0.00  0.00    +0.052 C 
ATOM      3  C   LIG A   1      -5.313   4.353 128.208  0.00  0.00    +0.075 C 
ATOM      4  C   LIG A   1      -5.142   3.956 129.480  0.00  0.00    +0.201 C 
ATOM      5  O   LIG A   1      -6.103   3.479 130.330  0.00  0.00    -0.470 OA
ATOM      6  C   LIG A   1      -7.455   3.618 129.872  0.00  0.00    +0.316 C 
ENDROOT
BRANCH   1   8
ATOM      7  C   LIG A   1      -8.011   0.887 127.554  0.00  0.00    +0.004 C 
ATOM      8  C   LIG A   1      -7.221   1.778 128.173  0.00  0.00    -0.025 C 
ENDBRANCH   1   8
BRANCH   3   9
ATOM      9  C   LIG A   1      -4.128   4.948 127.523  0.00  0.00    +0.338 C 
ATOM     10  O   LIG A   1      -3.241   4.295 126.976  0.00  0.00    -0.245 OA
BRANCH   9  11
ATOM     11  O   LIG A   1      -4.179   6.306 127.592  0.00  0.00    -0.465 OA
ATOM     12  C   LIG A   1      -3.101   6.956 128.263  0.00  0.00    +0.280 C 
ENDBRANCH   9  11
ENDBRANCH   3   9
BRANCH   6  13
ATOM     13  O   LIG A   1      -7.965   4.946 130.099  0.00  0.00    -0.309 OA
BRANCH  13  14
ATOM     14  C   LIG A   1      -9.254   5.148 129.501  0.00  0.00    +0.286 C 
ATOM     15  O   LIG A   1      -9.319   6.510 129.026  0.00  0.00    -0.340 OA
ATOM     16  C   LIG A   1     -10.668   6.996 128.936  0.00  0.00    +0.178 C 
ATOM     17  C   LIG A   1     -11.239   7.215 130.352  0.00  0.00    +0.177 C 
ATOM     18  C   LIG A   1     -10.690   6.155 131.326  0.00  0.00    +0.179 C 
ATOM     19  C   LIG A   1     -10.348   4.853 130.577  0.00  0.00    +0.201 C 
BRANCH  18  20
ATOM     20  O   LIG A   1      -9.545   6.671 132.017  0.00  0.00    -0.386 OA
ATOM     21  H   LIG A   1      -8.771   6.576 131.427  0.00  0.00    +0.210 HD
ENDBRANCH  18  20
BRANCH  17  22
ATOM     22  O   LIG A   1     -12.668   7.160 130.301  0.00  0.00    -0.387 OA
ATOM     23  H   LIG A   1     -12.930   6.238 130.476  0.00  0.00    +0.210 HD
ENDBRANCH  17  22
BRANCH  19  24
ATOM     24  O   LIG A   1     -11.522   4.320 129.937  0.00  0.00    -0.384 OA
ATOM     25  H   LIG A   1     -12.190   4.130 130.619  0.00  0.00    +0.210 HD
ENDBRANCH  19  24
BRANCH  16  26
ATOM     26  C   LIG A   1     -10.668   8.316 128.155  0.00  0.00    +0.190 C 
BRANCH  26  27
ATOM     27  O   LIG A   1     -11.825   9.091 128.468  0.00  0.00    -0.392 OA
ATOM     28  H   LIG A   1     -11.739   9.355 129.402  0.00  0.00    +0.209 HD
ENDBRANCH  26  27
ENDBRANCH  16  26
ENDBRANCH  13  14
ENDBRANCH   6  13
BRANCH   2  29
ATOM     29  C   LIG A   1      -6.745   4.044 126.033  0.00  0.00    +0.129 C 
BRANCH  29  30
ATOM     30  C   LIG A   1      -8.108   4.358 125.473  0.00  0.00    +0.305 C 
ATOM     31  O   LIG A   1      -8.893   3.557 124.978  0.00  0.00    -0.251 OA
BRANCH  30  32
ATOM     32  O   LIG A   1      -8.444   5.659 125.594  0.00  0.00    -0.481 OA
ATOM     33  H   LIG A   1      -8.275   5.878 126.534  0.00  0.00    +0.295 HD
ENDBRANCH  30  32
ENDBRANCH  29  30
ENDBRANCH   2  29
TORSDOF 13
ENDMDL
MODEL 3
REMARK VINA RESULT:      -6.4      2.239      4.743
REMARK  Name = NuBBE_107
REMARK  14 active torsions:
REMARK  status: ('A' for Active; 'I' for Inactive)
REMARK    1  A    between atoms: C_2  and  C_3
REMARK    2  A    between atoms: C_4  and  C_32
REMARK    3  A    between atoms: C_6  and  C_7
REMARK    4  A    between atoms: C_7  and  O_8
REMARK    5  A    between atoms: O_8  and  C_9
REMARK    6  A    between atoms: C_13  and  O_15
REMARK    7  A    between atoms: O_15  and  C_16
REMARK    8  A    between atoms: C_19  and  C_27
REMARK    9  A    between atoms: C_21  and  O_26
REMARK   10  A    between atoms: C_23  and  O_25
REMARK   11  A    between atoms: C_27  and  O_28
REMARK   12  A    between atoms: C_29  and  O_31
REMARK   13  A    between atoms: C_32  and  C_33
REMARK   14  A    between atoms: C_33  and  O_34
REMARK                            x       y       z     vdW  Elec       q    Type
REMARK                         _______ _______ _______ _____ _____    ______ ____
ROOT
ATOM      1  C   LIG A   1      -6.883  -0.977 124.901  0.00  0.00    +0.088 C 
ATOM      2  C   LIG A   1      -6.950  -1.459 126.399  0.00  0.00    +0.052 C 
ATOM      3  C   LIG A   1      -8.246  -2.240 126.603  0.00  0.00    +0.075 C 
ATOM      4  C   LIG A   1      -9.272  -2.086 125.748  0.00  0.00    +0.201 C 
ATOM      5  O   LIG A   1      -9.320  -1.257 124.662  0.00  0.00    -0.470 OA
ATOM      6  C   LIG A   1      -8.245  -0.313 124.558  0.00  0.00    +0.316 C 
ENDROOT
BRANCH   1   8
ATOM      7  C   LIG A   1      -6.407  -1.841 122.559  0.00  0.00    +0.004 C 
ATOM      8  C   LIG A   1      -6.578  -2.068 123.871  0.00  0.00    -0.025 C 
ENDBRANCH   1   8
BRANCH   3   9
ATOM      9  C   LIG A   1      -8.480  -3.121 127.784  0.00  0.00    +0.338 C 
ATOM     10  O   LIG A   1      -8.824  -4.300 127.715  0.00  0.00    -0.245 OA
BRANCH   9  11
ATOM     11  O   LIG A   1      -8.255  -2.432 128.935  0.00  0.00    -0.465 OA
ATOM     12  C   LIG A   1      -7.739  -3.175 130.039  0.00  0.00    +0.280 C 
ENDBRANCH   9  11
ENDBRANCH   3   9
BRANCH   6  13
ATOM     13  O   LIG A   1      -8.456   0.837 125.399  0.00  0.00    -0.309 OA
BRANCH  13  14
ATOM     14  C   LIG A   1      -8.456   2.066 124.659  0.00  0.00    +0.286 C 
ATOM     15  O   LIG A   1      -7.526   1.930 123.564  0.00  0.00    -0.340 OA
ATOM     16  C   LIG A   1      -7.020   3.198 123.113  0.00  0.00    +0.178 C 
ATOM     17  C   LIG A   1      -6.056   3.778 124.168  0.00  0.00    +0.177 C 
ATOM     18  C   LIG A   1      -6.523   3.409 125.589  0.00  0.00    +0.179 C 
ATOM     19  C   LIG A   1      -8.051   3.224 125.627  0.00  0.00    +0.201 C 
BRANCH  18  20
ATOM     20  O   LIG A   1      -5.846   2.228 126.036  0.00  0.00    -0.386 OA
ATOM     21  H   LIG A   1      -6.270   1.936 126.867  0.00  0.00    +0.210 HD
ENDBRANCH  18  20
BRANCH  17  22
ATOM     22  O   LIG A   1      -5.984   5.199 124.014  0.00  0.00    -0.387 OA
ATOM     23  H   LIG A   1      -6.861   5.561 124.238  0.00  0.00    +0.210 HD
ENDBRANCH  17  22
BRANCH  19  24
ATOM     24  O   LIG A   1      -8.714   4.439 125.231  0.00  0.00    -0.384 OA
ATOM     25  H   LIG A   1      -9.159   4.287 124.379  0.00  0.00    +0.210 HD
ENDBRANCH  19  24
BRANCH  16  26
ATOM     26  C   LIG A   1      -6.287   2.993 121.782  0.00  0.00    +0.190 C 
BRANCH  26  27
ATOM     27  O   LIG A   1      -5.738   4.224 121.310  0.00  0.00    -0.392 OA
ATOM     28  H   LIG A   1      -6.488   4.759 120.994  0.00  0.00    +0.209 HD
ENDBRANCH  26  27
ENDBRANCH  16  26
ENDBRANCH  13  14
ENDBRANCH   6  13
BRANCH   2  29
ATOM     29  C   LIG A   1      -5.641  -2.116 126.881  0.00  0.00    +0.129 C 
BRANCH  29  30
ATOM     30  C   LIG A   1      -5.044  -1.369 128.045  0.00  0.00    +0.305 C 
ATOM     31  O   LIG A   1      -4.635  -1.859 129.092  0.00  0.00    -0.251 OA
BRANCH  30  32
ATOM     32  O   LIG A   1      -4.950  -0.041 127.830  0.00  0.00    -0.481 OA
ATOM     33  H   LIG A   1      -4.183   0.250 128.369  0.00  0.00    +0.295 HD
ENDBRANCH  30  32
ENDBRANCH  29  30
ENDBRANCH   2  29
TORSDOF 13
ENDMDL
MODEL 4
REMARK VINA RESULT:      -6.4      2.042      4.148
REMARK  Name = NuBBE_107
REMARK  14 active torsions:
REMARK  status: ('A' for Active; 'I' for Inactive)
REMARK    1  A    between atoms: C_2  and  C_3
REMARK    2  A    between atoms: C_4  and  C_32
REMARK    3  A    between atoms: C_6  and  C_7
REMARK    4  A    between atoms: C_7  and  O_8
REMARK    5  A    between atoms: O_8  and  C_9
REMARK    6  A    between atoms: C_13  and  O_15
REMARK    7  A    between atoms: O_15  and  C_16
REMARK    8  A    between atoms: C_19  and  C_27
REMARK    9  A    between atoms: C_21  and  O_26
REMARK   10  A    between atoms: C_23  and  O_25
REMARK   11  A    between atoms: C_27  and  O_28
REMARK   12  A    between atoms: C_29  and  O_31
REMARK   13  A    between atoms: C_32  and  C_33
REMARK   14  A    between atoms: C_33  and  O_34
REMARK                            x       y       z     vdW  Elec       q    Type
REMARK                         _______ _______ _______ _____ _____    ______ ____
ROOT
ATOM      1  C   LIG A   1      -8.156  -1.694 123.370  0.00  0.00    +0.088 C 
ATOM      2  C   LIG A   1      -7.397  -2.255 124.629  0.00  0.00    +0.052 C 
ATOM      3  C   LIG A   1      -8.260  -2.016 125.866  0.00  0.00    +0.075 C 
ATOM      4  C   LIG A   1      -9.232  -1.088 125.845  0.00  0.00    +0.201 C 
ATOM      5  O   LIG A   1      -9.559  -0.263 124.804  0.00  0.00    -0.470 OA
ATOM      6  C   LIG A   1      -8.634  -0.254 123.709  0.00  0.00    +0.316 C 
ENDROOT
BRANCH   1   8
ATOM      7  C   LIG A   1      -9.773  -3.650 123.492  0.00  0.00    +0.004 C 
ATOM      8  C   LIG A   1      -9.351  -2.525 122.896  0.00  0.00    -0.025 C 
ENDBRANCH   1   8
BRANCH   3   9
ATOM      9  C   LIG A   1      -8.019  -2.709 127.165  0.00  0.00    +0.338 C 
ATOM     10  O   LIG A   1      -8.523  -3.785 127.483  0.00  0.00    -0.245 OA
BRANCH   9  11
ATOM     11  O   LIG A   1      -7.165  -1.981 127.934  0.00  0.00    -0.465 OA
ATOM     12  C   LIG A   1      -5.792  -2.368 127.913  0.00  0.00    +0.280 C 
ENDBRANCH   9  11
ENDBRANCH   3   9
BRANCH   6  13
ATOM     13  O   LIG A   1      -7.497   0.590 123.972  0.00  0.00    -0.309 OA
BRANCH  13  14
ATOM     14  C   LIG A   1      -7.728   1.955 123.593  0.00  0.00    +0.286 C 
ATOM     15  O   LIG A   1      -6.634   2.377 122.751  0.00  0.00    -0.340 OA
ATOM     16  C   LIG A   1      -6.442   3.801 122.773  0.00  0.00    +0.178 C 
ATOM     17  C   LIG A   1      -5.865   4.228 124.138  0.00  0.00    +0.177 C 
ATOM     18  C   LIG A   1      -6.431   3.344 125.265  0.00  0.00    +0.179 C 
ATOM     19  C   LIG A   1      -7.829   2.817 124.893  0.00  0.00    +0.201 C 
BRANCH  18  20
ATOM     20  O   LIG A   1      -5.528   2.266 125.542  0.00  0.00    -0.386 OA
ATOM     21  H   LIG A   1      -4.637   2.537 125.244  0.00  0.00    +0.210 HD
ENDBRANCH  18  20
BRANCH  17  22
ATOM     22  O   LIG A   1      -6.176   5.605 124.374  0.00  0.00    -0.387 OA
ATOM     23  H   LIG A   1      -7.130   5.660 124.565  0.00  0.00    +0.210 HD
ENDBRANCH  17  22
BRANCH  19  24
ATOM     24  O   LIG A   1      -8.736   3.913 124.675  0.00  0.00    -0.384 OA
ATOM     25  H   LIG A   1      -9.140   3.813 123.795  0.00  0.00    +0.210 HD
ENDBRANCH  19  24
BRANCH  16  26
ATOM     26  C   LIG A   1      -5.478   4.188 121.646  0.00  0.00    +0.190 C 
BRANCH  26  27
ATOM     27  O   LIG A   1      -4.547   5.175 122.090  0.00  0.00    -0.392 OA
ATOM     28  H   LIG A   1      -5.053   5.814 122.623  0.00  0.00    +0.209 HD
ENDBRANCH  26  27
ENDBRANCH  16  26
ENDBRANCH  13  14
ENDBRANCH   6  13
BRANCH   2  29
ATOM     29  C   LIG A   1      -6.841  -3.677 124.416  0.00  0.00    +0.129 C 
BRANCH  29  30
ATOM     30  C   LIG A   1      -5.380  -3.649 124.049  0.00  0.00    +0.305 C 
ATOM     31  O   LIG A   1      -4.704  -4.604 123.681  0.00  0.00    -0.251 OA
BRANCH  30  32
ATOM     32  O   LIG A   1      -4.838  -2.417 124.122  0.00  0.00    -0.481 OA
ATOM     33  H   LIG A   1      -5.530  -1.814 123.776  0.00  0.00    +0.295 HD
ENDBRANCH  30  32
ENDBRANCH  29  30
ENDBRANCH   2  29
TORSDOF 13
ENDMDL
MODEL 5
REMARK VINA RESULT:      -6.4      3.518      5.743
REMARK  Name = NuBBE_107
REMARK  14 active torsions:
REMARK  status: ('A' for Active; 'I' for Inactive)
REMARK    1  A    between atoms: C_2  and  C_3
REMARK    2  A    between atoms: C_4  and  C_32
REMARK    3  A    between atoms: C_6  and  C_7
REMARK    4  A    between atoms: C_7  and  O_8
REMARK    5  A    between atoms: O_8  and  C_9
REMARK    6  A    between atoms: C_13  and  O_15
REMARK    7  A    between atoms: O_15  and  C_16
REMARK    8  A    between atoms: C_19  and  C_27
REMARK    9  A    between atoms: C_21  and  O_26
REMARK   10  A    between atoms: C_23  and  O_25
REMARK   11  A    between atoms: C_27  and  O_28
REMARK   12  A    between atoms: C_29  and  O_31
REMARK   13  A    between atoms: C_32  and  C_33
REMARK   14  A    between atoms: C_33  and  O_34
REMARK                            x       y       z     vdW  Elec       q    Type
REMARK                         _______ _______ _______ _____ _____    ______ ____
ROOT
ATOM      1  C   LIG A   1      -8.424   1.295 128.282  0.00  0.00    +0.088 C 
ATOM      2  C   LIG A   1      -8.149   1.858 126.838  0.00  0.00    +0.052 C 
ATOM      3  C   LIG A   1      -6.881   2.707 126.878  0.00  0.00    +0.075 C 
ATOM      4  C   LIG A   1      -6.431   3.199 128.045  0.00  0.00    +0.201 C 
ATOM      5  O   LIG A   1      -7.005   3.047 129.277  0.00  0.00    -0.470 OA
ATOM      6  C   LIG A   1      -8.323   2.483 129.279  0.00  0.00    +0.316 C 
ENDROOT
BRANCH   1   8
ATOM      7  C   LIG A   1      -7.719  -0.613 129.805  0.00  0.00    +0.004 C 
ATOM      8  C   LIG A   1      -7.491   0.171 128.740  0.00  0.00    -0.025 C 
ENDBRANCH   1   8
BRANCH   3   9
ATOM      9  C   LIG A   1      -6.141   3.112 125.647  0.00  0.00    +0.338 C 
ATOM     10  O   LIG A   1      -4.940   2.918 125.462  0.00  0.00    -0.245 OA
BRANCH   9  11
ATOM     11  O   LIG A   1      -6.985   3.716 124.769  0.00  0.00    -0.465 OA
ATOM     12  C   LIG A   1      -6.685   3.567 123.382  0.00  0.00    +0.280 C 
ENDBRANCH   9  11
ENDBRANCH   3   9
BRANCH   6  13
ATOM     13  O   LIG A   1      -9.330   3.466 128.972  0.00  0.00    -0.309 OA
BRANCH  13  14
ATOM     14  C   LIG A   1     -10.158   3.776 130.103  0.00  0.00    +0.286 C 
ATOM     15  O   LIG A   1     -10.917   4.963 129.790  0.00  0.00    -0.340 OA
ATOM     16  C   LIG A   1     -11.326   5.679 130.968  0.00  0.00    +0.178 C 
ATOM     17  C   LIG A   1     -10.101   6.351 131.621  0.00  0.00    +0.177 C 
ATOM     18  C   LIG A   1      -8.847   5.472 131.449  0.00  0.00    +0.179 C 
ATOM     19  C   LIG A   1      -9.235   3.985 131.347  0.00  0.00    +0.201 C 
BRANCH  18  20
ATOM     20  O   LIG A   1      -8.107   5.895 130.297  0.00  0.00    -0.386 OA
ATOM     21  H   LIG A   1      -8.367   6.816 130.096  0.00  0.00    +0.210 HD
ENDBRANCH  18  20
BRANCH  17  22
ATOM     22  O   LIG A   1     -10.370   6.579 133.008  0.00  0.00    -0.387 OA
ATOM     23  H   LIG A   1     -10.908   7.389 133.071  0.00  0.00    +0.210 HD
ENDBRANCH  17  22
BRANCH  19  24
ATOM     24  O   LIG A   1      -9.926   3.564 132.536  0.00  0.00    -0.384 OA
ATOM     25  H   LIG A   1     -10.778   4.032 132.584  0.00  0.00    +0.210 HD
ENDBRANCH  19  24
BRANCH  16  26
ATOM     26  C   LIG A   1     -12.361   6.738 130.568  0.00  0.00    +0.190 C 
BRANCH  26  27
ATOM     27  O   LIG A   1     -13.086   7.195 131.710  0.00  0.00    -0.392 OA
ATOM     28  H   LIG A   1     -13.152   6.437 132.318  0.00  0.00    +0.209 HD
ENDBRANCH  26  27
ENDBRANCH  16  26
ENDBRANCH  13  14
ENDBRANCH   6  13
BRANCH   2  29
ATOM     29  C   LIG A   1      -8.247   0.779 125.740  0.00  0.00    +0.129 C 
BRANCH  29  30
ATOM     30  C   LIG A   1      -9.352   1.085 124.763  0.00  0.00    +0.305 C 
ATOM     31  O   LIG A   1      -9.931   0.279 124.043  0.00  0.00    -0.251 OA
BRANCH  30  32
ATOM     32  O   LIG A   1      -9.710   2.385 124.757  0.00  0.00    -0.481 OA
ATOM     33  H   LIG A   1      -9.748   2.635 123.809  0.00  0.00    +0.295 HD
ENDBRANCH  30  32
ENDBRANCH  29  30
ENDBRANCH   2  29
TORSDOF 13
ENDMDL
MODEL 6
REMARK VINA RESULT:      -6.4      2.734      6.019
REMARK  Name = NuBBE_107
REMARK  14 active torsions:
REMARK  status: ('A' for Active; 'I' for Inactive)
REMARK    1  A    between atoms: C_2  and  C_3
REMARK    2  A    between atoms: C_4  and  C_32
REMARK    3  A    between atoms: C_6  and  C_7
REMARK    4  A    between atoms: C_7  and  O_8
REMARK    5  A    between atoms: O_8  and  C_9
REMARK    6  A    between atoms: C_13  and  O_15
REMARK    7  A    between atoms: O_15  and  C_16
REMARK    8  A    between atoms: C_19  and  C_27
REMARK    9  A    between atoms: C_21  and  O_26
REMARK   10  A    between atoms: C_23  and  O_25
REMARK   11  A    between atoms: C_27  and  O_28
REMARK   12  A    between atoms: C_29  and  O_31
REMARK   13  A    between atoms: C_32  and  C_33
REMARK   14  A    between atoms: C_33  and  O_34
REMARK                            x       y       z     vdW  Elec       q    Type
REMARK                         _______ _______ _______ _____ _____    ______ ____
ROOT
ATOM      1  C   LIG A   1      -6.176  -2.671 124.724  0.00  0.00    +0.088 C 
ATOM      2  C   LIG A   1      -7.300  -1.681 124.238  0.00  0.00    +0.052 C 
ATOM      3  C   LIG A   1      -6.781  -0.251 124.369  0.00  0.00    +0.075 C 
ATOM      4  C   LIG A   1      -5.748   0.024 125.184  0.00  0.00    +0.201 C 
ATOM      5  O   LIG A   1      -5.069  -0.860 125.977  0.00  0.00    -0.470 OA
ATOM      6  C   LIG A   1      -5.661  -2.161 126.099  0.00  0.00    +0.316 C 
ENDROOT
BRANCH   1   8
ATOM      7  C   LIG A   1      -4.324  -3.993 123.593  0.00  0.00    +0.004 C 
ATOM      8  C   LIG A   1      -4.990  -2.841 123.772  0.00  0.00    -0.025 C 
ENDBRANCH   1   8
BRANCH   3   9
ATOM      9  C   LIG A   1      -7.432   0.910 123.694  0.00  0.00    +0.338 C 
ATOM     10  O   LIG A   1      -6.877   1.637 122.871  0.00  0.00    -0.245 OA
BRANCH   9  11
ATOM     11  O   LIG A   1      -8.718   1.038 124.118  0.00  0.00    -0.465 OA
ATOM     12  C   LIG A   1      -9.112   2.323 124.595  0.00  0.00    +0.280 C 
ENDBRANCH   9  11
ENDBRANCH   3   9
BRANCH   6  13
ATOM     13  O   LIG A   1      -6.732  -2.177 127.061  0.00  0.00    -0.309 OA
BRANCH  13  14
ATOM     14  C   LIG A   1      -6.286  -1.851 128.386  0.00  0.00    +0.286 C 
ATOM     15  O   LIG A   1      -5.658  -3.022 128.947  0.00  0.00    -0.340 OA
ATOM     16  C   LIG A   1      -5.684  -3.023 130.385  0.00  0.00    +0.178 C 
ATOM     17  C   LIG A   1      -7.124  -3.270 130.879  0.00  0.00    +0.177 C 
ATOM     18  C   LIG A   1      -8.143  -2.617 129.926  0.00  0.00    +0.179 C 
ATOM     19  C   LIG A   1      -7.524  -1.394 129.224  0.00  0.00    +0.201 C 
BRANCH  18  20
ATOM     20  O   LIG A   1      -8.609  -3.580 128.973  0.00  0.00    -0.386 OA
ATOM     21  H   LIG A   1      -7.954  -4.305 128.935  0.00  0.00    +0.210 HD
ENDBRANCH  18  20
BRANCH  17  22
ATOM     22  O   LIG A   1      -7.266  -2.747 132.203  0.00  0.00    -0.387 OA
ATOM     23  H   LIG A   1      -7.511  -1.807 132.121  0.00  0.00    +0.210 HD
ENDBRANCH  17  22
BRANCH  19  24
ATOM     24  O   LIG A   1      -7.114  -0.413 130.193  0.00  0.00    -0.384 OA
ATOM     25  H   LIG A   1      -7.452   0.457 129.919  0.00  0.00    +0.210 HD
ENDBRANCH  19  24
BRANCH  16  26
ATOM     26  C   LIG A   1      -4.752  -4.128 130.896  0.00  0.00    +0.190 C 
BRANCH  26  27
ATOM     27  O   LIG A   1      -5.496  -5.163 131.538  0.00  0.00    -0.392 OA
ATOM     28  H   LIG A   1      -5.367  -5.044 132.496  0.00  0.00    +0.209 HD
ENDBRANCH  26  27
ENDBRANCH  16  26
ENDBRANCH  13  14
ENDBRANCH   6  13
BRANCH   2  29
ATOM     29  C   LIG A   1      -7.922  -2.090 122.888  0.00  0.00    +0.129 C 
BRANCH  29  30
ATOM     30  C   LIG A   1      -9.413  -2.277 123.001  0.00  0.00    +0.305 C 
ATOM     31  O   LIG A   1      -9.993  -3.297 123.357  0.00  0.00    -0.251 OA
BRANCH  30  32
ATOM     32  O   LIG A   1     -10.111  -1.164 122.699  0.00  0.00    -0.481 OA
ATOM     33  H   LIG A   1     -10.576  -0.923 123.528  0.00  0.00    +0.295 HD
ENDBRANCH  30  32
ENDBRANCH  29  30
ENDBRANCH   2  29
TORSDOF 13
ENDMDL
MODEL 7
REMARK VINA RESULT:      -6.3      4.812      8.795
REMARK  Name = NuBBE_107
REMARK  14 active torsions:
REMARK  status: ('A' for Active; 'I' for Inactive)
REMARK    1  A    between atoms: C_2  and  C_3
REMARK    2  A    between atoms: C_4  and  C_32
REMARK    3  A    between atoms: C_6  and  C_7
REMARK    4  A    between atoms: C_7  and  O_8
REMARK    5  A    between atoms: O_8  and  C_9
REMARK    6  A    between atoms: C_13  and  O_15
REMARK    7  A    between atoms: O_15  and  C_16
REMARK    8  A    between atoms: C_19  and  C_27
REMARK    9  A    between atoms: C_21  and  O_26
REMARK   10  A    between atoms: C_23  and  O_25
REMARK   11  A    between atoms: C_27  and  O_28
REMARK   12  A    between atoms: C_29  and  O_31
REMARK   13  A    between atoms: C_32  and  C_33
REMARK   14  A    between atoms: C_33  and  O_34
REMARK                            x       y       z     vdW  Elec       q    Type
REMARK                         _______ _______ _______ _____ _____    ______ ____
ROOT
ATOM      1  C   LIG A   1      -8.220   4.183 130.627  0.00  0.00    +0.088 C 
ATOM      2  C   LIG A   1      -8.876   5.614 130.636  0.00  0.00    +0.052 C 
ATOM      3  C   LIG A   1     -10.395   5.455 130.659  0.00  0.00    +0.075 C 
ATOM      4  C   LIG A   1     -10.961   4.299 130.271  0.00  0.00    +0.201 C 
ATOM      5  O   LIG A   1     -10.320   3.183 129.810  0.00  0.00    -0.470 OA
ATOM      6  C   LIG A   1      -8.925   3.348 129.522  0.00  0.00    +0.316 C 
ENDROOT
BRANCH   1   8
ATOM      7  C   LIG A   1      -7.206   2.977 132.620  0.00  0.00    +0.004 C 
ATOM      8  C   LIG A   1      -8.283   3.420 131.953  0.00  0.00    -0.025 C 
ENDBRANCH   1   8
BRANCH   3   9
ATOM      9  C   LIG A   1     -11.319   6.573 131.012  0.00  0.00    +0.338 C 
ATOM     10  O   LIG A   1     -12.073   6.572 131.984  0.00  0.00    -0.245 OA
BRANCH   9  11
ATOM     11  O   LIG A   1     -11.199   7.582 130.108  0.00  0.00    -0.465 OA
ATOM     12  C   LIG A   1     -12.412   8.136 129.600  0.00  0.00    +0.280 C 
ENDBRANCH   9  11
ENDBRANCH   3   9
BRANCH   6  13
ATOM     13  O   LIG A   1      -8.710   3.957 128.235  0.00  0.00    -0.309 OA
BRANCH  13  14
ATOM     14  C   LIG A   1      -7.497   3.513 127.611  0.00  0.00    +0.286 C 
ATOM     15  O   LIG A   1      -6.511   4.557 127.755  0.00  0.00    -0.340 OA
ATOM     16  C   LIG A   1      -5.496   4.497 126.739  0.00  0.00    +0.178 C 
ATOM     17  C   LIG A   1      -6.092   4.923 125.382  0.00  0.00    +0.177 C 
ATOM     18  C   LIG A   1      -7.559   4.465 125.267  0.00  0.00    +0.179 C 
ATOM     19  C   LIG A   1      -7.800   3.199 126.110  0.00  0.00    +0.201 C 
BRANCH  18  20
ATOM     20  O   LIG A   1      -8.436   5.526 125.663  0.00  0.00    -0.386 OA
ATOM     21  H   LIG A   1      -8.916   5.236 126.464  0.00  0.00    +0.210 HD
ENDBRANCH  18  20
BRANCH  17  22
ATOM     22  O   LIG A   1      -5.306   4.367 124.323  0.00  0.00    -0.387 OA
ATOM     23  H   LIG A   1      -5.710   3.515 124.078  0.00  0.00    +0.210 HD
ENDBRANCH  17  22
BRANCH  19  24
ATOM     24  O   LIG A   1      -6.951   2.128 125.661  0.00  0.00    -0.384 OA
ATOM     25  H   LIG A   1      -7.499   1.469 125.199  0.00  0.00    +0.210 HD
ENDBRANCH  19  24
BRANCH  16  26
ATOM     26  C   LIG A   1      -4.347   5.434 127.130  0.00  0.00    +0.190 C 
BRANCH  26  27
ATOM     27  O   LIG A   1      -4.570   5.998 128.423  0.00  0.00    -0.392 OA
ATOM     28  H   LIG A   1      -5.454   5.701 128.706  0.00  0.00    +0.209 HD
ENDBRANCH  26  27
ENDBRANCH  16  26
ENDBRANCH  13  14
ENDBRANCH   6  13
BRANCH   2  29
ATOM     29  C   LIG A   1      -8.245   6.561 131.676  0.00  0.00    +0.129 C 
BRANCH  29  30
ATOM     30  C   LIG A   1      -6.785   6.799 131.391  0.00  0.00    +0.305 C 
ATOM     31  O   LIG A   1      -6.320   7.404 130.432  0.00  0.00    -0.251 OA
BRANCH  30  32
ATOM     32  O   LIG A   1      -5.971   6.302 132.344  0.00  0.00    -0.481 OA
ATOM     33  H   LIG A   1      -6.396   6.544 133.194  0.00  0.00    +0.295 HD
ENDBRANCH  30  32
ENDBRANCH  29  30
ENDBRANCH   2  29
TORSDOF 13
ENDMDL
MODEL 8
REMARK VINA RESULT:      -6.0      2.107      4.423
REMARK  Name = NuBBE_107
REMARK  14 active torsions:
REMARK  status: ('A' for Active; 'I' for Inactive)
REMARK    1  A    between atoms: C_2  and  C_3
REMARK    2  A    between atoms: C_4  and  C_32
REMARK    3  A    between atoms: C_6  and  C_7
REMARK    4  A    between atoms: C_7  and  O_8
REMARK    5  A    between atoms: O_8  and  C_9
REMARK    6  A    between atoms: C_13  and  O_15
REMARK    7  A    between atoms: O_15  and  C_16
REMARK    8  A    between atoms: C_19  and  C_27
REMARK    9  A    between atoms: C_21  and  O_26
REMARK   10  A    between atoms: C_23  and  O_25
REMARK   11  A    between atoms: C_27  and  O_28
REMARK   12  A    between atoms: C_29  and  O_31
REMARK   13  A    between atoms: C_32  and  C_33
REMARK   14  A    between atoms: C_33  and  O_34
REMARK                            x       y       z     vdW  Elec       q    Type
REMARK                         _______ _______ _______ _____ _____    ______ ____
ROOT
ATOM      1  C   LIG A   1      -5.878  -1.447 125.402  0.00  0.00    +0.088 C 
ATOM      2  C   LIG A   1      -6.274  -1.742 126.897  0.00  0.00    +0.052 C 
ATOM      3  C   LIG A   1      -7.700  -2.289 126.926  0.00  0.00    +0.075 C 
ATOM      4  C   LIG A   1      -8.528  -2.079 125.888  0.00  0.00    +0.201 C 
ATOM      5  O   LIG A   1      -8.253  -1.379 124.746  0.00  0.00    -0.470 OA
ATOM      6  C   LIG A   1      -7.032  -0.627 124.761  0.00  0.00    +0.316 C 
ENDROOT
BRANCH   1   8
ATOM      7  C   LIG A   1      -5.390  -2.644 123.215  0.00  0.00    +0.004 C 
ATOM      8  C   LIG A   1      -5.595  -2.680 124.540  0.00  0.00    -0.025 C 
ENDBRANCH   1   8
BRANCH   3   9
ATOM      9  C   LIG A   1      -8.274  -2.986 128.114  0.00  0.00    +0.338 C 
ATOM     10  O   LIG A   1      -8.820  -4.088 128.077  0.00  0.00    -0.245 OA
BRANCH   9  11
ATOM     11  O   LIG A   1      -8.100  -2.229 129.231  0.00  0.00    -0.465 OA
ATOM     12  C   LIG A   1      -7.750  -2.922 130.428  0.00  0.00    +0.280 C 
ENDBRANCH   9  11
ENDBRANCH   3   9
BRANCH   6  13
ATOM     13  O   LIG A   1      -7.182   0.629 125.450  0.00  0.00    -0.309 OA
BRANCH  13  14
ATOM     14  C   LIG A   1      -6.399   1.677 124.860  0.00  0.00    +0.286 C 
ATOM     15  O   LIG A   1      -5.688   2.354 125.918  0.00  0.00    -0.340 OA
ATOM     16  C   LIG A   1      -5.343   3.705 125.569  0.00  0.00    +0.178 C 
ATOM     17  C   LIG A   1      -6.614   4.578 125.545  0.00  0.00    +0.177 C 
ATOM     18  C   LIG A   1      -7.821   3.762 125.044  0.00  0.00    +0.179 C 
ATOM     19  C   LIG A   1      -7.362   2.640 124.094  0.00  0.00    +0.201 C 
BRANCH  18  20
ATOM     20  O   LIG A   1      -8.550   3.232 126.158  0.00  0.00    -0.386 OA
ATOM     21  H   LIG A   1      -9.478   3.106 125.876  0.00  0.00    +0.210 HD
ENDBRANCH  18  20
BRANCH  17  22
ATOM     22  O   LIG A   1      -6.392   5.716 124.706  0.00  0.00    -0.387 OA
ATOM     23  H   LIG A   1      -5.847   6.347 125.210  0.00  0.00    +0.210 HD
ENDBRANCH  17  22
BRANCH  19  24
ATOM     24  O   LIG A   1      -6.682   3.195 122.954  0.00  0.00    -0.384 OA
ATOM     25  H   LIG A   1      -6.589   2.501 122.278  0.00  0.00    +0.210 HD
ENDBRANCH  19  24
BRANCH  16  26
ATOM     26  C   LIG A   1      -4.349   4.245 126.604  0.00  0.00    +0.190 C 
BRANCH  26  27
ATOM     27  O   LIG A   1      -4.829   5.458 127.185  0.00  0.00    -0.392 OA
ATOM     28  H   LIG A   1      -4.551   6.179 126.592  0.00  0.00    +0.209 HD
ENDBRANCH  26  27
ENDBRANCH  16  26
ENDBRANCH  13  14
ENDBRANCH   6  13
BRANCH   2  29
ATOM     29  C   LIG A   1      -5.195  -2.531 127.664  0.00  0.00    +0.129 C 
BRANCH  29  30
ATOM     30  C   LIG A   1      -4.725  -1.783 128.884  0.00  0.00    +0.305 C 
ATOM     31  O   LIG A   1      -3.787  -2.091 129.610  0.00  0.00    -0.251 OA
BRANCH  30  32
ATOM     32  O   LIG A   1      -5.430  -0.657 129.119  0.00  0.00    -0.481 OA
ATOM     33  H   LIG A   1      -5.283  -0.459 130.069  0.00  0.00    +0.295 HD
ENDBRANCH  30  32
ENDBRANCH  29  30
ENDBRANCH   2  29
TORSDOF 13
ENDMDL
MODEL 9
REMARK VINA RESULT:      -6.0      3.997      7.015
REMARK  Name = NuBBE_107
REMARK  14 active torsions:
REMARK  status: ('A' for Active; 'I' for Inactive)
REMARK    1  A    between atoms: C_2  and  C_3
REMARK    2  A    between atoms: C_4  and  C_32
REMARK    3  A    between atoms: C_6  and  C_7
REMARK    4  A    between atoms: C_7  and  O_8
REMARK    5  A    between atoms: O_8  and  C_9
REMARK    6  A    between atoms: C_13  and  O_15
REMARK    7  A    between atoms: O_15  and  C_16
REMARK    8  A    between atoms: C_19  and  C_27
REMARK    9  A    between atoms: C_21  and  O_26
REMARK   10  A    between atoms: C_23  and  O_25
REMARK   11  A    between atoms: C_27  and  O_28
REMARK   12  A    between atoms: C_29  and  O_31
REMARK   13  A    between atoms: C_32  and  C_33
REMARK   14  A    between atoms: C_33  and  O_34
REMARK                            x       y       z     vdW  Elec       q    Type
REMARK                         _______ _______ _______ _____ _____    ______ ____
ROOT
ATOM      1  C   LIG A   1      -9.103   2.358 129.747  0.00  0.00    +0.088 C 
ATOM      2  C   LIG A   1      -8.046   2.740 128.644  0.00  0.00    +0.052 C 
ATOM      3  C   LIG A   1      -6.988   3.643 129.274  0.00  0.00    +0.075 C 
ATOM      4  C   LIG A   1      -7.251   4.301 130.416  0.00  0.00    +0.201 C 
ATOM      5  O   LIG A   1      -8.422   4.285 131.123  0.00  0.00    -0.470 OA
ATOM      6  C   LIG A   1      -9.534   3.668 130.462  0.00  0.00    +0.316 C 
ENDROOT
BRANCH   1   8
ATOM      7  C   LIG A   1      -9.369   0.927 131.830  0.00  0.00    +0.004 C 
ATOM      8  C   LIG A   1      -8.628   1.345 130.792  0.00  0.00    -0.025 C 
ENDBRANCH   1   8
BRANCH   3   9
ATOM      9  C   LIG A   1      -5.671   3.916 128.628  0.00  0.00    +0.338 C 
ATOM     10  O   LIG A   1      -5.504   4.700 127.694  0.00  0.00    -0.245 OA
BRANCH   9  11
ATOM     11  O   LIG A   1      -4.694   3.180 129.222  0.00  0.00    -0.465 OA
ATOM     12  C   LIG A   1      -3.747   3.890 130.018  0.00  0.00    +0.280 C 
ENDBRANCH   9  11
ENDBRANCH   3   9
BRANCH   6  13
ATOM     13  O   LIG A   1     -10.160   4.558 129.518  0.00  0.00    -0.309 OA
BRANCH  13  14
ATOM     14  C   LIG A   1     -11.375   5.130 130.024  0.00  0.00    +0.286 C 
ATOM     15  O   LIG A   1     -12.083   5.729 128.918  0.00  0.00    -0.340 OA
ATOM     16  C   LIG A   1     -12.971   6.778 129.338  0.00  0.00    +0.178 C 
ATOM     17  C   LIG A   1     -12.152   8.006 129.783  0.00  0.00    +0.177 C 
ATOM     18  C   LIG A   1     -10.839   7.566 130.459  0.00  0.00    +0.179 C 
ATOM     19  C   LIG A   1     -11.005   6.183 131.118  0.00  0.00    +0.201 C 
BRANCH  18  20
ATOM     20  O   LIG A   1      -9.774   7.559 129.502  0.00  0.00    -0.386 OA
ATOM     21  H   LIG A   1     -10.095   8.002 128.692  0.00  0.00    +0.210 HD
ENDBRANCH  18  20
BRANCH  17  22
ATOM     22  O   LIG A   1     -12.937   8.800 130.678  0.00  0.00    -0.387 OA
ATOM     23  H   LIG A   1     -12.666   8.571 131.585  0.00  0.00    +0.210 HD
ENDBRANCH  17  22
BRANCH  19  24
ATOM     24  O   LIG A   1     -12.041   6.224 132.116  0.00  0.00    -0.384 OA
ATOM     25  H   LIG A   1     -11.809   6.900 132.778  0.00  0.00    +0.210 HD
ENDBRANCH  19  24
BRANCH  16  26
ATOM     26  C   LIG A   1     -13.887   7.149 128.166  0.00  0.00    +0.190 C 
BRANCH  26  27
ATOM     27  O   LIG A   1     -13.735   8.525 127.818  0.00  0.00    -0.392 OA
ATOM     28  H   LIG A   1     -13.955   8.599 126.872  0.00  0.00    +0.209 HD
ENDBRANCH  26  27
ENDBRANCH  16  26
ENDBRANCH  13  14
ENDBRANCH   6  13
BRANCH   2  29
ATOM     29  C   LIG A   1      -7.552   1.525 127.834  0.00  0.00    +0.129 C 
BRANCH  29  30
ATOM     30  C   LIG A   1      -8.452   1.241 126.660  0.00  0.00    +0.305 C 
ATOM     31  O   LIG A   1      -8.738   0.136 126.213  0.00  0.00    -0.251 OA
BRANCH  30  32
ATOM     32  O   LIG A   1      -8.988   2.355 126.120  0.00  0.00    -0.481 OA
ATOM     33  H   LIG A   1      -9.179   2.119 125.188  0.00  0.00    +0.295 HD
ENDBRANCH  30  32
ENDBRANCH  29  30
ENDBRANCH   2  29
TORSDOF 13
ENDMDL
