MODEL 1
REMARK VINA RESULT:      -7.6      0.000      0.000
REMARK  Name = NuBBE_2037
REMARK  14 active torsions:
REMARK  status: ('A' for Active; 'I' for Inactive)
REMARK    1  A    between atoms: C_1  and  C_3
REMARK    2  A    between atoms: C_1  and  C_13
REMARK    3  A    between atoms: C_3  and  C_4
REMARK    4  A    between atoms: C_4  and  C_5
REMARK    5  A    between atoms: C_8  and  O_11
REMARK    6  A    between atoms: O_11  and  C_12
REMARK    7  A    between atoms: C_14  and  O_15
REMARK    8  A    between atoms: O_15  and  C_16
REMARK    9  A    between atoms: C_16  and  C_18
REMARK   10  A    between atoms: C_20  and  O_25
REMARK   11  A    between atoms: C_22  and  O_23
REMARK   12  A    between atoms: O_23  and  C_24
REMARK   13  A    between atoms: O_25  and  C_26
REMARK   14  A    between atoms: C_26  and  C_28
REMARK                            x       y       z     vdW  Elec       q    Type
REMARK                         _______ _______ _______ _____ _____    ______ ____
ROOT
ATOM      1  C   LIG A   1      -9.160   0.407 125.779  0.00  0.00    +0.101 A 
ATOM      2  C   LIG A   1      -9.095  -0.943 125.367  0.00  0.00    +0.149 A 
ATOM      3  C   LIG A   1      -8.402  -1.892 126.119  0.00  0.00    +0.093 A 
ATOM      4  C   LIG A   1      -7.805  -1.509 127.313  0.00  0.00    +0.139 A 
ATOM      5  C   LIG A   1      -7.887  -0.194 127.758  0.00  0.00    +0.092 A 
ATOM      6  C   LIG A   1      -8.594   0.757 127.020  0.00  0.00    +0.138 A 
ENDROOT
BRANCH   1   7
ATOM      7  C   LIG A   1      -9.740   1.440 124.858  0.00  0.00    +0.171 C 
ATOM      8  O   LIG A   1     -10.867   1.281 124.384  0.00  0.00    -0.292 OA
BRANCH   7   9
ATOM      9  C   LIG A   1      -8.888   2.611 124.392  0.00  0.00    +0.084 C 
BRANCH   9  10
ATOM     10  C   LIG A   1      -7.688   2.105 123.603  0.00  0.00    +0.043 C 
BRANCH  10  11
ATOM     11  C   LIG A   1      -7.497   2.836 122.297  0.00  0.00    -0.047 A 
ATOM     12  C   LIG A   1      -8.622   3.254 121.582  0.00  0.00    +0.007 A 
ATOM     13  C   LIG A   1      -8.487   3.929 120.371  0.00  0.00    +0.046 A 
ATOM     14  C   LIG A   1      -7.224   4.185 119.841  0.00  0.00    +0.120 A 
ATOM     15  C   LIG A   1      -6.092   3.805 120.564  0.00  0.00    +0.046 A 
ATOM     16  C   LIG A   1      -6.225   3.133 121.786  0.00  0.00    +0.007 A 
BRANCH  14  17
ATOM     17  O   LIG A   1      -7.002   4.833 118.655  0.00  0.00    -0.495 OA
ATOM     18  C   LIG A   1      -5.871   5.701 118.647  0.00  0.00    +0.277 C 
ENDBRANCH  14  17
ENDBRANCH  10  11
ENDBRANCH   9  10
ENDBRANCH   7   9
ENDBRANCH   1   7
BRANCH   6  19
ATOM     19  O   LIG A   1      -8.850   1.997 127.540  0.00  0.00    -0.494 OA
ATOM     20  C   LIG A   1      -7.725   2.839 127.788  0.00  0.00    +0.277 C 
ENDBRANCH   6  19
BRANCH   2  21
ATOM     21  O   LIG A   1      -9.604  -1.321 124.107  0.00  0.00    -0.425 OA
BRANCH  21  22
ATOM     22  C   LIG A   1      -8.882  -2.244 123.322  0.00  0.00    +0.309 C 
ATOM     23  O   LIG A   1      -9.162  -3.417 123.109  0.00  0.00    -0.251 OA
ATOM     24  C   LIG A   1      -7.620  -1.550 122.873  0.00  0.00    +0.136 C 
ENDBRANCH  21  22
ENDBRANCH   2  21
BRANCH   4  25
ATOM     25  O   LIG A   1      -7.101  -2.517 127.992  0.00  0.00    -0.426 OA
BRANCH  25  26
ATOM     26  C   LIG A   1      -7.740  -3.300 128.961  0.00  0.00    +0.309 C 
ATOM     27  O   LIG A   1      -8.911  -3.626 128.987  0.00  0.00    -0.251 OA
ATOM     28  C   LIG A   1      -6.755  -3.644 130.029  0.00  0.00    +0.136 C 
ENDBRANCH  25  26
ENDBRANCH   4  25
TORSDOF 10
ENDMDL
MODEL 2
REMARK VINA RESULT:      -7.2      3.151      6.513
REMARK  Name = NuBBE_2037
REMARK  14 active torsions:
REMARK  status: ('A' for Active; 'I' for Inactive)
REMARK    1  A    between atoms: C_1  and  C_3
REMARK    2  A    between atoms: C_1  and  C_13
REMARK    3  A    between atoms: C_3  and  C_4
REMARK    4  A    between atoms: C_4  and  C_5
REMARK    5  A    between atoms: C_8  and  O_11
REMARK    6  A    between atoms: O_11  and  C_12
REMARK    7  A    between atoms: C_14  and  O_15
REMARK    8  A    between atoms: O_15  and  C_16
REMARK    9  A    between atoms: C_16  and  C_18
REMARK   10  A    between atoms: C_20  and  O_25
REMARK   11  A    between atoms: C_22  and  O_23
REMARK   12  A    between atoms: O_23  and  C_24
REMARK   13  A    between atoms: O_25  and  C_26
REMARK   14  A    between atoms: C_26  and  C_28
REMARK                            x       y       z     vdW  Elec       q    Type
REMARK                         _______ _______ _______ _____ _____    ______ ____
ROOT
ATOM      1  C   LIG A   1      -7.112   2.409 124.765  0.00  0.00    +0.101 A 
ATOM      2  C   LIG A   1      -6.273   3.371 124.162  0.00  0.00    +0.149 A 
ATOM      3  C   LIG A   1      -5.156   3.874 124.832  0.00  0.00    +0.093 A 
ATOM      4  C   LIG A   1      -4.845   3.386 126.093  0.00  0.00    +0.139 A 
ATOM      5  C   LIG A   1      -5.636   2.412 126.694  0.00  0.00    +0.092 A 
ATOM      6  C   LIG A   1      -6.744   1.891 126.021  0.00  0.00    +0.138 A 
ENDROOT
BRANCH   1   7
ATOM      7  C   LIG A   1      -8.407   2.032 124.107  0.00  0.00    +0.171 C 
ATOM      8  O   LIG A   1      -9.474   2.458 124.555  0.00  0.00    -0.292 OA
BRANCH   7   9
ATOM      9  C   LIG A   1      -8.420   1.012 122.979  0.00  0.00    +0.084 C 
BRANCH   9  10
ATOM     10  C   LIG A   1      -9.056  -0.288 123.454  0.00  0.00    +0.043 C 
BRANCH  10  11
ATOM     11  C   LIG A   1      -8.053  -1.403 123.620  0.00  0.00    -0.047 A 
ATOM     12  C   LIG A   1      -8.424  -2.549 124.328  0.00  0.00    +0.007 A 
ATOM     13  C   LIG A   1      -7.527  -3.599 124.506  0.00  0.00    +0.046 A 
ATOM     14  C   LIG A   1      -6.233  -3.518 123.995  0.00  0.00    +0.120 A 
ATOM     15  C   LIG A   1      -5.862  -2.393 123.254  0.00  0.00    +0.046 A 
ATOM     16  C   LIG A   1      -6.766  -1.340 123.068  0.00  0.00    +0.007 A 
BRANCH  14  17
ATOM     17  O   LIG A   1      -5.286  -4.497 124.131  0.00  0.00    -0.495 OA
ATOM     18  C   LIG A   1      -4.029  -4.209 123.522  0.00  0.00    +0.277 C 
ENDBRANCH  14  17
ENDBRANCH  10  11
ENDBRANCH   9  10
ENDBRANCH   7   9
ENDBRANCH   1   7
BRANCH   6  19
ATOM     19  O   LIG A   1      -7.409   0.799 126.511  0.00  0.00    -0.494 OA
ATOM     20  C   LIG A   1      -6.743   0.033 127.514  0.00  0.00    +0.277 C 
ENDBRANCH   6  19
BRANCH   2  21
ATOM     21  O   LIG A   1      -6.637   3.951 122.928  0.00  0.00    -0.425 OA
BRANCH  21  22
ATOM     22  C   LIG A   1      -5.650   4.135 121.937  0.00  0.00    +0.309 C 
ATOM     23  O   LIG A   1      -4.940   5.119 121.769  0.00  0.00    -0.251 OA
ATOM     24  C   LIG A   1      -5.700   2.928 121.033  0.00  0.00    +0.136 C 
ENDBRANCH  21  22
ENDBRANCH   2  21
BRANCH   4  25
ATOM     25  O   LIG A   1      -3.726   3.968 126.711  0.00  0.00    -0.426 OA
BRANCH  25  26
ATOM     26  C   LIG A   1      -2.804   3.173 127.403  0.00  0.00    +0.309 C 
ATOM     27  O   LIG A   1      -2.902   2.752 128.538  0.00  0.00    -0.251 OA
ATOM     28  C   LIG A   1      -1.609   2.954 126.533  0.00  0.00    +0.136 C 
ENDBRANCH  25  26
ENDBRANCH   4  25
TORSDOF 10
ENDMDL
MODEL 3
REMARK VINA RESULT:      -7.1      0.918      3.344
REMARK  Name = NuBBE_2037
REMARK  14 active torsions:
REMARK  status: ('A' for Active; 'I' for Inactive)
REMARK    1  A    between atoms: C_1  and  C_3
REMARK    2  A    between atoms: C_1  and  C_13
REMARK    3  A    between atoms: C_3  and  C_4
REMARK    4  A    between atoms: C_4  and  C_5
REMARK    5  A    between atoms: C_8  and  O_11
REMARK    6  A    between atoms: O_11  and  C_12
REMARK    7  A    between atoms: C_14  and  O_15
REMARK    8  A    between atoms: O_15  and  C_16
REMARK    9  A    between atoms: C_16  and  C_18
REMARK   10  A    between atoms: C_20  and  O_25
REMARK   11  A    between atoms: C_22  and  O_23
REMARK   12  A    between atoms: O_23  and  C_24
REMARK   13  A    between atoms: O_25  and  C_26
REMARK   14  A    between atoms: C_26  and  C_28
REMARK                            x       y       z     vdW  Elec       q    Type
REMARK                         _______ _______ _______ _____ _____    ______ ____
ROOT
ATOM      1  C   LIG A   1      -8.804   0.432 125.730  0.00  0.00    +0.101 A 
ATOM      2  C   LIG A   1      -8.500   0.762 127.070  0.00  0.00    +0.149 A 
ATOM      3  C   LIG A   1      -7.984  -0.192 127.948  0.00  0.00    +0.093 A 
ATOM      4  C   LIG A   1      -7.725  -1.474 127.481  0.00  0.00    +0.139 A 
ATOM      5  C   LIG A   1      -7.982  -1.814 126.157  0.00  0.00    +0.092 A 
ATOM      6  C   LIG A   1      -8.481  -0.859 125.268  0.00  0.00    +0.138 A 
ENDROOT
BRANCH   1   7
ATOM      7  C   LIG A   1      -9.536   1.417 124.868  0.00  0.00    +0.171 C 
ATOM      8  O   LIG A   1     -10.644   1.131 124.407  0.00  0.00    -0.292 OA
BRANCH   7   9
ATOM      9  C   LIG A   1      -8.856   2.709 124.440  0.00  0.00    +0.084 C 
BRANCH   9  10
ATOM     10  C   LIG A   1      -7.524   2.404 123.768  0.00  0.00    +0.043 C 
BRANCH  10  11
ATOM     11  C   LIG A   1      -7.396   3.038 122.406  0.00  0.00    -0.047 A 
ATOM     12  C   LIG A   1      -8.554   3.314 121.674  0.00  0.00    +0.007 A 
ATOM     13  C   LIG A   1      -8.478   3.897 120.411  0.00  0.00    +0.046 A 
ATOM     14  C   LIG A   1      -7.241   4.201 119.846  0.00  0.00    +0.120 A 
ATOM     15  C   LIG A   1      -6.079   3.966 120.584  0.00  0.00    +0.046 A 
ATOM     16  C   LIG A   1      -6.154   3.386 121.856  0.00  0.00    +0.007 A 
BRANCH  14  17
ATOM     17  O   LIG A   1      -7.075   4.766 118.610  0.00  0.00    -0.495 OA
ATOM     18  C   LIG A   1      -5.946   5.628 118.489  0.00  0.00    +0.277 C 
ENDBRANCH  14  17
ENDBRANCH  10  11
ENDBRANCH   9  10
ENDBRANCH   7   9
ENDBRANCH   1   7
BRANCH   6  19
ATOM     19  O   LIG A   1      -8.550  -1.120 123.926  0.00  0.00    -0.494 OA
ATOM     20  C   LIG A   1      -7.312  -1.195 123.219  0.00  0.00    +0.277 C 
ENDBRANCH   6  19
BRANCH   2  21
ATOM     21  O   LIG A   1      -8.856   2.028 127.582  0.00  0.00    -0.425 OA
BRANCH  21  22
ATOM     22  C   LIG A   1      -7.936   2.725 128.392  0.00  0.00    +0.309 C 
ATOM     23  O   LIG A   1      -8.030   2.962 129.590  0.00  0.00    -0.251 OA
ATOM     24  C   LIG A   1      -6.845   3.235 127.483  0.00  0.00    +0.136 C 
ENDBRANCH  21  22
ENDBRANCH   2  21
BRANCH   4  25
ATOM     25  O   LIG A   1      -7.238  -2.382 128.435  0.00  0.00    -0.426 OA
BRANCH  25  26
ATOM     26  C   LIG A   1      -5.861  -2.511 128.654  0.00  0.00    +0.309 C 
ATOM     27  O   LIG A   1      -4.964  -2.025 127.994  0.00  0.00    -0.251 OA
ATOM     28  C   LIG A   1      -5.642  -3.413 129.823  0.00  0.00    +0.136 C 
ENDBRANCH  25  26
ENDBRANCH   4  25
TORSDOF 10
ENDMDL
MODEL 4
REMARK VINA RESULT:      -7.0      4.633      8.785
REMARK  Name = NuBBE_2037
REMARK  14 active torsions:
REMARK  status: ('A' for Active; 'I' for Inactive)
REMARK    1  A    between atoms: C_1  and  C_3
REMARK    2  A    between atoms: C_1  and  C_13
REMARK    3  A    between atoms: C_3  and  C_4
REMARK    4  A    between atoms: C_4  and  C_5
REMARK    5  A    between atoms: C_8  and  O_11
REMARK    6  A    between atoms: O_11  and  C_12
REMARK    7  A    between atoms: C_14  and  O_15
REMARK    8  A    between atoms: O_15  and  C_16
REMARK    9  A    between atoms: C_16  and  C_18
REMARK   10  A    between atoms: C_20  and  O_25
REMARK   11  A    between atoms: C_22  and  O_23
REMARK   12  A    between atoms: O_23  and  C_24
REMARK   13  A    between atoms: O_25  and  C_26
REMARK   14  A    between atoms: C_26  and  C_28
REMARK                            x       y       z     vdW  Elec       q    Type
REMARK                         _______ _______ _______ _____ _____    ______ ____
ROOT
ATOM      1  C   LIG A   1      -6.471   4.371 129.823  0.00  0.00    +0.101 A 
ATOM      2  C   LIG A   1      -7.344   3.267 129.705  0.00  0.00    +0.149 A 
ATOM      3  C   LIG A   1      -7.576   2.661 128.469  0.00  0.00    +0.093 A 
ATOM      4  C   LIG A   1      -6.901   3.126 127.348  0.00  0.00    +0.139 A 
ATOM      5  C   LIG A   1      -6.008   4.189 127.446  0.00  0.00    +0.092 A 
ATOM      6  C   LIG A   1      -5.758   4.787 128.683  0.00  0.00    +0.138 A 
ENDROOT
BRANCH   1   7
ATOM      7  C   LIG A   1      -6.392   5.123 131.120  0.00  0.00    +0.171 C 
ATOM      8  O   LIG A   1      -5.766   4.649 132.071  0.00  0.00    -0.292 OA
BRANCH   7   9
ATOM      9  C   LIG A   1      -7.200   6.397 131.312  0.00  0.00    +0.084 C 
BRANCH   9  10
ATOM     10  C   LIG A   1      -8.475   6.098 132.088  0.00  0.00    +0.043 C 
BRANCH  10  11
ATOM     11  C   LIG A   1      -9.719   6.556 131.369  0.00  0.00    -0.047 A 
ATOM     12  C   LIG A   1     -10.961   6.389 131.987  0.00  0.00    +0.007 A 
ATOM     13  C   LIG A   1     -12.133   6.798 131.355  0.00  0.00    +0.046 A 
ATOM     14  C   LIG A   1     -12.090   7.365 130.083  0.00  0.00    +0.120 A 
ATOM     15  C   LIG A   1     -10.852   7.571 129.471  0.00  0.00    +0.046 A 
ATOM     16  C   LIG A   1      -9.672   7.169 130.108  0.00  0.00    +0.007 A 
BRANCH  14  17
ATOM     17  O   LIG A   1     -13.192   7.785 129.387  0.00  0.00    -0.495 OA
ATOM     18  C   LIG A   1     -13.541   6.975 128.266  0.00  0.00    +0.277 C 
ENDBRANCH  14  17
ENDBRANCH  10  11
ENDBRANCH   9  10
ENDBRANCH   7   9
ENDBRANCH   1   7
BRANCH   6  19
ATOM     19  O   LIG A   1      -4.742   5.693 128.828  0.00  0.00    -0.494 OA
ATOM     20  C   LIG A   1      -3.794   5.777 127.765  0.00  0.00    +0.277 C 
ENDBRANCH   6  19
BRANCH   2  21
ATOM     21  O   LIG A   1      -8.114   2.855 130.813  0.00  0.00    -0.425 OA
BRANCH  21  22
ATOM     22  C   LIG A   1      -9.521   2.843 130.707  0.00  0.00    +0.309 C 
ATOM     23  O   LIG A   1     -10.212   3.468 129.912  0.00  0.00    -0.251 OA
ATOM     24  C   LIG A   1     -10.042   1.992 131.839  0.00  0.00    +0.136 C 
ENDBRANCH  21  22
ENDBRANCH   2  21
BRANCH   4  25
ATOM     25  O   LIG A   1      -7.215   2.484 126.140  0.00  0.00    -0.426 OA
BRANCH  25  26
ATOM     26  C   LIG A   1      -7.786   3.202 125.082  0.00  0.00    +0.309 C 
ATOM     27  O   LIG A   1      -8.861   3.768 125.075  0.00  0.00    -0.251 OA
ATOM     28  C   LIG A   1      -6.878   3.121 123.899  0.00  0.00    +0.136 C 
ENDBRANCH  25  26
ENDBRANCH   4  25
TORSDOF 10
ENDMDL
MODEL 5
REMARK VINA RESULT:      -7.0      5.228      9.541
REMARK  Name = NuBBE_2037
REMARK  14 active torsions:
REMARK  status: ('A' for Active; 'I' for Inactive)
REMARK    1  A    between atoms: C_1  and  C_3
REMARK    2  A    between atoms: C_1  and  C_13
REMARK    3  A    between atoms: C_3  and  C_4
REMARK    4  A    between atoms: C_4  and  C_5
REMARK    5  A    between atoms: C_8  and  O_11
REMARK    6  A    between atoms: O_11  and  C_12
REMARK    7  A    between atoms: C_14  and  O_15
REMARK    8  A    between atoms: O_15  and  C_16
REMARK    9  A    between atoms: C_16  and  C_18
REMARK   10  A    between atoms: C_20  and  O_25
REMARK   11  A    between atoms: C_22  and  O_23
REMARK   12  A    between atoms: O_23  and  C_24
REMARK   13  A    between atoms: O_25  and  C_26
REMARK   14  A    between atoms: C_26  and  C_28
REMARK                            x       y       z     vdW  Elec       q    Type
REMARK                         _______ _______ _______ _____ _____    ______ ____
ROOT
ATOM      1  C   LIG A   1      -6.648   4.626 129.962  0.00  0.00    +0.101 A 
ATOM      2  C   LIG A   1      -5.365   4.996 129.501  0.00  0.00    +0.149 A 
ATOM      3  C   LIG A   1      -4.981   4.766 128.179  0.00  0.00    +0.093 A 
ATOM      4  C   LIG A   1      -5.893   4.205 127.295  0.00  0.00    +0.139 A 
ATOM      5  C   LIG A   1      -7.174   3.865 127.717  0.00  0.00    +0.092 A 
ATOM      6  C   LIG A   1      -7.571   4.109 129.033  0.00  0.00    +0.138 A 
ENDROOT
BRANCH   1   7
ATOM      7  C   LIG A   1      -6.964   4.704 131.427  0.00  0.00    +0.171 C 
ATOM      8  O   LIG A   1      -6.918   3.687 132.123  0.00  0.00    -0.292 OA
BRANCH   7   9
ATOM      9  C   LIG A   1      -7.482   6.003 132.027  0.00  0.00    +0.084 C 
BRANCH   9  10
ATOM     10  C   LIG A   1      -8.939   5.845 132.442  0.00  0.00    +0.043 C 
BRANCH  10  11
ATOM     11  C   LIG A   1      -9.896   6.501 131.479  0.00  0.00    -0.047 A 
ATOM     12  C   LIG A   1      -9.388   7.140 130.345  0.00  0.00    +0.007 A 
ATOM     13  C   LIG A   1     -10.239   7.759 129.433  0.00  0.00    +0.046 A 
ATOM     14  C   LIG A   1     -11.617   7.767 129.645  0.00  0.00    +0.120 A 
ATOM     15  C   LIG A   1     -12.139   7.100 130.754  0.00  0.00    +0.046 A 
ATOM     16  C   LIG A   1     -11.286   6.470 131.669  0.00  0.00    +0.007 A 
BRANCH  14  17
ATOM     17  O   LIG A   1     -12.523   8.359 128.806  0.00  0.00    -0.495 OA
ATOM     18  C   LIG A   1     -13.009   9.626 129.242  0.00  0.00    +0.277 C 
ENDBRANCH  14  17
ENDBRANCH  10  11
ENDBRANCH   9  10
ENDBRANCH   7   9
ENDBRANCH   1   7
BRANCH   6  19
ATOM     19  O   LIG A   1      -8.880   3.967 129.406  0.00  0.00    -0.494 OA
ATOM     20  C   LIG A   1      -9.334   2.641 129.675  0.00  0.00    +0.277 C 
ENDBRANCH   6  19
BRANCH   2  21
ATOM     21  O   LIG A   1      -4.397   5.469 130.412  0.00  0.00    -0.425 OA
BRANCH  21  22
ATOM     22  C   LIG A   1      -3.634   6.607 130.077  0.00  0.00    +0.309 C 
ATOM     23  O   LIG A   1      -2.447   6.645 129.780  0.00  0.00    -0.251 OA
ATOM     24  C   LIG A   1      -4.529   7.808 130.260  0.00  0.00    +0.136 C 
ENDBRANCH  21  22
ENDBRANCH   2  21
BRANCH   4  25
ATOM     25  O   LIG A   1      -5.417   3.977 125.994  0.00  0.00    -0.426 OA
BRANCH  25  26
ATOM     26  C   LIG A   1      -5.847   4.780 124.930  0.00  0.00    +0.309 C 
ATOM     27  O   LIG A   1      -6.268   5.918 124.992  0.00  0.00    -0.251 OA
ATOM     28  C   LIG A   1      -5.764   3.989 123.666  0.00  0.00    +0.136 C 
ENDBRANCH  25  26
ENDBRANCH   4  25
TORSDOF 10
ENDMDL
MODEL 6
REMARK VINA RESULT:      -6.9      7.332      9.766
REMARK  Name = NuBBE_2037
REMARK  14 active torsions:
REMARK  status: ('A' for Active; 'I' for Inactive)
REMARK    1  A    between atoms: C_1  and  C_3
REMARK    2  A    between atoms: C_1  and  C_13
REMARK    3  A    between atoms: C_3  and  C_4
REMARK    4  A    between atoms: C_4  and  C_5
REMARK    5  A    between atoms: C_8  and  O_11
REMARK    6  A    between atoms: O_11  and  C_12
REMARK    7  A    between atoms: C_14  and  O_15
REMARK    8  A    between atoms: O_15  and  C_16
REMARK    9  A    between atoms: C_16  and  C_18
REMARK   10  A    between atoms: C_20  and  O_25
REMARK   11  A    between atoms: C_22  and  O_23
REMARK   12  A    between atoms: O_23  and  C_24
REMARK   13  A    between atoms: O_25  and  C_26
REMARK   14  A    between atoms: C_26  and  C_28
REMARK                            x       y       z     vdW  Elec       q    Type
REMARK                         _______ _______ _______ _____ _____    ______ ____
ROOT
ATOM      1  C   LIG A   1      -6.429   3.604 132.334  0.00  0.00    +0.101 A 
ATOM      2  C   LIG A   1      -6.770   3.264 131.007  0.00  0.00    +0.149 A 
ATOM      3  C   LIG A   1      -6.075   3.803 129.923  0.00  0.00    +0.093 A 
ATOM      4  C   LIG A   1      -5.002   4.652 130.160  0.00  0.00    +0.139 A 
ATOM      5  C   LIG A   1      -4.624   4.974 131.460  0.00  0.00    +0.092 A 
ATOM      6  C   LIG A   1      -5.304   4.424 132.548  0.00  0.00    +0.138 A 
ENDROOT
BRANCH   1   7
ATOM      7  C   LIG A   1      -7.312   3.168 133.466  0.00  0.00    +0.171 C 
ATOM      8  O   LIG A   1      -7.155   2.058 133.980  0.00  0.00    -0.292 OA
BRANCH   7   9
ATOM      9  C   LIG A   1      -8.493   4.030 133.887  0.00  0.00    +0.084 C 
BRANCH   9  10
ATOM     10  C   LIG A   1      -8.200   5.497 133.602  0.00  0.00    +0.043 C 
BRANCH  10  11
ATOM     11  C   LIG A   1      -9.035   6.053 132.476  0.00  0.00    -0.047 A 
ATOM     12  C   LIG A   1      -8.394   6.621 131.372  0.00  0.00    +0.007 A 
ATOM     13  C   LIG A   1      -9.130   7.147 130.312  0.00  0.00    +0.046 A 
ATOM     14  C   LIG A   1     -10.523   7.132 130.342  0.00  0.00    +0.120 A 
ATOM     15  C   LIG A   1     -11.174   6.534 131.423  0.00  0.00    +0.046 A 
ATOM     16  C   LIG A   1     -10.437   5.998 132.486  0.00  0.00    +0.007 A 
BRANCH  14  17
ATOM     17  O   LIG A   1     -11.322   7.634 129.350  0.00  0.00    -0.495 OA
ATOM     18  C   LIG A   1     -12.716   7.389 129.518  0.00  0.00    +0.277 C 
ENDBRANCH  14  17
ENDBRANCH  10  11
ENDBRANCH   9  10
ENDBRANCH   7   9
ENDBRANCH   1   7
BRANCH   6  19
ATOM     19  O   LIG A   1      -4.821   4.571 133.821  0.00  0.00    -0.494 OA
ATOM     20  C   LIG A   1      -4.561   5.903 134.263  0.00  0.00    +0.277 C 
ENDBRANCH   6  19
BRANCH   2  21
ATOM     21  O   LIG A   1      -7.921   2.488 130.751  0.00  0.00    -0.425 OA
BRANCH  21  22
ATOM     22  C   LIG A   1      -9.050   3.104 130.171  0.00  0.00    +0.309 C 
ATOM     23  O   LIG A   1      -9.073   3.857 129.206  0.00  0.00    -0.251 OA
ATOM     24  C   LIG A   1     -10.237   2.752 131.035  0.00  0.00    +0.136 C 
ENDBRANCH  21  22
ENDBRANCH   2  21
BRANCH   4  25
ATOM     25  O   LIG A   1      -4.377   5.176 129.017  0.00  0.00    -0.426 OA
BRANCH  25  26
ATOM     26  C   LIG A   1      -3.802   6.452 129.044  0.00  0.00    +0.309 C 
ATOM     27  O   LIG A   1      -4.376   7.514 129.183  0.00  0.00    -0.251 OA
ATOM     28  C   LIG A   1      -2.332   6.323 128.812  0.00  0.00    +0.136 C 
ENDBRANCH  25  26
ENDBRANCH   4  25
TORSDOF 10
ENDMDL
MODEL 7
REMARK VINA RESULT:      -6.9      2.447      7.100
REMARK  Name = NuBBE_2037
REMARK  14 active torsions:
REMARK  status: ('A' for Active; 'I' for Inactive)
REMARK    1  A    between atoms: C_1  and  C_3
REMARK    2  A    between atoms: C_1  and  C_13
REMARK    3  A    between atoms: C_3  and  C_4
REMARK    4  A    between atoms: C_4  and  C_5
REMARK    5  A    between atoms: C_8  and  O_11
REMARK    6  A    between atoms: O_11  and  C_12
REMARK    7  A    between atoms: C_14  and  O_15
REMARK    8  A    between atoms: O_15  and  C_16
REMARK    9  A    between atoms: C_16  and  C_18
REMARK   10  A    between atoms: C_20  and  O_25
REMARK   11  A    between atoms: C_22  and  O_23
REMARK   12  A    between atoms: O_23  and  C_24
REMARK   13  A    between atoms: O_25  and  C_26
REMARK   14  A    between atoms: C_26  and  C_28
REMARK                            x       y       z     vdW  Elec       q    Type
REMARK                         _______ _______ _______ _____ _____    ______ ____
ROOT
ATOM      1  C   LIG A   1      -7.755   2.304 124.098  0.00  0.00    +0.101 A 
ATOM      2  C   LIG A   1      -6.660   2.941 123.472  0.00  0.00    +0.149 A 
ATOM      3  C   LIG A   1      -5.936   3.938 124.128  0.00  0.00    +0.093 A 
ATOM      4  C   LIG A   1      -6.273   4.275 125.433  0.00  0.00    +0.139 A 
ATOM      5  C   LIG A   1      -7.325   3.636 126.082  0.00  0.00    +0.092 A 
ATOM      6  C   LIG A   1      -8.041   2.625 125.438  0.00  0.00    +0.138 A 
ENDROOT
BRANCH   1   7
ATOM      7  C   LIG A   1      -8.633   1.382 123.304  0.00  0.00    +0.171 C 
ATOM      8  O   LIG A   1      -9.614   1.827 122.704  0.00  0.00    -0.292 OA
BRANCH   7   9
ATOM      9  C   LIG A   1      -8.403  -0.122 123.356  0.00  0.00    +0.084 C 
BRANCH   9  10
ATOM     10  C   LIG A   1      -6.992  -0.420 123.844  0.00  0.00    +0.043 C 
BRANCH  10  11
ATOM     11  C   LIG A   1      -6.971  -1.128 125.176  0.00  0.00    -0.047 A 
ATOM     12  C   LIG A   1      -8.134  -1.756 125.630  0.00  0.00    +0.007 A 
ATOM     13  C   LIG A   1      -8.156  -2.417 126.855  0.00  0.00    +0.046 A 
ATOM     14  C   LIG A   1      -7.020  -2.451 127.661  0.00  0.00    +0.120 A 
ATOM     15  C   LIG A   1      -5.841  -1.859 127.202  0.00  0.00    +0.046 A 
ATOM     16  C   LIG A   1      -5.815  -1.200 125.967  0.00  0.00    +0.007 A 
BRANCH  14  17
ATOM     17  O   LIG A   1      -6.957  -3.069 128.881  0.00  0.00    -0.495 OA
ATOM     18  C   LIG A   1      -7.807  -2.515 129.882  0.00  0.00    +0.277 C 
ENDBRANCH  14  17
ENDBRANCH  10  11
ENDBRANCH   9  10
ENDBRANCH   7   9
ENDBRANCH   1   7
BRANCH   6  19
ATOM     19  O   LIG A   1      -8.940   1.857 126.129  0.00  0.00    -0.494 OA
ATOM     20  C   LIG A   1      -8.561   1.441 127.440  0.00  0.00    +0.277 C 
ENDBRANCH   6  19
BRANCH   2  21
ATOM     21  O   LIG A   1      -6.376   2.683 122.115  0.00  0.00    -0.425 OA
BRANCH  21  22
ATOM     22  C   LIG A   1      -6.718   3.649 121.145  0.00  0.00    +0.309 C 
ATOM     23  O   LIG A   1      -7.838   3.933 120.741  0.00  0.00    -0.251 OA
ATOM     24  C   LIG A   1      -5.425   4.206 120.602  0.00  0.00    +0.136 C 
ENDBRANCH  21  22
ENDBRANCH   2  21
BRANCH   4  25
ATOM     25  O   LIG A   1      -5.517   5.308 126.008  0.00  0.00    -0.426 OA
BRANCH  25  26
ATOM     26  C   LIG A   1      -4.752   5.073 127.157  0.00  0.00    +0.309 C 
ATOM     27  O   LIG A   1      -4.962   5.491 128.278  0.00  0.00    -0.251 OA
ATOM     28  C   LIG A   1      -3.563   4.250 126.783  0.00  0.00    +0.136 C 
ENDBRANCH  25  26
ENDBRANCH   4  25
TORSDOF 10
ENDMDL
MODEL 8
REMARK VINA RESULT:      -6.9      2.171      7.195
REMARK  Name = NuBBE_2037
REMARK  14 active torsions:
REMARK  status: ('A' for Active; 'I' for Inactive)
REMARK    1  A    between atoms: C_1  and  C_3
REMARK    2  A    between atoms: C_1  and  C_13
REMARK    3  A    between atoms: C_3  and  C_4
REMARK    4  A    between atoms: C_4  and  C_5
REMARK    5  A    between atoms: C_8  and  O_11
REMARK    6  A    between atoms: O_11  and  C_12
REMARK    7  A    between atoms: C_14  and  O_15
REMARK    8  A    between atoms: O_15  and  C_16
REMARK    9  A    between atoms: C_16  and  C_18
REMARK   10  A    between atoms: C_20  and  O_25
REMARK   11  A    between atoms: C_22  and  O_23
REMARK   12  A    between atoms: O_23  and  C_24
REMARK   13  A    between atoms: O_25  and  C_26
REMARK   14  A    between atoms: C_26  and  C_28
REMARK                            x       y       z     vdW  Elec       q    Type
REMARK                         _______ _______ _______ _____ _____    ______ ____
ROOT
ATOM      1  C   LIG A   1      -7.272   3.787 125.179  0.00  0.00    +0.101 A 
ATOM      2  C   LIG A   1      -8.105   3.062 124.298  0.00  0.00    +0.149 A 
ATOM      3  C   LIG A   1      -7.759   2.894 122.956  0.00  0.00    +0.093 A 
ATOM      4  C   LIG A   1      -6.556   3.411 122.495  0.00  0.00    +0.139 A 
ATOM      5  C   LIG A   1      -5.702   4.097 123.353  0.00  0.00    +0.092 A 
ATOM      6  C   LIG A   1      -6.033   4.253 124.700  0.00  0.00    +0.138 A 
ENDROOT
BRANCH   1   7
ATOM      7  C   LIG A   1      -7.759   4.119 126.560  0.00  0.00    +0.171 C 
ATOM      8  O   LIG A   1      -8.507   5.083 126.735  0.00  0.00    -0.292 OA
BRANCH   7   9
ATOM      9  C   LIG A   1      -7.217   3.360 127.762  0.00  0.00    +0.084 C 
BRANCH   9  10
ATOM     10  C   LIG A   1      -8.030   2.093 127.993  0.00  0.00    +0.043 C 
BRANCH  10  11
ATOM     11  C   LIG A   1      -7.341   0.854 127.479  0.00  0.00    -0.047 A 
ATOM     12  C   LIG A   1      -7.938  -0.392 127.690  0.00  0.00    +0.007 A 
ATOM     13  C   LIG A   1      -7.332  -1.560 127.232  0.00  0.00    +0.046 A 
ATOM     14  C   LIG A   1      -6.107  -1.509 126.570  0.00  0.00    +0.120 A 
ATOM     15  C   LIG A   1      -5.519  -0.267 126.321  0.00  0.00    +0.046 A 
ATOM     16  C   LIG A   1      -6.130   0.909 126.773  0.00  0.00    +0.007 A 
BRANCH  14  17
ATOM     17  O   LIG A   1      -5.440  -2.606 126.097  0.00  0.00    -0.495 OA
ATOM     18  C   LIG A   1      -5.468  -2.763 124.680  0.00  0.00    +0.277 C 
ENDBRANCH  14  17
ENDBRANCH  10  11
ENDBRANCH   9  10
ENDBRANCH   7   9
ENDBRANCH   1   7
BRANCH   6  19
ATOM     19  O   LIG A   1      -5.119   4.747 125.592  0.00  0.00    -0.494 OA
ATOM     20  C   LIG A   1      -4.011   3.907 125.913  0.00  0.00    +0.277 C 
ENDBRANCH   6  19
BRANCH   2  21
ATOM     21  O   LIG A   1      -9.376   2.625 124.727  0.00  0.00    -0.425 OA
BRANCH  21  22
ATOM     22  C   LIG A   1      -9.916   1.441 124.182  0.00  0.00    +0.309 C 
ATOM     23  O   LIG A   1     -11.050   1.270 123.753  0.00  0.00    -0.251 OA
ATOM     24  C   LIG A   1      -8.864   0.368 124.326  0.00  0.00    +0.136 C 
ENDBRANCH  21  22
ENDBRANCH   2  21
BRANCH   4  25
ATOM     25  O   LIG A   1      -6.299   3.227 121.127  0.00  0.00    -0.426 OA
BRANCH  25  26
ATOM     26  C   LIG A   1      -6.779   4.145 120.185  0.00  0.00    +0.309 C 
ATOM     27  O   LIG A   1      -7.913   4.234 119.757  0.00  0.00    -0.251 OA
ATOM     28  C   LIG A   1      -5.643   4.995 119.720  0.00  0.00    +0.136 C 
ENDBRANCH  25  26
ENDBRANCH   4  25
TORSDOF 10
ENDMDL
MODEL 9
REMARK VINA RESULT:      -6.9      4.797      8.871
REMARK  Name = NuBBE_2037
REMARK  14 active torsions:
REMARK  status: ('A' for Active; 'I' for Inactive)
REMARK    1  A    between atoms: C_1  and  C_3
REMARK    2  A    between atoms: C_1  and  C_13
REMARK    3  A    between atoms: C_3  and  C_4
REMARK    4  A    between atoms: C_4  and  C_5
REMARK    5  A    between atoms: C_8  and  O_11
REMARK    6  A    between atoms: O_11  and  C_12
REMARK    7  A    between atoms: C_14  and  O_15
REMARK    8  A    between atoms: O_15  and  C_16
REMARK    9  A    between atoms: C_16  and  C_18
REMARK   10  A    between atoms: C_20  and  O_25
REMARK   11  A    between atoms: C_22  and  O_23
REMARK   12  A    between atoms: O_23  and  C_24
REMARK   13  A    between atoms: O_25  and  C_26
REMARK   14  A    between atoms: C_26  and  C_28
REMARK                            x       y       z     vdW  Elec       q    Type
REMARK                         _______ _______ _______ _____ _____    ______ ____
ROOT
ATOM      1  C   LIG A   1      -7.323   4.176 130.088  0.00  0.00    +0.101 A 
ATOM      2  C   LIG A   1      -6.521   4.586 128.999  0.00  0.00    +0.149 A 
ATOM      3  C   LIG A   1      -6.641   3.980 127.748  0.00  0.00    +0.093 A 
ATOM      4  C   LIG A   1      -7.595   2.988 127.562  0.00  0.00    +0.139 A 
ATOM      5  C   LIG A   1      -8.421   2.592 128.609  0.00  0.00    +0.092 A 
ATOM      6  C   LIG A   1      -8.319   3.207 129.859  0.00  0.00    +0.138 A 
ENDROOT
BRANCH   1   7
ATOM      7  C   LIG A   1      -7.039   4.704 131.463  0.00  0.00    +0.171 C 
ATOM      8  O   LIG A   1      -6.530   3.971 132.314  0.00  0.00    -0.292 OA
BRANCH   7   9
ATOM      9  C   LIG A   1      -7.510   6.097 131.856  0.00  0.00    +0.084 C 
BRANCH   9  10
ATOM     10  C   LIG A   1      -8.910   6.030 132.450  0.00  0.00    +0.043 C 
BRANCH  10  11
ATOM     11  C   LIG A   1      -9.969   6.552 131.513  0.00  0.00    -0.047 A 
ATOM     12  C   LIG A   1     -11.309   6.504 131.907  0.00  0.00    +0.007 A 
ATOM     13  C   LIG A   1     -12.317   6.974 131.068  0.00  0.00    +0.046 A 
ATOM     14  C   LIG A   1     -12.008   7.487 129.810  0.00  0.00    +0.120 A 
ATOM     15  C   LIG A   1     -10.670   7.575 129.420  0.00  0.00    +0.046 A 
ATOM     16  C   LIG A   1      -9.654   7.109 130.265  0.00  0.00    +0.007 A 
BRANCH  14  17
ATOM     17  O   LIG A   1     -12.935   7.961 128.921  0.00  0.00    -0.495 OA
ATOM     18  C   LIG A   1     -13.086   9.379 128.907  0.00  0.00    +0.277 C 
ENDBRANCH  14  17
ENDBRANCH  10  11
ENDBRANCH   9  10
ENDBRANCH   7   9
ENDBRANCH   1   7
BRANCH   6  19
ATOM     19  O   LIG A   1      -9.251   2.970 130.833  0.00  0.00    -0.494 OA
ATOM     20  C   LIG A   1     -10.616   3.213 130.494  0.00  0.00    +0.277 C 
ENDBRANCH   6  19
BRANCH   2  21
ATOM     21  O   LIG A   1      -5.479   5.516 129.202  0.00  0.00    -0.425 OA
BRANCH  21  22
ATOM     22  C   LIG A   1      -4.141   5.079 129.111  0.00  0.00    +0.309 C 
ATOM     23  O   LIG A   1      -3.619   4.150 129.715  0.00  0.00    -0.251 OA
ATOM     24  C   LIG A   1      -3.422   6.045 128.202  0.00  0.00    +0.136 C 
ENDBRANCH  21  22
ENDBRANCH   2  21
BRANCH   4  25
ATOM     25  O   LIG A   1      -7.629   2.408 126.284  0.00  0.00    -0.426 OA
BRANCH  25  26
ATOM     26  C   LIG A   1      -8.465   2.930 125.290  0.00  0.00    +0.309 C 
ATOM     27  O   LIG A   1      -8.788   4.091 125.135  0.00  0.00    -0.251 OA
ATOM     28  C   LIG A   1      -8.971   1.805 124.448  0.00  0.00    +0.136 C 
ENDBRANCH  25  26
ENDBRANCH   4  25
TORSDOF 10
ENDMDL
