MODEL 1
REMARK VINA RESULT:      -5.9      0.000      0.000
REMARK  Name = NuBBE_333
REMARK  6 active torsions:
REMARK  status: ('A' for Active; 'I' for Inactive)
REMARK    1  A    between atoms: C_2  and  O_3
REMARK    2  A    between atoms: C_2  and  C_5
REMARK    3  A    between atoms: O_3  and  C_4
REMARK    4  A    between atoms: C_8  and  O_10
REMARK    5  A    between atoms: C_16  and  O_18
REMARK    6  A    between atoms: C_19  and  C_21
REMARK                            x       y       z     vdW  Elec       q    Type
REMARK                         _______ _______ _______ _____ _____    ______ ____
ROOT
ATOM      1  C   LIG A   1      -9.514   6.238 130.167  0.00  0.00    +0.074 C 
ATOM      2  C   LIG A   1     -10.022   5.001 130.286  0.00  0.00    +0.201 C 
ATOM      3  O   LIG A   1     -11.355   4.694 130.391  0.00  0.00    -0.470 OA
ATOM      4  C   LIG A   1     -12.194   5.787 130.768  0.00  0.00    +0.308 C 
ATOM      5  C   LIG A   1     -11.897   7.072 130.001  0.00  0.00    +0.071 C 
ATOM      6  C   LIG A   1     -10.400   7.455 130.062  0.00  0.00    +0.041 C 
ATOM      7  C   LIG A   1     -10.151   8.263 128.763  0.00  0.00    +0.040 C 
ATOM      8  C   LIG A   1     -11.466   8.255 127.983  0.00  0.00    +0.118 C 
ATOM      9  C   LIG A   1     -12.188   7.005 128.490  0.00  0.00    +0.024 C 
ATOM     10  C   LIG A   1     -13.672   6.960 128.155  0.00  0.00    +0.010 C 
ENDROOT
BRANCH   1  12
ATOM     11  O   LIG A   1      -7.405   7.269 130.682  0.00  0.00    -0.245 OA
ATOM     12  C   LIG A   1      -8.030   6.370 130.146  0.00  0.00    +0.338 C 
BRANCH  12  13
ATOM     13  O   LIG A   1      -7.505   5.337 129.440  0.00  0.00    -0.465 OA
ATOM     14  C   LIG A   1      -6.258   4.837 129.925  0.00  0.00    +0.280 C 
ENDBRANCH  12  13
ENDBRANCH   1  12
BRANCH   4  15
ATOM     15  O   LIG A   1     -12.058   6.036 132.164  0.00  0.00    -0.357 OA
ATOM     16  H   LIG A   1     -11.628   5.240 132.520  0.00  0.00    +0.213 HD
ENDBRANCH   4  15
BRANCH   8  17
ATOM     17  O   LIG A   1     -12.188   9.439 128.303  0.00  0.00    -0.392 OA
ATOM     18  H   LIG A   1     -12.883   9.551 127.631  0.00  0.00    +0.210 HD
ENDBRANCH   8  17
TORSDOF 4
ENDMDL
MODEL 2
REMARK VINA RESULT:      -5.6      1.770      3.181
REMARK  Name = NuBBE_333
REMARK  6 active torsions:
REMARK  status: ('A' for Active; 'I' for Inactive)
REMARK    1  A    between atoms: C_2  and  O_3
REMARK    2  A    between atoms: C_2  and  C_5
REMARK    3  A    between atoms: O_3  and  C_4
REMARK    4  A    between atoms: C_8  and  O_10
REMARK    5  A    between atoms: C_16  and  O_18
REMARK    6  A    between atoms: C_19  and  C_21
REMARK                            x       y       z     vdW  Elec       q    Type
REMARK                         _______ _______ _______ _____ _____    ______ ____
ROOT
ATOM      1  C   LIG A   1     -10.219   6.099 128.898  0.00  0.00    +0.074 C 
ATOM      2  C   LIG A   1      -9.866   6.947 127.919  0.00  0.00    +0.201 C 
ATOM      3  O   LIG A   1     -10.697   7.854 127.311  0.00  0.00    -0.470 OA
ATOM      4  C   LIG A   1     -12.092   7.599 127.488  0.00  0.00    +0.308 C 
ATOM      5  C   LIG A   1     -12.469   7.256 128.926  0.00  0.00    +0.071 C 
ATOM      6  C   LIG A   1     -11.604   6.110 129.498  0.00  0.00    +0.041 C 
ATOM      7  C   LIG A   1     -11.587   6.359 131.028  0.00  0.00    +0.040 C 
ATOM      8  C   LIG A   1     -12.367   7.653 131.269  0.00  0.00    +0.118 C 
ATOM      9  C   LIG A   1     -12.263   8.399 129.938  0.00  0.00    +0.024 C 
ATOM     10  C   LIG A   1     -13.258   9.540 129.781  0.00  0.00    +0.010 C 
ENDROOT
BRANCH   1  12
ATOM     11  O   LIG A   1      -9.360   3.933 129.485  0.00  0.00    -0.245 OA
ATOM     12  C   LIG A   1      -9.188   5.134 129.373  0.00  0.00    +0.338 C 
BRANCH  12  13
ATOM     13  O   LIG A   1      -8.046   5.812 129.656  0.00  0.00    -0.465 OA
ATOM     14  C   LIG A   1      -7.937   6.292 130.996  0.00  0.00    +0.280 C 
ENDBRANCH  12  13
ENDBRANCH   1  12
BRANCH   4  15
ATOM     15  O   LIG A   1     -12.496   6.533 126.634  0.00  0.00    -0.357 OA
ATOM     16  H   LIG A   1     -12.007   5.756 126.954  0.00  0.00    +0.213 HD
ENDBRANCH   4  15
BRANCH   8  17
ATOM     17  O   LIG A   1     -13.715   7.317 131.574  0.00  0.00    -0.392 OA
ATOM     18  H   LIG A   1     -13.724   6.402 131.904  0.00  0.00    +0.210 HD
ENDBRANCH   8  17
TORSDOF 4
ENDMDL
MODEL 3
REMARK VINA RESULT:      -5.5      2.155      4.853
REMARK  Name = NuBBE_333
REMARK  6 active torsions:
REMARK  status: ('A' for Active; 'I' for Inactive)
REMARK    1  A    between atoms: C_2  and  O_3
REMARK    2  A    between atoms: C_2  and  C_5
REMARK    3  A    between atoms: O_3  and  C_4
REMARK    4  A    between atoms: C_8  and  O_10
REMARK    5  A    between atoms: C_16  and  O_18
REMARK    6  A    between atoms: C_19  and  C_21
REMARK                            x       y       z     vdW  Elec       q    Type
REMARK                         _______ _______ _______ _____ _____    ______ ____
ROOT
ATOM      1  C   LIG A   1     -10.325   6.110 130.022  0.00  0.00    +0.074 C 
ATOM      2  C   LIG A   1     -11.366   5.265 129.961  0.00  0.00    +0.201 C 
ATOM      3  O   LIG A   1     -11.338   3.938 130.310  0.00  0.00    -0.470 OA
ATOM      4  C   LIG A   1     -10.031   3.366 130.380  0.00  0.00    +0.308 C 
ATOM      5  C   LIG A   1      -9.025   4.240 131.123  0.00  0.00    +0.071 C 
ATOM      6  C   LIG A   1      -8.985   5.682 130.570  0.00  0.00    +0.041 C 
ATOM      7  C   LIG A   1      -8.529   6.549 131.771  0.00  0.00    +0.040 C 
ATOM      8  C   LIG A   1      -8.394   5.605 132.966  0.00  0.00    +0.118 C 
ATOM      9  C   LIG A   1      -9.323   4.439 132.621  0.00  0.00    +0.024 C 
ATOM     10  C   LIG A   1      -9.098   3.190 133.460  0.00  0.00    +0.010 C 
ENDROOT
BRANCH   1  12
ATOM     11  O   LIG A   1      -9.745   8.117 128.833  0.00  0.00    -0.245 OA
ATOM     12  C   LIG A   1     -10.538   7.497 129.521  0.00  0.00    +0.338 C 
BRANCH  12  13
ATOM     13  O   LIG A   1     -11.743   7.943 129.957  0.00  0.00    -0.465 OA
ATOM     14  C   LIG A   1     -12.397   8.876 129.096  0.00  0.00    +0.280 C 
ENDBRANCH  12  13
ENDBRANCH   1  12
BRANCH   4  15
ATOM     15  O   LIG A   1      -9.547   3.114 129.065  0.00  0.00    -0.357 OA
ATOM     16  H   LIG A   1      -9.714   3.936 128.574  0.00  0.00    +0.213 HD
ENDBRANCH   4  15
BRANCH   8  17
ATOM     17  O   LIG A   1      -7.039   5.181 133.057  0.00  0.00    -0.392 OA
ATOM     18  H   LIG A   1      -6.934   4.710 133.902  0.00  0.00    +0.210 HD
ENDBRANCH   8  17
TORSDOF 4
ENDMDL
MODEL 4
REMARK VINA RESULT:      -5.5      2.411      5.061
REMARK  Name = NuBBE_333
REMARK  6 active torsions:
REMARK  status: ('A' for Active; 'I' for Inactive)
REMARK    1  A    between atoms: C_2  and  O_3
REMARK    2  A    between atoms: C_2  and  C_5
REMARK    3  A    between atoms: O_3  and  C_4
REMARK    4  A    between atoms: C_8  and  O_10
REMARK    5  A    between atoms: C_16  and  O_18
REMARK    6  A    between atoms: C_19  and  C_21
REMARK                            x       y       z     vdW  Elec       q    Type
REMARK                         _______ _______ _______ _____ _____    ______ ____
ROOT
ATOM      1  C   LIG A   1      -9.424   6.038 130.548  0.00  0.00    +0.074 C 
ATOM      2  C   LIG A   1      -8.315   6.585 131.072  0.00  0.00    +0.201 C 
ATOM      3  O   LIG A   1      -7.779   6.280 132.299  0.00  0.00    -0.470 OA
ATOM      4  C   LIG A   1      -8.675   5.621 133.196  0.00  0.00    +0.308 C 
ATOM      5  C   LIG A   1      -9.460   4.486 132.546  0.00  0.00    +0.071 C 
ATOM      6  C   LIG A   1     -10.179   4.939 131.254  0.00  0.00    +0.041 C 
ATOM      7  C   LIG A   1     -10.295   3.651 130.399  0.00  0.00    +0.040 C 
ATOM      8  C   LIG A   1      -9.590   2.542 131.181  0.00  0.00    +0.118 C 
ATOM      9  C   LIG A   1      -8.605   3.293 132.079  0.00  0.00    +0.024 C 
ATOM     10  C   LIG A   1      -8.041   2.461 133.222  0.00  0.00    +0.010 C 
ENDROOT
BRANCH   1  12
ATOM     11  O   LIG A   1      -9.602   6.077 128.152  0.00  0.00    -0.245 OA
ATOM     12  C   LIG A   1      -9.889   6.562 129.233  0.00  0.00    +0.338 C 
BRANCH  12  13
ATOM     13  O   LIG A   1     -10.670   7.651 129.443  0.00  0.00    -0.465 OA
ATOM     14  C   LIG A   1     -10.836   8.511 128.315  0.00  0.00    +0.280 C 
ENDBRANCH  12  13
ENDBRANCH   1  12
BRANCH   4  15
ATOM     15  O   LIG A   1      -9.590   6.568 133.740  0.00  0.00    -0.357 OA
ATOM     16  H   LIG A   1     -10.460   6.139 133.680  0.00  0.00    +0.213 HD
ENDBRANCH   4  15
BRANCH   8  17
ATOM     17  O   LIG A   1     -10.562   1.841 131.947  0.00  0.00    -0.392 OA
ATOM     18  H   LIG A   1     -10.254   1.823 132.870  0.00  0.00    +0.210 HD
ENDBRANCH   8  17
TORSDOF 4
ENDMDL
MODEL 5
REMARK VINA RESULT:      -5.3      8.941     10.834
REMARK  Name = NuBBE_333
REMARK  6 active torsions:
REMARK  status: ('A' for Active; 'I' for Inactive)
REMARK    1  A    between atoms: C_2  and  O_3
REMARK    2  A    between atoms: C_2  and  C_5
REMARK    3  A    between atoms: O_3  and  C_4
REMARK    4  A    between atoms: C_8  and  O_10
REMARK    5  A    between atoms: C_16  and  O_18
REMARK    6  A    between atoms: C_19  and  C_21
REMARK                            x       y       z     vdW  Elec       q    Type
REMARK                         _______ _______ _______ _____ _____    ______ ____
ROOT
ATOM      1  C   LIG A   1      -8.976  -0.893 124.983  0.00  0.00    +0.074 C 
ATOM      2  C   LIG A   1      -9.312  -1.788 125.926  0.00  0.00    +0.201 C 
ATOM      3  O   LIG A   1      -9.133  -3.146 125.837  0.00  0.00    -0.470 OA
ATOM      4  C   LIG A   1      -8.922  -3.636 124.512  0.00  0.00    +0.308 C 
ATOM      5  C   LIG A   1      -7.920  -2.809 123.711  0.00  0.00    +0.071 C 
ATOM      6  C   LIG A   1      -8.274  -1.304 123.712  0.00  0.00    +0.041 C 
ATOM      7  C   LIG A   1      -6.914  -0.583 123.523  0.00  0.00    +0.040 C 
ATOM      8  C   LIG A   1      -5.842  -1.673 123.493  0.00  0.00    +0.118 C 
ATOM      9  C   LIG A   1      -6.479  -2.838 124.253  0.00  0.00    +0.024 C 
ATOM     10  C   LIG A   1      -5.777  -4.174 124.052  0.00  0.00    +0.010 C 
ENDROOT
BRANCH   1  12
ATOM     11  O   LIG A   1      -8.881   1.205 126.150  0.00  0.00    -0.245 OA
ATOM     12  C   LIG A   1      -9.326   0.532 125.236  0.00  0.00    +0.338 C 
BRANCH  12  13
ATOM     13  O   LIG A   1     -10.209   0.944 124.292  0.00  0.00    -0.465 OA
ATOM     14  C   LIG A   1      -9.698   1.882 123.344  0.00  0.00    +0.280 C 
ENDBRANCH  12  13
ENDBRANCH   1  12
BRANCH   4  15
ATOM     15  O   LIG A   1     -10.161  -3.672 123.811  0.00  0.00    -0.357 OA
ATOM     16  H   LIG A   1     -10.761  -3.115 124.335  0.00  0.00    +0.213 HD
ENDBRANCH   4  15
BRANCH   8  17
ATOM     17  O   LIG A   1      -5.583  -2.016 122.136  0.00  0.00    -0.392 OA
ATOM     18  H   LIG A   1      -6.439  -2.058 121.675  0.00  0.00    +0.210 HD
ENDBRANCH   8  17
TORSDOF 4
ENDMDL
MODEL 6
REMARK VINA RESULT:      -5.3      8.124      9.159
REMARK  Name = NuBBE_333
REMARK  6 active torsions:
REMARK  status: ('A' for Active; 'I' for Inactive)
REMARK    1  A    between atoms: C_2  and  O_3
REMARK    2  A    between atoms: C_2  and  C_5
REMARK    3  A    between atoms: O_3  and  C_4
REMARK    4  A    between atoms: C_8  and  O_10
REMARK    5  A    between atoms: C_16  and  O_18
REMARK    6  A    between atoms: C_19  and  C_21
REMARK                            x       y       z     vdW  Elec       q    Type
REMARK                         _______ _______ _______ _____ _____    ______ ____
ROOT
ATOM      1  C   LIG A   1      -8.708  -0.342 124.055  0.00  0.00    +0.074 C 
ATOM      2  C   LIG A   1      -9.520  -0.778 123.079  0.00  0.00    +0.201 C 
ATOM      3  O   LIG A   1     -10.336   0.011 122.308  0.00  0.00    -0.470 OA
ATOM      4  C   LIG A   1     -10.592   1.310 122.844  0.00  0.00    +0.308 C 
ATOM      5  C   LIG A   1      -9.341   2.009 123.368  0.00  0.00    +0.071 C 
ATOM      6  C   LIG A   1      -8.554   1.127 124.363  0.00  0.00    +0.041 C 
ATOM      7  C   LIG A   1      -7.087   1.611 124.238  0.00  0.00    +0.040 C 
ATOM      8  C   LIG A   1      -7.071   2.682 123.146  0.00  0.00    +0.118 C 
ATOM      9  C   LIG A   1      -8.296   2.354 122.291  0.00  0.00    +0.024 C 
ATOM     10  C   LIG A   1      -8.726   3.477 121.358  0.00  0.00    +0.010 C 
ENDROOT
BRANCH   1  12
ATOM     11  O   LIG A   1      -7.849  -1.376 126.048  0.00  0.00    -0.245 OA
ATOM     12  C   LIG A   1      -7.960  -1.368 124.833  0.00  0.00    +0.338 C 
BRANCH  12  13
ATOM     13  O   LIG A   1      -7.432  -2.276 123.974  0.00  0.00    -0.465 OA
ATOM     14  C   LIG A   1      -7.508  -3.637 124.399  0.00  0.00    +0.280 C 
ENDBRANCH  12  13
ENDBRANCH   1  12
BRANCH   4  15
ATOM     15  O   LIG A   1     -11.546   1.213 123.897  0.00  0.00    -0.357 OA
ATOM     16  H   LIG A   1     -11.307   0.404 124.379  0.00  0.00    +0.213 HD
ENDBRANCH   4  15
BRANCH   8  17
ATOM     17  O   LIG A   1      -7.193   3.958 123.763  0.00  0.00    -0.392 OA
ATOM     18  H   LIG A   1      -6.837   4.620 123.145  0.00  0.00    +0.210 HD
ENDBRANCH   8  17
TORSDOF 4
ENDMDL
MODEL 7
REMARK VINA RESULT:      -5.1      8.140      9.850
REMARK  Name = NuBBE_333
REMARK  6 active torsions:
REMARK  status: ('A' for Active; 'I' for Inactive)
REMARK    1  A    between atoms: C_2  and  O_3
REMARK    2  A    between atoms: C_2  and  C_5
REMARK    3  A    between atoms: O_3  and  C_4
REMARK    4  A    between atoms: C_8  and  O_10
REMARK    5  A    between atoms: C_16  and  O_18
REMARK    6  A    between atoms: C_19  and  C_21
REMARK                            x       y       z     vdW  Elec       q    Type
REMARK                         _______ _______ _______ _____ _____    ______ ____
ROOT
ATOM      1  C   LIG A   1      -8.553   0.731 123.525  0.00  0.00    +0.074 C 
ATOM      2  C   LIG A   1      -9.632   0.258 122.882  0.00  0.00    +0.201 C 
ATOM      3  O   LIG A   1     -10.011  -1.060 122.822  0.00  0.00    -0.470 OA
ATOM      4  C   LIG A   1      -8.983  -1.994 123.155  0.00  0.00    +0.308 C 
ATOM      5  C   LIG A   1      -8.199  -1.614 124.408  0.00  0.00    +0.071 C 
ATOM      6  C   LIG A   1      -7.655  -0.168 124.339  0.00  0.00    +0.041 C 
ATOM      7  C   LIG A   1      -7.548   0.279 125.820  0.00  0.00    +0.040 C 
ATOM      8  C   LIG A   1      -8.090  -0.874 126.666  0.00  0.00    +0.118 C 
ATOM      9  C   LIG A   1      -9.019  -1.626 125.711  0.00  0.00    +0.024 C 
ATOM     10  C   LIG A   1      -9.400  -3.022 126.181  0.00  0.00    +0.010 C 
ENDROOT
BRANCH   1  12
ATOM     11  O   LIG A   1      -8.943   3.072 123.904  0.00  0.00    -0.245 OA
ATOM     12  C   LIG A   1      -8.268   2.188 123.404  0.00  0.00    +0.338 C 
BRANCH  12  13
ATOM     13  O   LIG A   1      -7.149   2.359 122.655  0.00  0.00    -0.465 OA
ATOM     14  C   LIG A   1      -6.329   3.467 123.025  0.00  0.00    +0.280 C 
ENDBRANCH  12  13
ENDBRANCH   1  12
BRANCH   4  15
ATOM     15  O   LIG A   1      -8.079  -2.120 122.061  0.00  0.00    -0.357 OA
ATOM     16  H   LIG A   1      -7.436  -1.402 122.183  0.00  0.00    +0.213 HD
ENDBRANCH   4  15
BRANCH   8  17
ATOM     17  O   LIG A   1      -6.996  -1.686 127.076  0.00  0.00    -0.392 OA
ATOM     18  H   LIG A   1      -6.216  -1.111 127.158  0.00  0.00    +0.210 HD
ENDBRANCH   8  17
TORSDOF 4
ENDMDL
MODEL 8
REMARK VINA RESULT:      -5.0      7.306      8.857
REMARK  Name = NuBBE_333
REMARK  6 active torsions:
REMARK  status: ('A' for Active; 'I' for Inactive)
REMARK    1  A    between atoms: C_2  and  O_3
REMARK    2  A    between atoms: C_2  and  C_5
REMARK    3  A    between atoms: O_3  and  C_4
REMARK    4  A    between atoms: C_8  and  O_10
REMARK    5  A    between atoms: C_16  and  O_18
REMARK    6  A    between atoms: C_19  and  C_21
REMARK                            x       y       z     vdW  Elec       q    Type
REMARK                         _______ _______ _______ _____ _____    ______ ____
ROOT
ATOM      1  C   LIG A   1      -7.165   3.375 122.109  0.00  0.00    +0.074 C 
ATOM      2  C   LIG A   1      -8.475   3.088 122.165  0.00  0.00    +0.201 C 
ATOM      3  O   LIG A   1      -9.138   2.598 123.262  0.00  0.00    -0.470 OA
ATOM      4  C   LIG A   1      -8.296   2.024 124.263  0.00  0.00    +0.308 C 
ATOM      5  C   LIG A   1      -7.071   2.874 124.588  0.00  0.00    +0.071 C 
ATOM      6  C   LIG A   1      -6.272   3.252 123.320  0.00  0.00    +0.041 C 
ATOM      7  C   LIG A   1      -5.573   4.587 123.683  0.00  0.00    +0.040 C 
ATOM      8  C   LIG A   1      -6.042   4.959 125.090  0.00  0.00    +0.118 C 
ATOM      9  C   LIG A   1      -7.383   4.237 125.234  0.00  0.00    +0.024 C 
ATOM     10  C   LIG A   1      -7.888   4.133 126.666  0.00  0.00    +0.010 C 
ENDROOT
BRANCH   1  12
ATOM     11  O   LIG A   1      -5.433   3.830 120.506  0.00  0.00    -0.245 OA
ATOM     12  C   LIG A   1      -6.617   3.822 120.798  0.00  0.00    +0.338 C 
BRANCH  12  13
ATOM     13  O   LIG A   1      -7.643   4.213 120.000  0.00  0.00    -0.465 OA
ATOM     14  C   LIG A   1      -7.276   4.588 118.672  0.00  0.00    +0.280 C 
ENDBRANCH  12  13
ENDBRANCH   1  12
BRANCH   4  15
ATOM     15  O   LIG A   1      -7.868   0.732 123.845  0.00  0.00    -0.357 OA
ATOM     16  H   LIG A   1      -7.671   0.827 122.899  0.00  0.00    +0.213 HD
ENDBRANCH   4  15
BRANCH   8  17
ATOM     17  O   LIG A   1      -5.087   4.475 126.027  0.00  0.00    -0.392 OA
ATOM     18  H   LIG A   1      -5.116   3.502 126.002  0.00  0.00    +0.210 HD
ENDBRANCH   8  17
TORSDOF 4
ENDMDL
MODEL 9
REMARK VINA RESULT:      -5.0      7.943      9.707
REMARK  Name = NuBBE_333
REMARK  6 active torsions:
REMARK  status: ('A' for Active; 'I' for Inactive)
REMARK    1  A    between atoms: C_2  and  O_3
REMARK    2  A    between atoms: C_2  and  C_5
REMARK    3  A    between atoms: O_3  and  C_4
REMARK    4  A    between atoms: C_8  and  O_10
REMARK    5  A    between atoms: C_16  and  O_18
REMARK    6  A    between atoms: C_19  and  C_21
REMARK                            x       y       z     vdW  Elec       q    Type
REMARK                         _______ _______ _______ _____ _____    ______ ____
ROOT
ATOM      1  C   LIG A   1      -7.978  -1.842 125.568  0.00  0.00    +0.074 C 
ATOM      2  C   LIG A   1      -6.693  -2.055 125.241  0.00  0.00    +0.201 C 
ATOM      3  O   LIG A   1      -6.015  -1.428 124.226  0.00  0.00    -0.470 OA
ATOM      4  C   LIG A   1      -6.847  -0.800 123.249  0.00  0.00    +0.308 C 
ATOM      5  C   LIG A   1      -7.982   0.019 123.854  0.00  0.00    +0.071 C 
ATOM      6  C   LIG A   1      -8.814  -0.798 124.869  0.00  0.00    +0.041 C 
ATOM      7  C   LIG A   1      -9.386   0.260 125.847  0.00  0.00    +0.040 C 
ATOM      8  C   LIG A   1      -8.817   1.611 125.412  0.00  0.00    +0.118 C 
ATOM      9  C   LIG A   1      -7.531   1.247 124.668  0.00  0.00    +0.024 C 
ATOM     10  C   LIG A   1      -6.963   2.371 123.813  0.00  0.00    +0.010 C 
ENDROOT
BRANCH   1  12
ATOM     11  O   LIG A   1      -9.611  -3.287 126.577  0.00  0.00    -0.245 OA
ATOM     12  C   LIG A   1      -8.556  -2.682 126.654  0.00  0.00    +0.338 C 
BRANCH  12  13
ATOM     13  O   LIG A   1      -7.721  -2.657 127.724  0.00  0.00    -0.465 OA
ATOM     14  C   LIG A   1      -8.262  -3.189 128.934  0.00  0.00    +0.280 C 
ENDBRANCH  12  13
ENDBRANCH   1  12
BRANCH   4  15
ATOM     15  O   LIG A   1      -7.396  -1.788 122.382  0.00  0.00    -0.357 OA
ATOM     16  H   LIG A   1      -6.644  -2.351 122.134  0.00  0.00    +0.213 HD
ENDBRANCH   4  15
BRANCH   8  17
ATOM     17  O   LIG A   1      -9.757   2.241 124.550  0.00  0.00    -0.392 OA
ATOM     18  H   LIG A   1     -10.640   1.900 124.777  0.00  0.00    +0.210 HD
ENDBRANCH   8  17
TORSDOF 4
ENDMDL
