MODEL 1
REMARK VINA RESULT:      -6.5      0.000      0.000
REMARK  Name = NuBBE_1594
REMARK  14 active torsions:
REMARK  status: ('A' for Active; 'I' for Inactive)
REMARK    1  A    between atoms: C_1  and  C_3
REMARK    2  A    between atoms: C_4  and  C_5
REMARK    3  A    between atoms: C_6  and  C_7
REMARK    4  A    between atoms: C_7  and  C_8
REMARK    5  A    between atoms: C_8  and  C_9
REMARK    6  A    between atoms: C_10  and  C_11
REMARK    7  A    between atoms: C_11  and  C_12
REMARK    8  A    between atoms: C_12  and  C_13
REMARK    9  A    between atoms: C_13  and  C_14
REMARK   10  A    between atoms: C_14  and  C_15
REMARK   11  A    between atoms: N_16  and  C_17
REMARK   12  A    between atoms: C_17  and  C_18
REMARK   13  A    between atoms: C_18  and  C_19
REMARK   14  A    between atoms: C_18  and  C_20
REMARK                            x       y       z     vdW  Elec       q    Type
REMARK                         _______ _______ _______ _____ _____    ______ ____
ROOT
ATOM      1  C   LIG A   1      -8.150  -2.855 128.214  0.00  0.00    -0.004 C 
ATOM      2  C   LIG A   1      -8.930  -3.537 127.361  0.00  0.00    -0.026 C 
ENDROOT
BRANCH   1   4
ATOM      3  C   LIG A   1      -6.441  -3.738 129.721  0.00  0.00    +0.067 C 
ATOM      4  C   LIG A   1      -7.717  -3.384 129.490  0.00  0.00    +0.005 C 
BRANCH   3   5
ATOM      5  C   LIG A   1      -5.985  -4.184 131.062  0.00  0.00    +0.237 C 
ATOM      6  O   LIG A   1      -5.397  -5.247 131.242  0.00  0.00    -0.271 OA
ATOM      7  N   LIG A   1      -6.319  -3.292 132.053  0.00  0.00    -0.312 N 
ATOM      8  H   LIG A   1      -6.849  -2.466 131.809  0.00  0.00    +0.149 HD
BRANCH   7   9
ATOM      9  C   LIG A   1      -6.059  -3.523 133.464  0.00  0.00    +0.107 C 
BRANCH   9  10
ATOM     10  C   LIG A   1      -7.178  -4.321 134.155  0.00  0.00    +0.000 C 
ATOM     11  C   LIG A   1      -6.639  -5.537 134.915  0.00  0.00    +0.009 C 
ATOM     12  C   LIG A   1      -7.936  -3.403 135.118  0.00  0.00    +0.009 C 
ENDBRANCH   9  10
ENDBRANCH   7   9
ENDBRANCH   3   5
ENDBRANCH   1   4
BRANCH   2  13
ATOM     13  C   LIG A   1      -9.371  -3.014 126.019  0.00  0.00    +0.031 C 
BRANCH  13  14
ATOM     14  C   LIG A   1      -8.729  -3.738 124.823  0.00  0.00    +0.031 C 
BRANCH  14  15
ATOM     15  C   LIG A   1      -9.186  -3.206 123.490  0.00  0.00    -0.031 C 
ATOM     16  C   LIG A   1      -8.634  -2.217 122.770  0.00  0.00    -0.031 C 
BRANCH  16  17
ATOM     17  C   LIG A   1      -7.439  -1.381 123.135  0.00  0.00    +0.027 C 
BRANCH  17  18
ATOM     18  C   LIG A   1      -6.112  -1.998 122.687  0.00  0.00    +0.004 C 
BRANCH  18  19
ATOM     19  C   LIG A   1      -5.207  -2.466 123.832  0.00  0.00    +0.000 C 
BRANCH  19  20
ATOM     20  C   LIG A   1      -5.288  -3.980 124.058  0.00  0.00    -0.003 C 
ATOM     21  C   LIG A   1      -4.089  -4.729 123.494  0.00  0.00    +0.004 C 
ENDBRANCH  19  20
ENDBRANCH  18  19
ENDBRANCH  17  18
ENDBRANCH  16  17
ENDBRANCH  14  15
ENDBRANCH  13  14
ENDBRANCH   2  13
TORSDOF 11
ENDMDL
MODEL 2
REMARK VINA RESULT:      -6.5      4.677      6.288
REMARK  Name = NuBBE_1594
REMARK  14 active torsions:
REMARK  status: ('A' for Active; 'I' for Inactive)
REMARK    1  A    between atoms: C_1  and  C_3
REMARK    2  A    between atoms: C_4  and  C_5
REMARK    3  A    between atoms: C_6  and  C_7
REMARK    4  A    between atoms: C_7  and  C_8
REMARK    5  A    between atoms: C_8  and  C_9
REMARK    6  A    between atoms: C_10  and  C_11
REMARK    7  A    between atoms: C_11  and  C_12
REMARK    8  A    between atoms: C_12  and  C_13
REMARK    9  A    between atoms: C_13  and  C_14
REMARK   10  A    between atoms: C_14  and  C_15
REMARK   11  A    between atoms: N_16  and  C_17
REMARK   12  A    between atoms: C_17  and  C_18
REMARK   13  A    between atoms: C_18  and  C_19
REMARK   14  A    between atoms: C_18  and  C_20
REMARK                            x       y       z     vdW  Elec       q    Type
REMARK                         _______ _______ _______ _____ _____    ______ ____
ROOT
ATOM      1  C   LIG A   1      -6.376  -1.779 127.220  0.00  0.00    -0.004 C 
ATOM      2  C   LIG A   1      -7.489  -1.799 127.970  0.00  0.00    -0.026 C 
ENDROOT
BRANCH   1   4
ATOM      3  C   LIG A   1      -6.069   0.349 126.061  0.00  0.00    +0.067 C 
ATOM      4  C   LIG A   1      -5.631  -0.571 126.937  0.00  0.00    +0.005 C 
BRANCH   3   5
ATOM      5  C   LIG A   1      -5.350   1.632 125.851  0.00  0.00    +0.237 C 
ATOM      6  O   LIG A   1      -5.775   2.516 125.112  0.00  0.00    -0.271 OA
ATOM      7  N   LIG A   1      -4.170   1.692 126.552  0.00  0.00    -0.312 N 
ATOM      8  H   LIG A   1      -3.882   0.890 127.096  0.00  0.00    +0.149 HD
BRANCH   7   9
ATOM      9  C   LIG A   1      -3.237   2.803 126.463  0.00  0.00    +0.107 C 
BRANCH   9  10
ATOM     10  C   LIG A   1      -2.780   3.311 127.842  0.00  0.00    +0.000 C 
ATOM     11  C   LIG A   1      -2.632   4.835 127.879  0.00  0.00    +0.009 C 
ATOM     12  C   LIG A   1      -3.784   2.862 128.907  0.00  0.00    +0.009 C 
ENDBRANCH   9  10
ENDBRANCH   7   9
ENDBRANCH   3   5
ENDBRANCH   1   4
BRANCH   2  13
ATOM     13  C   LIG A   1      -8.264  -3.049 128.296  0.00  0.00    +0.031 C 
BRANCH  13  14
ATOM     14  C   LIG A   1      -8.712  -3.849 127.061  0.00  0.00    +0.031 C 
BRANCH  14  15
ATOM     15  C   LIG A   1      -9.451  -3.015 126.048  0.00  0.00    -0.031 C 
ATOM     16  C   LIG A   1      -9.128  -2.811 124.761  0.00  0.00    -0.031 C 
BRANCH  16  17
ATOM     17  C   LIG A   1      -7.932  -3.348 124.025  0.00  0.00    +0.027 C 
BRANCH  17  18
ATOM     18  C   LIG A   1      -7.064  -2.252 123.404  0.00  0.00    +0.004 C 
BRANCH  18  19
ATOM     19  C   LIG A   1      -5.554  -2.463 123.572  0.00  0.00    +0.000 C 
BRANCH  19  20
ATOM     20  C   LIG A   1      -5.224  -3.791 124.263  0.00  0.00    -0.003 C 
ATOM     21  C   LIG A   1      -4.222  -4.632 123.485  0.00  0.00    +0.004 C 
ENDBRANCH  19  20
ENDBRANCH  18  19
ENDBRANCH  17  18
ENDBRANCH  16  17
ENDBRANCH  14  15
ENDBRANCH  13  14
ENDBRANCH   2  13
TORSDOF 11
ENDMDL
MODEL 3
REMARK VINA RESULT:      -6.4     10.592     12.218
REMARK  Name = NuBBE_1594
REMARK  14 active torsions:
REMARK  status: ('A' for Active; 'I' for Inactive)
REMARK    1  A    between atoms: C_1  and  C_3
REMARK    2  A    between atoms: C_4  and  C_5
REMARK    3  A    between atoms: C_6  and  C_7
REMARK    4  A    between atoms: C_7  and  C_8
REMARK    5  A    between atoms: C_8  and  C_9
REMARK    6  A    between atoms: C_10  and  C_11
REMARK    7  A    between atoms: C_11  and  C_12
REMARK    8  A    between atoms: C_12  and  C_13
REMARK    9  A    between atoms: C_13  and  C_14
REMARK   10  A    between atoms: C_14  and  C_15
REMARK   11  A    between atoms: N_16  and  C_17
REMARK   12  A    between atoms: C_17  and  C_18
REMARK   13  A    between atoms: C_18  and  C_19
REMARK   14  A    between atoms: C_18  and  C_20
REMARK                            x       y       z     vdW  Elec       q    Type
REMARK                         _______ _______ _______ _____ _____    ______ ____
ROOT
ATOM      1  C   LIG A   1      -7.578   6.430 131.537  0.00  0.00    -0.004 C 
ATOM      2  C   LIG A   1      -6.460   7.008 131.072  0.00  0.00    -0.026 C 
ENDROOT
BRANCH   1   4
ATOM      3  C   LIG A   1     -10.016   6.345 131.679  0.00  0.00    +0.067 C 
ATOM      4  C   LIG A   1      -8.902   6.756 131.050  0.00  0.00    +0.005 C 
BRANCH   3   5
ATOM      5  C   LIG A   1     -11.368   6.767 131.229  0.00  0.00    +0.237 C 
ATOM      6  O   LIG A   1     -12.397   6.382 131.775  0.00  0.00    -0.271 OA
ATOM      7  N   LIG A   1     -11.320   7.602 130.139  0.00  0.00    -0.312 N 
ATOM      8  H   LIG A   1     -10.422   7.823 129.730  0.00  0.00    +0.149 HD
BRANCH   7   9
ATOM      9  C   LIG A   1     -12.502   8.099 129.454  0.00  0.00    +0.107 C 
BRANCH   9  10
ATOM     10  C   LIG A   1     -12.289   8.264 127.939  0.00  0.00    +0.000 C 
ATOM     11  C   LIG A   1     -10.807   8.223 127.554  0.00  0.00    +0.009 C 
ATOM     12  C   LIG A   1     -13.049   7.163 127.197  0.00  0.00    +0.009 C 
ENDBRANCH   9  10
ENDBRANCH   7   9
ENDBRANCH   3   5
ENDBRANCH   1   4
BRANCH   2  13
ATOM     13  C   LIG A   1      -5.072   6.666 131.548  0.00  0.00    +0.031 C 
BRANCH  13  14
ATOM     14  C   LIG A   1      -3.965   7.538 130.930  0.00  0.00    +0.031 C 
BRANCH  14  15
ATOM     15  C   LIG A   1      -2.611   6.878 130.947  0.00  0.00    -0.031 C 
ATOM     16  C   LIG A   1      -1.903   6.434 129.897  0.00  0.00    -0.031 C 
BRANCH  16  17
ATOM     17  C   LIG A   1      -2.305   6.464 128.449  0.00  0.00    +0.027 C 
BRANCH  17  18
ATOM     18  C   LIG A   1      -2.592   5.075 127.873  0.00  0.00    +0.004 C 
BRANCH  18  19
ATOM     19  C   LIG A   1      -4.043   4.856 127.430  0.00  0.00    +0.000 C 
BRANCH  19  20
ATOM     20  C   LIG A   1      -4.974   4.559 128.611  0.00  0.00    -0.003 C 
ATOM     21  C   LIG A   1      -4.395   3.539 129.581  0.00  0.00    +0.004 C 
ENDBRANCH  19  20
ENDBRANCH  18  19
ENDBRANCH  17  18
ENDBRANCH  16  17
ENDBRANCH  14  15
ENDBRANCH  13  14
ENDBRANCH   2  13
TORSDOF 11
ENDMDL
MODEL 4
REMARK VINA RESULT:      -6.3      1.636      2.009
REMARK  Name = NuBBE_1594
REMARK  14 active torsions:
REMARK  status: ('A' for Active; 'I' for Inactive)
REMARK    1  A    between atoms: C_1  and  C_3
REMARK    2  A    between atoms: C_4  and  C_5
REMARK    3  A    between atoms: C_6  and  C_7
REMARK    4  A    between atoms: C_7  and  C_8
REMARK    5  A    between atoms: C_8  and  C_9
REMARK    6  A    between atoms: C_10  and  C_11
REMARK    7  A    between atoms: C_11  and  C_12
REMARK    8  A    between atoms: C_12  and  C_13
REMARK    9  A    between atoms: C_13  and  C_14
REMARK   10  A    between atoms: C_14  and  C_15
REMARK   11  A    between atoms: N_16  and  C_17
REMARK   12  A    between atoms: C_17  and  C_18
REMARK   13  A    between atoms: C_18  and  C_19
REMARK   14  A    between atoms: C_18  and  C_20
REMARK                            x       y       z     vdW  Elec       q    Type
REMARK                         _______ _______ _______ _____ _____    ______ ____
ROOT
ATOM      1  C   LIG A   1      -6.787  -2.382 127.410  0.00  0.00    -0.004 C 
ATOM      2  C   LIG A   1      -8.082  -2.721 127.309  0.00  0.00    -0.026 C 
ENDROOT
BRANCH   1   4
ATOM      3  C   LIG A   1      -4.655  -2.785 128.533  0.00  0.00    +0.067 C 
ATOM      4  C   LIG A   1      -5.990  -2.638 128.591  0.00  0.00    +0.005 C 
BRANCH   3   5
ATOM      5  C   LIG A   1      -3.834  -2.946 129.760  0.00  0.00    +0.237 C 
ATOM      6  O   LIG A   1      -2.678  -2.540 129.841  0.00  0.00    -0.271 OA
ATOM      7  N   LIG A   1      -4.505  -3.612 130.757  0.00  0.00    -0.312 N 
ATOM      8  H   LIG A   1      -5.441  -3.952 130.575  0.00  0.00    +0.149 HD
BRANCH   7   9
ATOM      9  C   LIG A   1      -3.905  -3.970 132.031  0.00  0.00    +0.107 C 
BRANCH   9  10
ATOM     10  C   LIG A   1      -4.935  -4.061 133.172  0.00  0.00    +0.000 C 
ATOM     11  C   LIG A   1      -6.351  -3.717 132.703  0.00  0.00    +0.009 C 
ATOM     12  C   LIG A   1      -4.913  -5.473 133.763  0.00  0.00    +0.009 C 
ENDBRANCH   9  10
ENDBRANCH   7   9
ENDBRANCH   3   5
ENDBRANCH   1   4
BRANCH   2  13
ATOM     13  C   LIG A   1      -8.922  -2.485 126.081  0.00  0.00    +0.031 C 
BRANCH  13  14
ATOM     14  C   LIG A   1      -8.740  -3.549 124.984  0.00  0.00    +0.031 C 
BRANCH  14  15
ATOM     15  C   LIG A   1      -9.231  -3.101 123.633  0.00  0.00    -0.031 C 
ATOM     16  C   LIG A   1      -8.687  -2.175 122.828  0.00  0.00    -0.031 C 
BRANCH  16  17
ATOM     17  C   LIG A   1      -7.465  -1.341 123.095  0.00  0.00    +0.027 C 
BRANCH  17  18
ATOM     18  C   LIG A   1      -6.160  -2.040 122.706  0.00  0.00    +0.004 C 
BRANCH  18  19
ATOM     19  C   LIG A   1      -5.286  -2.464 123.891  0.00  0.00    +0.000 C 
BRANCH  19  20
ATOM     20  C   LIG A   1      -5.303  -3.981 124.115  0.00  0.00    -0.003 C 
ATOM     21  C   LIG A   1      -4.104  -4.686 123.496  0.00  0.00    +0.004 C 
ENDBRANCH  19  20
ENDBRANCH  18  19
ENDBRANCH  17  18
ENDBRANCH  16  17
ENDBRANCH  14  15
ENDBRANCH  13  14
ENDBRANCH   2  13
TORSDOF 11
ENDMDL
MODEL 5
REMARK VINA RESULT:      -6.1      9.529     12.350
REMARK  Name = NuBBE_1594
REMARK  14 active torsions:
REMARK  status: ('A' for Active; 'I' for Inactive)
REMARK    1  A    between atoms: C_1  and  C_3
REMARK    2  A    between atoms: C_4  and  C_5
REMARK    3  A    between atoms: C_6  and  C_7
REMARK    4  A    between atoms: C_7  and  C_8
REMARK    5  A    between atoms: C_8  and  C_9
REMARK    6  A    between atoms: C_10  and  C_11
REMARK    7  A    between atoms: C_11  and  C_12
REMARK    8  A    between atoms: C_12  and  C_13
REMARK    9  A    between atoms: C_13  and  C_14
REMARK   10  A    between atoms: C_14  and  C_15
REMARK   11  A    between atoms: N_16  and  C_17
REMARK   12  A    between atoms: C_17  and  C_18
REMARK   13  A    between atoms: C_18  and  C_19
REMARK   14  A    between atoms: C_18  and  C_20
REMARK                            x       y       z     vdW  Elec       q    Type
REMARK                         _______ _______ _______ _____ _____    ______ ____
ROOT
ATOM      1  C   LIG A   1      -8.404   6.250 132.225  0.00  0.00    -0.004 C 
ATOM      2  C   LIG A   1      -7.157   6.353 131.739  0.00  0.00    -0.026 C 
ENDROOT
BRANCH   1   4
ATOM      3  C   LIG A   1     -10.827   6.319 131.924  0.00  0.00    +0.067 C 
ATOM      4  C   LIG A   1      -9.589   6.478 131.426  0.00  0.00    +0.005 C 
BRANCH   3   5
ATOM      5  C   LIG A   1     -12.037   6.652 131.128  0.00  0.00    +0.237 C 
ATOM      6  O   LIG A   1     -13.082   7.040 131.643  0.00  0.00    -0.271 OA
ATOM      7  N   LIG A   1     -11.850   6.452 129.782  0.00  0.00    -0.312 N 
ATOM      8  H   LIG A   1     -10.966   6.082 129.460  0.00  0.00    +0.149 HD
BRANCH   7   9
ATOM      9  C   LIG A   1     -12.897   6.628 128.789  0.00  0.00    +0.107 C 
BRANCH   9  10
ATOM     10  C   LIG A   1     -12.558   7.707 127.747  0.00  0.00    +0.000 C 
ATOM     11  C   LIG A   1     -11.249   8.434 128.070  0.00  0.00    +0.009 C 
ATOM     12  C   LIG A   1     -12.465   7.064 126.361  0.00  0.00    +0.009 C 
ENDBRANCH   9  10
ENDBRANCH   7   9
ENDBRANCH   3   5
ENDBRANCH   1   4
BRANCH   2  13
ATOM     13  C   LIG A   1      -5.912   6.096 132.548  0.00  0.00    +0.031 C 
BRANCH  13  14
ATOM     14  C   LIG A   1      -5.369   4.662 132.422  0.00  0.00    +0.031 C 
BRANCH  14  15
ATOM     15  C   LIG A   1      -5.256   3.951 133.744  0.00  0.00    -0.031 C 
ATOM     16  C   LIG A   1      -6.250   3.438 134.487  0.00  0.00    -0.031 C 
BRANCH  16  17
ATOM     17  C   LIG A   1      -7.722   3.474 134.188  0.00  0.00    +0.027 C 
BRANCH  17  18
ATOM     18  C   LIG A   1      -8.166   2.385 133.208  0.00  0.00    +0.004 C 
BRANCH  18  19
ATOM     19  C   LIG A   1      -9.450   2.708 132.434  0.00  0.00    +0.000 C 
BRANCH  19  20
ATOM     20  C   LIG A   1      -9.323   2.394 130.939  0.00  0.00    -0.003 C 
ATOM     21  C   LIG A   1      -8.131   3.082 130.287  0.00  0.00    +0.004 C 
ENDBRANCH  19  20
ENDBRANCH  18  19
ENDBRANCH  17  18
ENDBRANCH  16  17
ENDBRANCH  14  15
ENDBRANCH  13  14
ENDBRANCH   2  13
TORSDOF 11
ENDMDL
MODEL 6
REMARK VINA RESULT:      -6.1      1.687      2.343
REMARK  Name = NuBBE_1594
REMARK  14 active torsions:
REMARK  status: ('A' for Active; 'I' for Inactive)
REMARK    1  A    between atoms: C_1  and  C_3
REMARK    2  A    between atoms: C_4  and  C_5
REMARK    3  A    between atoms: C_6  and  C_7
REMARK    4  A    between atoms: C_7  and  C_8
REMARK    5  A    between atoms: C_8  and  C_9
REMARK    6  A    between atoms: C_10  and  C_11
REMARK    7  A    between atoms: C_11  and  C_12
REMARK    8  A    between atoms: C_12  and  C_13
REMARK    9  A    between atoms: C_13  and  C_14
REMARK   10  A    between atoms: C_14  and  C_15
REMARK   11  A    between atoms: N_16  and  C_17
REMARK   12  A    between atoms: C_17  and  C_18
REMARK   13  A    between atoms: C_18  and  C_19
REMARK   14  A    between atoms: C_18  and  C_20
REMARK                            x       y       z     vdW  Elec       q    Type
REMARK                         _______ _______ _______ _____ _____    ______ ____
ROOT
ATOM      1  C   LIG A   1      -8.111  -2.402 127.544  0.00  0.00    -0.004 C 
ATOM      2  C   LIG A   1      -8.622  -3.414 126.825  0.00  0.00    -0.026 C 
ENDROOT
BRANCH   1   4
ATOM      3  C   LIG A   1      -7.246  -3.592 129.494  0.00  0.00    +0.067 C 
ATOM      4  C   LIG A   1      -7.144  -2.591 128.603  0.00  0.00    +0.005 C 
BRANCH   3   5
ATOM      5  C   LIG A   1      -6.196  -3.838 130.516  0.00  0.00    +0.237 C 
ATOM      6  O   LIG A   1      -5.697  -4.945 130.698  0.00  0.00    -0.271 OA
ATOM      7  N   LIG A   1      -5.882  -2.706 131.228  0.00  0.00    -0.312 N 
ATOM      8  H   LIG A   1      -6.386  -1.851 131.035  0.00  0.00    +0.149 HD
BRANCH   7   9
ATOM      9  C   LIG A   1      -4.942  -2.688 132.337  0.00  0.00    +0.107 C 
BRANCH   9  10
ATOM     10  C   LIG A   1      -3.969  -1.499 132.276  0.00  0.00    +0.000 C 
ATOM     11  C   LIG A   1      -2.721  -1.726 133.136  0.00  0.00    +0.009 C 
ATOM     12  C   LIG A   1      -3.558  -1.252 130.822  0.00  0.00    +0.009 C 
ENDBRANCH   9  10
ENDBRANCH   7   9
ENDBRANCH   3   5
ENDBRANCH   1   4
BRANCH   2  13
ATOM     13  C   LIG A   1      -9.610  -3.237 125.702  0.00  0.00    +0.031 C 
BRANCH  13  14
ATOM     14  C   LIG A   1      -9.072  -3.654 124.322  0.00  0.00    +0.031 C 
BRANCH  14  15
ATOM     15  C   LIG A   1      -9.405  -2.669 123.232  0.00  0.00    -0.031 C 
ATOM     16  C   LIG A   1      -8.711  -1.578 122.872  0.00  0.00    -0.031 C 
BRANCH  16  17
ATOM     17  C   LIG A   1      -7.443  -1.060 123.491  0.00  0.00    +0.027 C 
BRANCH  17  18
ATOM     18  C   LIG A   1      -6.186  -1.757 122.966  0.00  0.00    +0.004 C 
BRANCH  18  19
ATOM     19  C   LIG A   1      -5.539  -2.735 123.954  0.00  0.00    +0.000 C 
BRANCH  19  20
ATOM     20  C   LIG A   1      -4.297  -3.417 123.369  0.00  0.00    -0.003 C 
ATOM     21  C   LIG A   1      -4.351  -4.935 123.471  0.00  0.00    +0.004 C 
ENDBRANCH  19  20
ENDBRANCH  18  19
ENDBRANCH  17  18
ENDBRANCH  16  17
ENDBRANCH  14  15
ENDBRANCH  13  14
ENDBRANCH   2  13
TORSDOF 11
ENDMDL
MODEL 7
REMARK VINA RESULT:      -6.0      1.403      2.342
REMARK  Name = NuBBE_1594
REMARK  14 active torsions:
REMARK  status: ('A' for Active; 'I' for Inactive)
REMARK    1  A    between atoms: C_1  and  C_3
REMARK    2  A    between atoms: C_4  and  C_5
REMARK    3  A    between atoms: C_6  and  C_7
REMARK    4  A    between atoms: C_7  and  C_8
REMARK    5  A    between atoms: C_8  and  C_9
REMARK    6  A    between atoms: C_10  and  C_11
REMARK    7  A    between atoms: C_11  and  C_12
REMARK    8  A    between atoms: C_12  and  C_13
REMARK    9  A    between atoms: C_13  and  C_14
REMARK   10  A    between atoms: C_14  and  C_15
REMARK   11  A    between atoms: N_16  and  C_17
REMARK   12  A    between atoms: C_17  and  C_18
REMARK   13  A    between atoms: C_18  and  C_19
REMARK   14  A    between atoms: C_18  and  C_20
REMARK                            x       y       z     vdW  Elec       q    Type
REMARK                         _______ _______ _______ _____ _____    ______ ____
ROOT
ATOM      1  C   LIG A   1      -8.876  -3.431 127.800  0.00  0.00    -0.004 C 
ATOM      2  C   LIG A   1      -8.613  -3.575 126.491  0.00  0.00    -0.026 C 
ENDROOT
BRANCH   1   4
ATOM      3  C   LIG A   1      -6.997  -3.236 129.348  0.00  0.00    +0.067 C 
ATOM      4  C   LIG A   1      -8.018  -3.950 128.843  0.00  0.00    +0.005 C 
BRANCH   3   5
ATOM      5  C   LIG A   1      -6.184  -3.735 130.488  0.00  0.00    +0.237 C 
ATOM      6  O   LIG A   1      -5.644  -4.837 130.483  0.00  0.00    -0.271 OA
ATOM      7  N   LIG A   1      -6.137  -2.840 131.529  0.00  0.00    -0.312 N 
ATOM      8  H   LIG A   1      -6.658  -1.976 131.456  0.00  0.00    +0.149 HD
BRANCH   7   9
ATOM      9  C   LIG A   1      -5.475  -3.111 132.794  0.00  0.00    +0.107 C 
BRANCH   9  10
ATOM     10  C   LIG A   1      -6.450  -3.564 133.894  0.00  0.00    +0.000 C 
ATOM     11  C   LIG A   1      -7.901  -3.193 133.571  0.00  0.00    +0.009 C 
ATOM     12  C   LIG A   1      -6.332  -5.078 134.086  0.00  0.00    +0.009 C 
ENDBRANCH   9  10
ENDBRANCH   7   9
ENDBRANCH   3   5
ENDBRANCH   1   4
BRANCH   2  13
ATOM     13  C   LIG A   1      -9.481  -3.022 125.391  0.00  0.00    +0.031 C 
BRANCH  13  14
ATOM     14  C   LIG A   1      -9.006  -3.390 123.974  0.00  0.00    +0.031 C 
BRANCH  14  15
ATOM     15  C   LIG A   1      -8.395  -2.231 123.232  0.00  0.00    -0.031 C 
ATOM     16  C   LIG A   1      -7.091  -1.958 123.069  0.00  0.00    -0.031 C 
BRANCH  16  17
ATOM     17  C   LIG A   1      -5.923  -2.732 123.615  0.00  0.00    +0.027 C 
BRANCH  17  18
ATOM     18  C   LIG A   1      -5.539  -2.322 125.038  0.00  0.00    +0.004 C 
BRANCH  18  19
ATOM     19  C   LIG A   1      -5.746  -0.835 125.351  0.00  0.00    +0.000 C 
BRANCH  19  20
ATOM     20  C   LIG A   1      -6.439  -0.615 126.701  0.00  0.00    -0.003 C 
ATOM     21  C   LIG A   1      -7.786   0.081 126.569  0.00  0.00    +0.004 C 
ENDBRANCH  19  20
ENDBRANCH  18  19
ENDBRANCH  17  18
ENDBRANCH  16  17
ENDBRANCH  14  15
ENDBRANCH  13  14
ENDBRANCH   2  13
TORSDOF 11
ENDMDL
MODEL 8
REMARK VINA RESULT:      -6.0      3.114      7.515
REMARK  Name = NuBBE_1594
REMARK  14 active torsions:
REMARK  status: ('A' for Active; 'I' for Inactive)
REMARK    1  A    between atoms: C_1  and  C_3
REMARK    2  A    between atoms: C_4  and  C_5
REMARK    3  A    between atoms: C_6  and  C_7
REMARK    4  A    between atoms: C_7  and  C_8
REMARK    5  A    between atoms: C_8  and  C_9
REMARK    6  A    between atoms: C_10  and  C_11
REMARK    7  A    between atoms: C_11  and  C_12
REMARK    8  A    between atoms: C_12  and  C_13
REMARK    9  A    between atoms: C_13  and  C_14
REMARK   10  A    between atoms: C_14  and  C_15
REMARK   11  A    between atoms: N_16  and  C_17
REMARK   12  A    between atoms: C_17  and  C_18
REMARK   13  A    between atoms: C_18  and  C_19
REMARK   14  A    between atoms: C_18  and  C_20
REMARK                            x       y       z     vdW  Elec       q    Type
REMARK                         _______ _______ _______ _____ _____    ______ ____
ROOT
ATOM      1  C   LIG A   1      -8.350  -3.690 129.106  0.00  0.00    -0.004 C 
ATOM      2  C   LIG A   1      -7.849  -2.742 129.913  0.00  0.00    -0.026 C 
ENDROOT
BRANCH   1   4
ATOM      3  C   LIG A   1      -8.587  -2.248 127.149  0.00  0.00    +0.067 C 
ATOM      4  C   LIG A   1      -8.637  -3.470 127.705  0.00  0.00    +0.005 C 
BRANCH   3   5
ATOM      5  C   LIG A   1      -8.784  -2.044 125.690  0.00  0.00    +0.237 C 
ATOM      6  O   LIG A   1      -9.663  -1.318 125.236  0.00  0.00    -0.271 OA
ATOM      7  N   LIG A   1      -7.897  -2.773 124.935  0.00  0.00    -0.312 N 
ATOM      8  H   LIG A   1      -7.240  -3.382 125.404  0.00  0.00    +0.149 HD
BRANCH   7   9
ATOM      9  C   LIG A   1      -7.923  -2.816 123.483  0.00  0.00    +0.107 C 
BRANCH   9  10
ATOM     10  C   LIG A   1      -6.710  -2.118 122.843  0.00  0.00    +0.000 C 
ATOM     11  C   LIG A   1      -6.772  -0.594 122.992  0.00  0.00    +0.009 C 
ATOM     12  C   LIG A   1      -5.424  -2.648 123.480  0.00  0.00    +0.009 C 
ENDBRANCH   9  10
ENDBRANCH   7   9
ENDBRANCH   3   5
ENDBRANCH   1   4
BRANCH   2  13
ATOM     13  C   LIG A   1      -7.520  -2.958 131.367  0.00  0.00    +0.031 C 
BRANCH  13  14
ATOM     14  C   LIG A   1      -6.012  -3.012 131.666  0.00  0.00    +0.031 C 
BRANCH  14  15
ATOM     15  C   LIG A   1      -5.301  -4.124 130.941  0.00  0.00    -0.031 C 
ATOM     16  C   LIG A   1      -4.458  -4.019 129.902  0.00  0.00    -0.031 C 
BRANCH  16  17
ATOM     17  C   LIG A   1      -4.040  -2.761 129.192  0.00  0.00    +0.027 C 
BRANCH  17  18
ATOM     18  C   LIG A   1      -4.960  -2.393 128.025  0.00  0.00    +0.004 C 
BRANCH  18  19
ATOM     19  C   LIG A   1      -5.338  -0.909 127.955  0.00  0.00    +0.000 C 
BRANCH  19  20
ATOM     20  C   LIG A   1      -5.447  -0.403 126.512  0.00  0.00    -0.003 C 
ATOM     21  C   LIG A   1      -6.374   0.796 126.372  0.00  0.00    +0.004 C 
ENDBRANCH  19  20
ENDBRANCH  18  19
ENDBRANCH  17  18
ENDBRANCH  16  17
ENDBRANCH  14  15
ENDBRANCH  13  14
ENDBRANCH   2  13
TORSDOF 11
ENDMDL
MODEL 9
REMARK VINA RESULT:      -6.0      2.123      3.084
REMARK  Name = NuBBE_1594
REMARK  14 active torsions:
REMARK  status: ('A' for Active; 'I' for Inactive)
REMARK    1  A    between atoms: C_1  and  C_3
REMARK    2  A    between atoms: C_4  and  C_5
REMARK    3  A    between atoms: C_6  and  C_7
REMARK    4  A    between atoms: C_7  and  C_8
REMARK    5  A    between atoms: C_8  and  C_9
REMARK    6  A    between atoms: C_10  and  C_11
REMARK    7  A    between atoms: C_11  and  C_12
REMARK    8  A    between atoms: C_12  and  C_13
REMARK    9  A    between atoms: C_13  and  C_14
REMARK   10  A    between atoms: C_14  and  C_15
REMARK   11  A    between atoms: N_16  and  C_17
REMARK   12  A    between atoms: C_17  and  C_18
REMARK   13  A    between atoms: C_18  and  C_19
REMARK   14  A    between atoms: C_18  and  C_20
REMARK                            x       y       z     vdW  Elec       q    Type
REMARK                         _______ _______ _______ _____ _____    ______ ____
ROOT
ATOM      1  C   LIG A   1      -9.368  -3.709 127.258  0.00  0.00    -0.004 C 
ATOM      2  C   LIG A   1      -8.801  -3.165 126.170  0.00  0.00    -0.026 C 
ENDROOT
BRANCH   1   4
ATOM      3  C   LIG A   1      -7.841  -3.087 129.061  0.00  0.00    +0.067 C 
ATOM      4  C   LIG A   1      -8.637  -3.997 128.474  0.00  0.00    +0.005 C 
BRANCH   3   5
ATOM      5  C   LIG A   1      -7.175  -3.357 130.362  0.00  0.00    +0.237 C 
ATOM      6  O   LIG A   1      -7.586  -2.897 131.424  0.00  0.00    -0.271 OA
ATOM      7  N   LIG A   1      -6.057  -4.144 130.226  0.00  0.00    -0.312 N 
ATOM      8  H   LIG A   1      -5.772  -4.433 129.299  0.00  0.00    +0.149 HD
BRANCH   7   9
ATOM      9  C   LIG A   1      -5.179  -4.493 131.330  0.00  0.00    +0.107 C 
BRANCH   9  10
ATOM     10  C   LIG A   1      -3.818  -3.779 131.260  0.00  0.00    +0.000 C 
ATOM     11  C   LIG A   1      -3.429  -3.413 129.824  0.00  0.00    +0.009 C 
ATOM     12  C   LIG A   1      -3.863  -2.515 132.123  0.00  0.00    +0.009 C 
ENDBRANCH   9  10
ENDBRANCH   7   9
ENDBRANCH   3   5
ENDBRANCH   1   4
BRANCH   2  13
ATOM     13  C   LIG A   1      -9.548  -2.835 124.905  0.00  0.00    +0.031 C 
BRANCH  13  14
ATOM     14  C   LIG A   1      -8.837  -3.293 123.620  0.00  0.00    +0.031 C 
BRANCH  14  15
ATOM     15  C   LIG A   1      -8.256  -2.154 122.824  0.00  0.00    -0.031 C 
ATOM     16  C   LIG A   1      -6.961  -1.838 122.669  0.00  0.00    -0.031 C 
BRANCH  16  17
ATOM     17  C   LIG A   1      -5.775  -2.533 123.277  0.00  0.00    +0.027 C 
BRANCH  17  18
ATOM     18  C   LIG A   1      -5.450  -2.046 124.691  0.00  0.00    +0.004 C 
BRANCH  18  19
ATOM     19  C   LIG A   1      -6.003  -0.657 125.030  0.00  0.00    +0.000 C 
BRANCH  19  20
ATOM     20  C   LIG A   1      -6.314  -0.503 126.523  0.00  0.00    -0.003 C 
ATOM     21  C   LIG A   1      -5.393  -1.329 127.410  0.00  0.00    +0.004 C 
ENDBRANCH  19  20
ENDBRANCH  18  19
ENDBRANCH  17  18
ENDBRANCH  16  17
ENDBRANCH  14  15
ENDBRANCH  13  14
ENDBRANCH   2  13
TORSDOF 11
ENDMDL
