MODEL 1
REMARK VINA RESULT:      -6.2      0.000      0.000
REMARK  Name = NuBBE_596
REMARK  6 active torsions:
REMARK  status: ('A' for Active; 'I' for Inactive)
REMARK    1  A    between atoms: C_3  and  O_4
REMARK    2  A    between atoms: O_4  and  C_5
REMARK    3  A    between atoms: C_6  and  C_7
REMARK    4  A    between atoms: C_7  and  C_8
REMARK    5  A    between atoms: C_8  and  C_9
REMARK    6  A    between atoms: N_10  and  C_11
REMARK                            x       y       z     vdW  Elec       q    Type
REMARK                         _______ _______ _______ _____ _____    ______ ____
ROOT
ATOM      1  O   LIG A   1      -9.921  -0.267 122.759  0.00  0.00    -0.283 OA
ATOM      2  C   LIG A   1      -8.833  -0.355 123.331  0.00  0.00    +0.231 A 
ATOM      3  C   LIG A   1      -8.100  -1.654 123.505  0.00  0.00    +0.186 A 
ATOM      4  C   LIG A   1      -6.980  -1.651 124.275  0.00  0.00    +0.065 A 
ATOM      5  N   LIG A   1      -6.456  -0.489 124.887  0.00  0.00    -0.344 N 
ATOM      6  C   LIG A   1      -5.257  -0.461 125.731  0.00  0.00    +0.149 C 
ATOM      7  C   LIG A   1      -7.048   0.782 124.637  0.00  0.00    +0.053 A 
ATOM      8  C   LIG A   1      -6.525   1.998 125.124  0.00  0.00    +0.026 A 
ATOM      9  C   LIG A   1      -7.134   3.232 124.856  0.00  0.00    +0.002 A 
ATOM     10  C   LIG A   1      -8.289   3.288 124.088  0.00  0.00    +0.001 A 
ATOM     11  C   LIG A   1      -8.832   2.109 123.593  0.00  0.00    +0.014 A 
ATOM     12  C   LIG A   1      -8.217   0.871 123.867  0.00  0.00    +0.049 A 
ENDROOT
BRANCH   3  13
ATOM     13  O   LIG A   1      -8.527  -2.847 122.932  0.00  0.00    -0.490 OA
ATOM     14  C   LIG A   1      -9.653  -3.508 123.494  0.00  0.00    +0.277 C 
ENDBRANCH   3  13
BRANCH   4  15
ATOM     15  C   LIG A   1      -6.243  -2.988 124.450  0.00  0.00    +0.057 C 
BRANCH  15  16
ATOM     16  C   LIG A   1      -5.071  -3.155 123.471  0.00  0.00    +0.003 C 
ATOM     17  C   LIG A   1      -4.348  -4.485 123.658  0.00  0.00    +0.004 C 
ENDBRANCH  15  16
ENDBRANCH   4  15
TORSDOF 3
ENDMDL
MODEL 2
REMARK VINA RESULT:      -5.8      7.571      9.677
REMARK  Name = NuBBE_596
REMARK  6 active torsions:
REMARK  status: ('A' for Active; 'I' for Inactive)
REMARK    1  A    between atoms: C_3  and  O_4
REMARK    2  A    between atoms: O_4  and  C_5
REMARK    3  A    between atoms: C_6  and  C_7
REMARK    4  A    between atoms: C_7  and  C_8
REMARK    5  A    between atoms: C_8  and  C_9
REMARK    6  A    between atoms: N_10  and  C_11
REMARK                            x       y       z     vdW  Elec       q    Type
REMARK                         _______ _______ _______ _____ _____    ______ ____
ROOT
ATOM      1  O   LIG A   1      -9.560   6.290 127.036  0.00  0.00    -0.283 OA
ATOM      2  C   LIG A   1      -9.776   6.324 128.249  0.00  0.00    +0.231 A 
ATOM      3  C   LIG A   1      -8.965   5.553 129.250  0.00  0.00    +0.186 A 
ATOM      4  C   LIG A   1      -9.384   5.556 130.542  0.00  0.00    +0.065 A 
ATOM      5  N   LIG A   1     -10.518   6.271 130.994  0.00  0.00    -0.344 N 
ATOM      6  C   LIG A   1     -10.998   6.280 132.381  0.00  0.00    +0.149 C 
ATOM      7  C   LIG A   1     -11.234   7.117 130.101  0.00  0.00    +0.053 A 
ATOM      8  C   LIG A   1     -12.308   7.941 130.497  0.00  0.00    +0.026 A 
ATOM      9  C   LIG A   1     -12.989   8.765 129.589  0.00  0.00    +0.002 A 
ATOM     10  C   LIG A   1     -12.615   8.791 128.253  0.00  0.00    +0.001 A 
ATOM     11  C   LIG A   1     -11.561   7.991 127.829  0.00  0.00    +0.014 A 
ATOM     12  C   LIG A   1     -10.881   7.164 128.744  0.00  0.00    +0.049 A 
ENDROOT
BRANCH   3  13
ATOM     13  O   LIG A   1      -7.827   4.831 128.906  0.00  0.00    -0.490 OA
ATOM     14  C   LIG A   1      -7.985   3.600 128.214  0.00  0.00    +0.277 C 
ENDBRANCH   3  13
BRANCH   4  15
ATOM     15  C   LIG A   1      -8.548   4.757 131.555  0.00  0.00    +0.057 C 
BRANCH  15  16
ATOM     16  C   LIG A   1      -9.098   3.344 131.799  0.00  0.00    +0.003 C 
ATOM     17  C   LIG A   1      -9.208   3.017 133.284  0.00  0.00    +0.004 C 
ENDBRANCH  15  16
ENDBRANCH   4  15
TORSDOF 3
ENDMDL
MODEL 3
REMARK VINA RESULT:      -5.8      2.434      4.769
REMARK  Name = NuBBE_596
REMARK  6 active torsions:
REMARK  status: ('A' for Active; 'I' for Inactive)
REMARK    1  A    between atoms: C_3  and  O_4
REMARK    2  A    between atoms: O_4  and  C_5
REMARK    3  A    between atoms: C_6  and  C_7
REMARK    4  A    between atoms: C_7  and  C_8
REMARK    5  A    between atoms: C_8  and  C_9
REMARK    6  A    between atoms: N_10  and  C_11
REMARK                            x       y       z     vdW  Elec       q    Type
REMARK                         _______ _______ _______ _____ _____    ______ ____
ROOT
ATOM      1  O   LIG A   1      -9.656  -3.070 124.207  0.00  0.00    -0.283 OA
ATOM      2  C   LIG A   1      -8.946  -2.242 124.779  0.00  0.00    +0.231 A 
ATOM      3  C   LIG A   1      -8.422  -1.006 124.107  0.00  0.00    +0.186 A 
ATOM      4  C   LIG A   1      -7.533  -0.240 124.793  0.00  0.00    +0.065 A 
ATOM      5  N   LIG A   1      -7.106  -0.528 126.110  0.00  0.00    -0.344 N 
ATOM      6  C   LIG A   1      -6.139   0.274 126.866  0.00  0.00    +0.149 C 
ATOM      7  C   LIG A   1      -7.679  -1.617 126.826  0.00  0.00    +0.053 A 
ATOM      8  C   LIG A   1      -7.385  -1.907 128.175  0.00  0.00    +0.026 A 
ATOM      9  C   LIG A   1      -7.972  -2.987 128.850  0.00  0.00    +0.002 A 
ATOM     10  C   LIG A   1      -8.875  -3.812 128.196  0.00  0.00    +0.001 A 
ATOM     11  C   LIG A   1      -9.187  -3.556 126.866  0.00  0.00    +0.014 A 
ATOM     12  C   LIG A   1      -8.593  -2.471 126.192  0.00  0.00    +0.049 A 
ENDROOT
BRANCH   3  13
ATOM     13  O   LIG A   1      -8.792  -0.629 122.820  0.00  0.00    -0.490 OA
ATOM     14  C   LIG A   1     -10.095  -0.099 122.615  0.00  0.00    +0.277 C 
ENDBRANCH   3  13
BRANCH   4  15
ATOM     15  C   LIG A   1      -7.000   1.019 124.091  0.00  0.00    +0.057 C 
BRANCH  15  16
ATOM     16  C   LIG A   1      -7.833   2.272 124.401  0.00  0.00    +0.003 C 
ATOM     17  C   LIG A   1      -8.220   3.035 123.139  0.00  0.00    +0.004 C 
ENDBRANCH  15  16
ENDBRANCH   4  15
TORSDOF 3
ENDMDL
MODEL 4
REMARK VINA RESULT:      -5.8      1.756      2.206
REMARK  Name = NuBBE_596
REMARK  6 active torsions:
REMARK  status: ('A' for Active; 'I' for Inactive)
REMARK    1  A    between atoms: C_3  and  O_4
REMARK    2  A    between atoms: O_4  and  C_5
REMARK    3  A    between atoms: C_6  and  C_7
REMARK    4  A    between atoms: C_7  and  C_8
REMARK    5  A    between atoms: C_8  and  C_9
REMARK    6  A    between atoms: N_10  and  C_11
REMARK                            x       y       z     vdW  Elec       q    Type
REMARK                         _______ _______ _______ _____ _____    ______ ____
ROOT
ATOM      1  O   LIG A   1     -10.297   0.037 123.030  0.00  0.00    -0.283 OA
ATOM      2  C   LIG A   1      -9.263  -0.047 123.696  0.00  0.00    +0.231 A 
ATOM      3  C   LIG A   1      -8.900  -1.263 124.499  0.00  0.00    +0.186 A 
ATOM      4  C   LIG A   1      -7.809  -1.188 125.305  0.00  0.00    +0.065 A 
ATOM      5  N   LIG A   1      -6.985  -0.042 125.400  0.00  0.00    -0.344 N 
ATOM      6  C   LIG A   1      -5.810   0.069 126.271  0.00  0.00    +0.149 C 
ATOM      7  C   LIG A   1      -7.221   1.081 124.557  0.00  0.00    +0.053 A 
ATOM      8  C   LIG A   1      -6.385   2.217 124.516  0.00  0.00    +0.026 A 
ATOM      9  C   LIG A   1      -6.647   3.305 123.671  0.00  0.00    +0.002 A 
ATOM     10  C   LIG A   1      -7.756   3.290 122.837  0.00  0.00    +0.001 A 
ATOM     11  C   LIG A   1      -8.601   2.186 122.853  0.00  0.00    +0.014 A 
ATOM     12  C   LIG A   1      -8.335   1.097 123.705  0.00  0.00    +0.049 A 
ENDROOT
BRANCH   3  13
ATOM     13  O   LIG A   1      -9.639  -2.442 124.463  0.00  0.00    -0.490 OA
ATOM     14  C   LIG A   1      -9.509  -3.292 123.332  0.00  0.00    +0.277 C 
ENDBRANCH   3  13
BRANCH   4  15
ATOM     15  C   LIG A   1      -7.453  -2.437 126.126  0.00  0.00    +0.057 C 
BRANCH  15  16
ATOM     16  C   LIG A   1      -8.165  -2.479 127.487  0.00  0.00    +0.003 C 
ATOM     17  C   LIG A   1      -8.843  -3.821 127.741  0.00  0.00    +0.004 C 
ENDBRANCH  15  16
ENDBRANCH   4  15
TORSDOF 3
ENDMDL
MODEL 5
REMARK VINA RESULT:      -5.8      2.959      4.398
REMARK  Name = NuBBE_596
REMARK  6 active torsions:
REMARK  status: ('A' for Active; 'I' for Inactive)
REMARK    1  A    between atoms: C_3  and  O_4
REMARK    2  A    between atoms: O_4  and  C_5
REMARK    3  A    between atoms: C_6  and  C_7
REMARK    4  A    between atoms: C_7  and  C_8
REMARK    5  A    between atoms: C_8  and  C_9
REMARK    6  A    between atoms: N_10  and  C_11
REMARK                            x       y       z     vdW  Elec       q    Type
REMARK                         _______ _______ _______ _____ _____    ______ ____
ROOT
ATOM      1  O   LIG A   1      -9.931  -3.606 126.492  0.00  0.00    -0.283 OA
ATOM      2  C   LIG A   1      -8.956  -2.857 126.410  0.00  0.00    +0.231 A 
ATOM      3  C   LIG A   1      -8.612  -2.091 125.165  0.00  0.00    +0.186 A 
ATOM      4  C   LIG A   1      -7.436  -1.410 125.145  0.00  0.00    +0.065 A 
ATOM      5  N   LIG A   1      -6.543  -1.360 126.240  0.00  0.00    -0.344 N 
ATOM      6  C   LIG A   1      -5.263  -0.644 126.239  0.00  0.00    +0.149 C 
ATOM      7  C   LIG A   1      -6.895  -1.966 127.480  0.00  0.00    +0.053 A 
ATOM      8  C   LIG A   1      -6.109  -1.872 128.647  0.00  0.00    +0.026 A 
ATOM      9  C   LIG A   1      -6.489  -2.479 129.852  0.00  0.00    +0.002 A 
ATOM     10  C   LIG A   1      -7.673  -3.200 129.929  0.00  0.00    +0.001 A 
ATOM     11  C   LIG A   1      -8.471  -3.313 128.796  0.00  0.00    +0.014 A 
ATOM     12  C   LIG A   1      -8.083  -2.703 127.587  0.00  0.00    +0.049 A 
ENDROOT
BRANCH   3  13
ATOM     13  O   LIG A   1      -9.431  -2.065 124.041  0.00  0.00    -0.490 OA
ATOM     14  C   LIG A   1      -9.603  -3.264 123.298  0.00  0.00    +0.277 C 
ENDBRANCH   3  13
BRANCH   4  15
ATOM     15  C   LIG A   1      -7.094  -0.635 123.862  0.00  0.00    +0.057 C 
BRANCH  15  16
ATOM     16  C   LIG A   1      -6.538  -1.537 122.751  0.00  0.00    +0.003 C 
ATOM     17  C   LIG A   1      -5.574  -2.588 123.289  0.00  0.00    +0.004 C 
ENDBRANCH  15  16
ENDBRANCH   4  15
TORSDOF 3
ENDMDL
MODEL 6
REMARK VINA RESULT:      -5.7      1.564      4.981
REMARK  Name = NuBBE_596
REMARK  6 active torsions:
REMARK  status: ('A' for Active; 'I' for Inactive)
REMARK    1  A    between atoms: C_3  and  O_4
REMARK    2  A    between atoms: O_4  and  C_5
REMARK    3  A    between atoms: C_6  and  C_7
REMARK    4  A    between atoms: C_7  and  C_8
REMARK    5  A    between atoms: C_8  and  C_9
REMARK    6  A    between atoms: N_10  and  C_11
REMARK                            x       y       z     vdW  Elec       q    Type
REMARK                         _______ _______ _______ _____ _____    ______ ____
ROOT
ATOM      1  O   LIG A   1     -10.229  -0.060 122.375  0.00  0.00    -0.283 OA
ATOM      2  C   LIG A   1      -9.273  -0.032 123.151  0.00  0.00    +0.231 A 
ATOM      3  C   LIG A   1      -8.598   1.239 123.578  0.00  0.00    +0.186 A 
ATOM      4  C   LIG A   1      -7.467   1.137 124.324  0.00  0.00    +0.065 A 
ATOM      5  N   LIG A   1      -6.916  -0.096 124.743  0.00  0.00    -0.344 N 
ATOM      6  C   LIG A   1      -5.690  -0.234 125.537  0.00  0.00    +0.149 C 
ATOM      7  C   LIG A   1      -7.598  -1.315 124.469  0.00  0.00    +0.053 A 
ATOM      8  C   LIG A   1      -7.170  -2.574 124.941  0.00  0.00    +0.026 A 
ATOM      9  C   LIG A   1      -7.870  -3.754 124.654  0.00  0.00    +0.002 A 
ATOM     10  C   LIG A   1      -9.024  -3.713 123.884  0.00  0.00    +0.001 A 
ATOM     11  C   LIG A   1      -9.473  -2.489 123.402  0.00  0.00    +0.014 A 
ATOM     12  C   LIG A   1      -8.766  -1.306 123.692  0.00  0.00    +0.049 A 
ENDROOT
BRANCH   3  13
ATOM     13  O   LIG A   1      -9.071   2.501 123.230  0.00  0.00    -0.490 OA
ATOM     14  C   LIG A   1      -8.730   3.026 121.954  0.00  0.00    +0.277 C 
ENDBRANCH   3  13
BRANCH   4  15
ATOM     15  C   LIG A   1      -6.783   2.447 124.749  0.00  0.00    +0.057 C 
BRANCH  15  16
ATOM     16  C   LIG A   1      -7.366   3.029 126.045  0.00  0.00    +0.003 C 
ATOM     17  C   LIG A   1      -7.828   4.472 125.872  0.00  0.00    +0.004 C 
ENDBRANCH  15  16
ENDBRANCH   4  15
TORSDOF 3
ENDMDL
MODEL 7
REMARK VINA RESULT:      -5.6      3.664      5.482
REMARK  Name = NuBBE_596
REMARK  6 active torsions:
REMARK  status: ('A' for Active; 'I' for Inactive)
REMARK    1  A    between atoms: C_3  and  O_4
REMARK    2  A    between atoms: O_4  and  C_5
REMARK    3  A    between atoms: C_6  and  C_7
REMARK    4  A    between atoms: C_7  and  C_8
REMARK    5  A    between atoms: C_8  and  C_9
REMARK    6  A    between atoms: N_10  and  C_11
REMARK                            x       y       z     vdW  Elec       q    Type
REMARK                         _______ _______ _______ _____ _____    ______ ____
ROOT
ATOM      1  O   LIG A   1      -5.126  -0.857 125.469  0.00  0.00    -0.283 OA
ATOM      2  C   LIG A   1      -6.049  -1.460 126.021  0.00  0.00    +0.231 A 
ATOM      3  C   LIG A   1      -6.121  -1.668 127.506  0.00  0.00    +0.186 A 
ATOM      4  C   LIG A   1      -7.108  -2.469 127.986  0.00  0.00    +0.065 A 
ATOM      5  N   LIG A   1      -8.084  -3.084 127.167  0.00  0.00    -0.344 N 
ATOM      6  C   LIG A   1      -9.151  -3.961 127.659  0.00  0.00    +0.149 C 
ATOM      7  C   LIG A   1      -8.126  -2.804 125.772  0.00  0.00    +0.053 A 
ATOM      8  C   LIG A   1      -9.127  -3.293 124.907  0.00  0.00    +0.026 A 
ATOM      9  C   LIG A   1      -9.139  -2.994 123.537  0.00  0.00    +0.002 A 
ATOM     10  C   LIG A   1      -8.148  -2.194 122.987  0.00  0.00    +0.001 A 
ATOM     11  C   LIG A   1      -7.145  -1.696 123.812  0.00  0.00    +0.014 A 
ATOM     12  C   LIG A   1      -7.137  -2.001 125.187  0.00  0.00    +0.049 A 
ENDROOT
BRANCH   3  13
ATOM     13  O   LIG A   1      -5.217  -1.095 128.396  0.00  0.00    -0.490 OA
ATOM     14  C   LIG A   1      -5.325   0.294 128.674  0.00  0.00    +0.277 C 
ENDBRANCH   3  13
BRANCH   4  15
ATOM     15  C   LIG A   1      -7.167  -2.679 129.508  0.00  0.00    +0.057 C 
BRANCH  15  16
ATOM     16  C   LIG A   1      -6.462  -3.966 129.959  0.00  0.00    +0.003 C 
ATOM     17  C   LIG A   1      -5.316  -3.688 130.926  0.00  0.00    +0.004 C 
ENDBRANCH  15  16
ENDBRANCH   4  15
TORSDOF 3
ENDMDL
MODEL 8
REMARK VINA RESULT:      -5.6      2.310      5.523
REMARK  Name = NuBBE_596
REMARK  6 active torsions:
REMARK  status: ('A' for Active; 'I' for Inactive)
REMARK    1  A    between atoms: C_3  and  O_4
REMARK    2  A    between atoms: O_4  and  C_5
REMARK    3  A    between atoms: C_6  and  C_7
REMARK    4  A    between atoms: C_7  and  C_8
REMARK    5  A    between atoms: C_8  and  C_9
REMARK    6  A    between atoms: N_10  and  C_11
REMARK                            x       y       z     vdW  Elec       q    Type
REMARK                         _______ _______ _______ _____ _____    ______ ____
ROOT
ATOM      1  O   LIG A   1      -5.790  -0.631 125.932  0.00  0.00    -0.283 OA
ATOM      2  C   LIG A   1      -6.638  -0.270 125.114  0.00  0.00    +0.231 A 
ATOM      3  C   LIG A   1      -6.792   1.154 124.664  0.00  0.00    +0.186 A 
ATOM      4  C   LIG A   1      -7.851   1.456 123.868  0.00  0.00    +0.065 A 
ATOM      5  N   LIG A   1      -8.789   0.498 123.418  0.00  0.00    -0.344 N 
ATOM      6  C   LIG A   1      -9.947   0.801 122.570  0.00  0.00    +0.149 C 
ATOM      7  C   LIG A   1      -8.602  -0.882 123.716  0.00  0.00    +0.053 A 
ATOM      8  C   LIG A   1      -9.432  -1.908 123.219  0.00  0.00    +0.026 A 
ATOM      9  C   LIG A   1      -9.215  -3.258 123.531  0.00  0.00    +0.002 A 
ATOM     10  C   LIG A   1      -8.158  -3.625 124.351  0.00  0.00    +0.001 A 
ATOM     11  C   LIG A   1      -7.322  -2.638 124.860  0.00  0.00    +0.014 A 
ATOM     12  C   LIG A   1      -7.544  -1.283 124.545  0.00  0.00    +0.049 A 
ENDROOT
BRANCH   3  13
ATOM     13  O   LIG A   1      -5.914   2.166 125.040  0.00  0.00    -0.490 OA
ATOM     14  C   LIG A   1      -6.028   2.715 126.346  0.00  0.00    +0.277 C 
ENDBRANCH   3  13
BRANCH   4  15
ATOM     15  C   LIG A   1      -8.000   2.919 123.420  0.00  0.00    +0.057 C 
BRANCH  15  16
ATOM     16  C   LIG A   1      -7.386   3.184 122.037  0.00  0.00    +0.003 C 
ATOM     17  C   LIG A   1      -6.036   3.886 122.131  0.00  0.00    +0.004 C 
ENDBRANCH  15  16
ENDBRANCH   4  15
TORSDOF 3
ENDMDL
MODEL 9
REMARK VINA RESULT:      -5.5      3.281      5.682
REMARK  Name = NuBBE_596
REMARK  6 active torsions:
REMARK  status: ('A' for Active; 'I' for Inactive)
REMARK    1  A    between atoms: C_3  and  O_4
REMARK    2  A    between atoms: O_4  and  C_5
REMARK    3  A    between atoms: C_6  and  C_7
REMARK    4  A    between atoms: C_7  and  C_8
REMARK    5  A    between atoms: C_8  and  C_9
REMARK    6  A    between atoms: N_10  and  C_11
REMARK                            x       y       z     vdW  Elec       q    Type
REMARK                         _______ _______ _______ _____ _____    ______ ____
ROOT
ATOM      1  O   LIG A   1      -7.162   0.591 128.432  0.00  0.00    -0.283 OA
ATOM      2  C   LIG A   1      -7.484  -0.050 127.429  0.00  0.00    +0.231 A 
ATOM      3  C   LIG A   1      -7.441   0.521 126.041  0.00  0.00    +0.186 A 
ATOM      4  C   LIG A   1      -7.953  -0.231 125.031  0.00  0.00    +0.065 A 
ATOM      5  N   LIG A   1      -8.489  -1.527 125.216  0.00  0.00    -0.344 N 
ATOM      6  C   LIG A   1      -9.058  -2.352 124.145  0.00  0.00    +0.149 C 
ATOM      7  C   LIG A   1      -8.427  -2.152 126.494  0.00  0.00    +0.053 A 
ATOM      8  C   LIG A   1      -8.843  -3.478 126.736  0.00  0.00    +0.026 A 
ATOM      9  C   LIG A   1      -8.764  -4.063 128.008  0.00  0.00    +0.002 A 
ATOM     10  C   LIG A   1      -8.264  -3.338 129.080  0.00  0.00    +0.001 A 
ATOM     11  C   LIG A   1      -7.846  -2.028 128.876  0.00  0.00    +0.014 A 
ATOM     12  C   LIG A   1      -7.929  -1.444 127.597  0.00  0.00    +0.049 A 
ENDROOT
BRANCH   3  13
ATOM     13  O   LIG A   1      -6.921   1.779 125.755  0.00  0.00    -0.490 OA
ATOM     14  C   LIG A   1      -5.512   1.957 125.792  0.00  0.00    +0.277 C 
ENDBRANCH   3  13
BRANCH   4  15
ATOM     15  C   LIG A   1      -7.909   0.368 123.616  0.00  0.00    +0.057 C 
BRANCH  15  16
ATOM     16  C   LIG A   1      -9.083   1.316 123.333  0.00  0.00    +0.003 C 
ATOM     17  C   LIG A   1     -10.178   0.648 122.509  0.00  0.00    +0.004 C 
ENDBRANCH  15  16
ENDBRANCH   4  15
TORSDOF 3
ENDMDL
