MODEL 1
REMARK VINA RESULT:      -6.7      0.000      0.000
REMARK  Name = NuBBE_1838
REMARK  12 active torsions:
REMARK  status: ('A' for Active; 'I' for Inactive)
REMARK    1  A    between atoms: O_1  and  C_2
REMARK    2  A    between atoms: O_1  and  C_3
REMARK    3  A    between atoms: C_8  and  C_10
REMARK    4  A    between atoms: C_10  and  C_11
REMARK    5  A    between atoms: C_14  and  C_19
REMARK    6  A    between atoms: C_16  and  C_18
REMARK    7  A    between atoms: C_21  and  O_22
REMARK    8  A    between atoms: O_22  and  C_23
REMARK    9  A    between atoms: C_24  and  O_29
REMARK   10  A    between atoms: C_25  and  O_27
REMARK   11  A    between atoms: O_27  and  C_28
REMARK   12  A    between atoms: O_29  and  C_30
REMARK                            x       y       z     vdW  Elec       q    Type
REMARK                         _______ _______ _______ _____ _____    ______ ____
ROOT
ATOM      1  C   LIG A   1      -6.285  -0.740 126.435  0.00  0.00    +0.151 C 
ATOM      2  C   LIG A   1      -7.632  -1.338 126.681  0.00  0.00    +0.138 C 
ATOM      3  C   LIG A   1      -8.266  -2.121 125.813  0.00  0.00    +0.095 C 
ATOM      4  C   LIG A   1      -7.610  -2.468 124.527  0.00  0.00    +0.185 C 
ATOM      5  O   LIG A   1      -8.255  -3.048 123.646  0.00  0.00    -0.287 OA
ATOM      6  C   LIG A   1      -6.152  -2.159 124.378  0.00  0.00    +0.002 C 
ATOM      7  C   LIG A   1      -5.542  -1.388 125.307  0.00  0.00    +0.023 C 
ATOM      8  O   LIG A   1      -8.099  -1.150 127.965  0.00  0.00    -0.485 OA
ATOM      9  C   LIG A   1      -6.948  -0.733 128.738  0.00  0.00    +0.210 C 
ATOM     10  C   LIG A   1      -5.693  -0.898 127.838  0.00  0.00    +0.074 C 
ATOM     11  C   LIG A   1      -5.017  -2.243 128.132  0.00  0.00    +0.015 C 
ENDROOT
BRANCH   9  12
ATOM     12  C   LIG A   1      -7.114   0.664 129.310  0.00  0.00    +0.000 A 
ATOM     13  C   LIG A   1      -6.042   1.262 129.980  0.00  0.00    +0.057 A 
ATOM     14  C   LIG A   1      -6.113   2.585 130.423  0.00  0.00    +0.166 A 
ATOM     15  C   LIG A   1      -7.311   3.322 130.276  0.00  0.00    +0.203 A 
ATOM     16  C   LIG A   1      -8.425   2.702 129.674  0.00  0.00    +0.166 A 
ATOM     17  C   LIG A   1      -8.304   1.390 129.187  0.00  0.00    +0.057 A 
BRANCH  14  18
ATOM     18  O   LIG A   1      -5.057   3.205 131.054  0.00  0.00    -0.491 OA
ATOM     19  C   LIG A   1      -3.924   3.493 130.237  0.00  0.00    +0.277 C 
ENDBRANCH  14  18
BRANCH  16  20
ATOM     20  O   LIG A   1      -9.587   3.413 129.484  0.00  0.00    -0.491 OA
ATOM     21  C   LIG A   1     -10.544   3.312 130.540  0.00  0.00    +0.277 C 
ENDBRANCH  16  20
BRANCH  15  22
ATOM     22  O   LIG A   1      -7.228   4.620 130.719  0.00  0.00    -0.488 OA
ATOM     23  C   LIG A   1      -7.683   4.945 132.021  0.00  0.00    +0.277 C 
ENDBRANCH  15  22
ENDBRANCH   9  12
BRANCH   1  24
ATOM     24  O   LIG A   1      -6.365   0.674 126.185  0.00  0.00    -0.364 OA
ATOM     25  C   LIG A   1      -5.137   1.397 126.217  0.00  0.00    +0.195 C 
ENDBRANCH   1  24
BRANCH   6  26
ATOM     26  C   LIG A   1      -5.433  -2.739 123.191  0.00  0.00    +0.065 C 
BRANCH  26  27
ATOM     27  C   LIG A   1      -4.303  -3.660 123.572  0.00  0.00    -0.030 C 
ATOM     28  C   LIG A   1      -4.359  -5.000 123.549  0.00  0.00    +0.004 C 
ENDBRANCH  26  27
ENDBRANCH   6  26
TORSDOF 7
ENDMDL
MODEL 2
REMARK VINA RESULT:      -6.6      1.233      2.608
REMARK  Name = NuBBE_1838
REMARK  12 active torsions:
REMARK  status: ('A' for Active; 'I' for Inactive)
REMARK    1  A    between atoms: O_1  and  C_2
REMARK    2  A    between atoms: O_1  and  C_3
REMARK    3  A    between atoms: C_8  and  C_10
REMARK    4  A    between atoms: C_10  and  C_11
REMARK    5  A    between atoms: C_14  and  C_19
REMARK    6  A    between atoms: C_16  and  C_18
REMARK    7  A    between atoms: C_21  and  O_22
REMARK    8  A    between atoms: O_22  and  C_23
REMARK    9  A    between atoms: C_24  and  O_29
REMARK   10  A    between atoms: C_25  and  O_27
REMARK   11  A    between atoms: O_27  and  C_28
REMARK   12  A    between atoms: O_29  and  C_30
REMARK                            x       y       z     vdW  Elec       q    Type
REMARK                         _______ _______ _______ _____ _____    ______ ____
ROOT
ATOM      1  C   LIG A   1      -6.311  -0.270 125.900  0.00  0.00    +0.151 C 
ATOM      2  C   LIG A   1      -7.718  -0.717 126.130  0.00  0.00    +0.138 C 
ATOM      3  C   LIG A   1      -8.366  -1.565 125.338  0.00  0.00    +0.095 C 
ATOM      4  C   LIG A   1      -7.669  -2.147 124.164  0.00  0.00    +0.185 C 
ATOM      5  O   LIG A   1      -8.309  -2.795 123.328  0.00  0.00    -0.287 OA
ATOM      6  C   LIG A   1      -6.183  -1.979 124.077  0.00  0.00    +0.002 C 
ATOM      7  C   LIG A   1      -5.562  -1.133 124.931  0.00  0.00    +0.023 C 
ATOM      8  O   LIG A   1      -8.242  -0.307 127.339  0.00  0.00    -0.485 OA
ATOM      9  C   LIG A   1      -7.106   0.125 128.126  0.00  0.00    +0.210 C 
ATOM     10  C   LIG A   1      -5.819  -0.269 127.351  0.00  0.00    +0.074 C 
ATOM     11  C   LIG A   1      -5.284  -1.607 127.878  0.00  0.00    +0.015 C 
ENDROOT
BRANCH   9  12
ATOM     12  C   LIG A   1      -7.181   1.600 128.484  0.00  0.00    +0.000 A 
ATOM     13  C   LIG A   1      -8.428   2.180 128.736  0.00  0.00    +0.057 A 
ATOM     14  C   LIG A   1      -8.534   3.502 129.177  0.00  0.00    +0.166 A 
ATOM     15  C   LIG A   1      -7.378   4.309 129.295  0.00  0.00    +0.203 A 
ATOM     16  C   LIG A   1      -6.124   3.757 128.965  0.00  0.00    +0.166 A 
ATOM     17  C   LIG A   1      -6.044   2.408 128.580  0.00  0.00    +0.057 A 
BRANCH  14  18
ATOM     18  O   LIG A   1      -9.750   4.083 129.466  0.00  0.00    -0.491 OA
ATOM     19  C   LIG A   1     -10.474   3.507 130.550  0.00  0.00    +0.277 C 
ENDBRANCH  14  18
BRANCH  16  20
ATOM     20  O   LIG A   1      -4.983   4.510 129.111  0.00  0.00    -0.491 OA
ATOM     21  C   LIG A   1      -4.236   4.724 127.912  0.00  0.00    +0.277 C 
ENDBRANCH  16  20
BRANCH  15  22
ATOM     22  O   LIG A   1      -7.624   5.572 129.776  0.00  0.00    -0.488 OA
ATOM     23  C   LIG A   1      -7.375   5.861 131.141  0.00  0.00    +0.277 C 
ENDBRANCH  15  22
ENDBRANCH   9  12
BRANCH   1  24
ATOM     24  O   LIG A   1      -6.249   1.094 125.449  0.00  0.00    -0.364 OA
ATOM     25  C   LIG A   1      -7.260   1.510 124.536  0.00  0.00    +0.195 C 
ENDBRANCH   1  24
BRANCH   6  26
ATOM     26  C   LIG A   1      -5.448  -2.781 123.038  0.00  0.00    +0.065 C 
BRANCH  26  27
ATOM     27  C   LIG A   1      -4.360  -3.649 123.615  0.00  0.00    -0.030 C 
ATOM     28  C   LIG A   1      -4.284  -4.981 123.483  0.00  0.00    +0.004 C 
ENDBRANCH  26  27
ENDBRANCH   6  26
TORSDOF 7
ENDMDL
MODEL 3
REMARK VINA RESULT:      -6.6      3.494      7.193
REMARK  Name = NuBBE_1838
REMARK  12 active torsions:
REMARK  status: ('A' for Active; 'I' for Inactive)
REMARK    1  A    between atoms: O_1  and  C_2
REMARK    2  A    between atoms: O_1  and  C_3
REMARK    3  A    between atoms: C_8  and  C_10
REMARK    4  A    between atoms: C_10  and  C_11
REMARK    5  A    between atoms: C_14  and  C_19
REMARK    6  A    between atoms: C_16  and  C_18
REMARK    7  A    between atoms: C_21  and  O_22
REMARK    8  A    between atoms: O_22  and  C_23
REMARK    9  A    between atoms: C_24  and  O_29
REMARK   10  A    between atoms: C_25  and  O_27
REMARK   11  A    between atoms: O_27  and  C_28
REMARK   12  A    between atoms: O_29  and  C_30
REMARK                            x       y       z     vdW  Elec       q    Type
REMARK                         _______ _______ _______ _____ _____    ______ ____
ROOT
ATOM      1  C   LIG A   1      -6.089  -3.334 129.798  0.00  0.00    +0.151 C 
ATOM      2  C   LIG A   1      -6.304  -1.939 130.287  0.00  0.00    +0.138 C 
ATOM      3  C   LIG A   1      -6.494  -1.620 131.564  0.00  0.00    +0.095 C 
ATOM      4  C   LIG A   1      -6.464  -2.688 132.595  0.00  0.00    +0.185 C 
ATOM      5  O   LIG A   1      -6.809  -2.432 133.754  0.00  0.00    -0.287 OA
ATOM      6  C   LIG A   1      -5.942  -4.034 132.196  0.00  0.00    +0.002 C 
ATOM      7  C   LIG A   1      -5.729  -4.298 130.887  0.00  0.00    +0.023 C 
ATOM      8  O   LIG A   1      -6.119  -0.974 129.318  0.00  0.00    -0.485 OA
ATOM      9  C   LIG A   1      -5.428  -1.642 128.234  0.00  0.00    +0.210 C 
ATOM     10  C   LIG A   1      -5.021  -3.054 128.737  0.00  0.00    +0.074 C 
ATOM     11  C   LIG A   1      -3.571  -3.030 129.236  0.00  0.00    +0.015 C 
ENDROOT
BRANCH   9  12
ATOM     12  C   LIG A   1      -6.244  -1.657 126.954  0.00  0.00    +0.000 A 
ATOM     13  C   LIG A   1      -5.725  -2.286 125.818  0.00  0.00    +0.057 A 
ATOM     14  C   LIG A   1      -6.486  -2.421 124.654  0.00  0.00    +0.166 A 
ATOM     15  C   LIG A   1      -7.775  -1.845 124.575  0.00  0.00    +0.203 A 
ATOM     16  C   LIG A   1      -8.276  -1.139 125.687  0.00  0.00    +0.166 A 
ATOM     17  C   LIG A   1      -7.510  -1.069 126.863  0.00  0.00    +0.057 A 
BRANCH  14  18
ATOM     18  O   LIG A   1      -6.007  -3.069 123.536  0.00  0.00    -0.491 OA
ATOM     19  C   LIG A   1      -4.638  -3.462 123.580  0.00  0.00    +0.277 C 
ENDBRANCH  14  18
BRANCH  16  20
ATOM     20  O   LIG A   1      -9.543  -0.604 125.647  0.00  0.00    -0.491 OA
ATOM     21  C   LIG A   1      -9.614   0.768 125.259  0.00  0.00    +0.277 C 
ENDBRANCH  16  20
BRANCH  15  22
ATOM     22  O   LIG A   1      -8.426  -2.088 123.390  0.00  0.00    -0.488 OA
ATOM     23  C   LIG A   1      -9.412  -3.105 123.330  0.00  0.00    +0.277 C 
ENDBRANCH  15  22
ENDBRANCH   9  12
BRANCH   1  24
ATOM     24  O   LIG A   1      -7.238  -3.839 129.095  0.00  0.00    -0.364 OA
ATOM     25  C   LIG A   1      -8.506  -3.331 129.499  0.00  0.00    +0.195 C 
ENDBRANCH   1  24
BRANCH   6  26
ATOM     26  C   LIG A   1      -5.669  -5.030 133.290  0.00  0.00    +0.065 C 
BRANCH  26  27
ATOM     27  C   LIG A   1      -4.242  -5.514 133.311  0.00  0.00    -0.030 C 
ATOM     28  C   LIG A   1      -3.177  -4.765 133.631  0.00  0.00    +0.004 C 
ENDBRANCH  26  27
ENDBRANCH   6  26
TORSDOF 7
ENDMDL
MODEL 4
REMARK VINA RESULT:      -6.6      3.031      7.738
REMARK  Name = NuBBE_1838
REMARK  12 active torsions:
REMARK  status: ('A' for Active; 'I' for Inactive)
REMARK    1  A    between atoms: O_1  and  C_2
REMARK    2  A    between atoms: O_1  and  C_3
REMARK    3  A    between atoms: C_8  and  C_10
REMARK    4  A    between atoms: C_10  and  C_11
REMARK    5  A    between atoms: C_14  and  C_19
REMARK    6  A    between atoms: C_16  and  C_18
REMARK    7  A    between atoms: C_21  and  O_22
REMARK    8  A    between atoms: O_22  and  C_23
REMARK    9  A    between atoms: C_24  and  O_29
REMARK   10  A    between atoms: C_25  and  O_27
REMARK   11  A    between atoms: O_27  and  C_28
REMARK   12  A    between atoms: O_29  and  C_30
REMARK                            x       y       z     vdW  Elec       q    Type
REMARK                         _______ _______ _______ _____ _____    ______ ____
ROOT
ATOM      1  C   LIG A   1      -3.813   3.919 128.186  0.00  0.00    +0.151 C 
ATOM      2  C   LIG A   1      -4.349   4.943 127.239  0.00  0.00    +0.138 C 
ATOM      3  C   LIG A   1      -4.229   6.255 127.418  0.00  0.00    +0.095 C 
ATOM      4  C   LIG A   1      -3.493   6.766 128.602  0.00  0.00    +0.185 C 
ATOM      5  O   LIG A   1      -3.523   7.973 128.870  0.00  0.00    -0.287 OA
ATOM      6  C   LIG A   1      -2.676   5.792 129.394  0.00  0.00    +0.002 C 
ATOM      7  C   LIG A   1      -2.807   4.468 129.150  0.00  0.00    +0.023 C 
ATOM      8  O   LIG A   1      -4.839   4.413 126.064  0.00  0.00    -0.485 OA
ATOM      9  C   LIG A   1      -4.334   3.057 126.011  0.00  0.00    +0.210 C 
ATOM     10  C   LIG A   1      -3.310   2.891 127.167  0.00  0.00    +0.074 C 
ATOM     11  C   LIG A   1      -1.888   3.114 126.638  0.00  0.00    +0.015 C 
ENDROOT
BRANCH   9  12
ATOM     12  C   LIG A   1      -5.450   2.026 126.026  0.00  0.00    +0.000 A 
ATOM     13  C   LIG A   1      -5.140   0.687 126.283  0.00  0.00    +0.057 A 
ATOM     14  C   LIG A   1      -6.146  -0.275 126.416  0.00  0.00    +0.166 A 
ATOM     15  C   LIG A   1      -7.500   0.077 126.209  0.00  0.00    +0.203 A 
ATOM     16  C   LIG A   1      -7.815   1.408 125.870  0.00  0.00    +0.166 A 
ATOM     17  C   LIG A   1      -6.788   2.363 125.799  0.00  0.00    +0.057 A 
BRANCH  14  18
ATOM     18  O   LIG A   1      -5.867  -1.593 126.705  0.00  0.00    -0.491 OA
ATOM     19  C   LIG A   1      -5.261  -1.839 127.971  0.00  0.00    +0.277 C 
ENDBRANCH  14  18
BRANCH  16  20
ATOM     20  O   LIG A   1      -9.128   1.781 125.702  0.00  0.00    -0.491 OA
ATOM     21  C   LIG A   1      -9.562   1.897 124.346  0.00  0.00    +0.277 C 
ENDBRANCH  16  20
BRANCH  15  22
ATOM     22  O   LIG A   1      -8.384  -0.955 126.411  0.00  0.00    -0.488 OA
ATOM     23  C   LIG A   1      -8.902  -1.661 125.296  0.00  0.00    +0.277 C 
ENDBRANCH  15  22
ENDBRANCH   9  12
BRANCH   1  24
ATOM     24  O   LIG A   1      -4.862   3.274 128.929  0.00  0.00    -0.364 OA
ATOM     25  C   LIG A   1      -4.479   2.175 129.751  0.00  0.00    +0.195 C 
ENDBRANCH   1  24
BRANCH   6  26
ATOM     26  C   LIG A   1      -1.733   6.347 130.427  0.00  0.00    +0.065 C 
BRANCH  26  27
ATOM     27  C   LIG A   1      -2.063   5.910 131.830  0.00  0.00    -0.030 C 
ATOM     28  C   LIG A   1      -1.368   5.011 132.542  0.00  0.00    +0.004 C 
ENDBRANCH  26  27
ENDBRANCH   6  26
TORSDOF 7
ENDMDL
MODEL 5
REMARK VINA RESULT:      -6.5      3.277      4.576
REMARK  Name = NuBBE_1838
REMARK  12 active torsions:
REMARK  status: ('A' for Active; 'I' for Inactive)
REMARK    1  A    between atoms: O_1  and  C_2
REMARK    2  A    between atoms: O_1  and  C_3
REMARK    3  A    between atoms: C_8  and  C_10
REMARK    4  A    between atoms: C_10  and  C_11
REMARK    5  A    between atoms: C_14  and  C_19
REMARK    6  A    between atoms: C_16  and  C_18
REMARK    7  A    between atoms: C_21  and  O_22
REMARK    8  A    between atoms: O_22  and  C_23
REMARK    9  A    between atoms: C_24  and  O_29
REMARK   10  A    between atoms: C_25  and  O_27
REMARK   11  A    between atoms: O_27  and  C_28
REMARK   12  A    between atoms: O_29  and  C_30
REMARK                            x       y       z     vdW  Elec       q    Type
REMARK                         _______ _______ _______ _____ _____    ______ ____
ROOT
ATOM      1  C   LIG A   1      -6.419  -1.990 127.867  0.00  0.00    +0.151 C 
ATOM      2  C   LIG A   1      -7.192  -0.715 127.785  0.00  0.00    +0.138 C 
ATOM      3  C   LIG A   1      -7.189   0.090 126.727  0.00  0.00    +0.095 C 
ATOM      4  C   LIG A   1      -6.406  -0.288 125.524  0.00  0.00    +0.185 C 
ATOM      5  O   LIG A   1      -6.255   0.527 124.607  0.00  0.00    -0.287 OA
ATOM      6  C   LIG A   1      -5.882  -1.689 125.441  0.00  0.00    +0.002 C 
ATOM      7  C   LIG A   1      -5.942  -2.483 126.534  0.00  0.00    +0.023 C 
ATOM      8  O   LIG A   1      -8.056  -0.518 128.843  0.00  0.00    -0.485 OA
ATOM      9  C   LIG A   1      -8.167  -1.807 129.496  0.00  0.00    +0.210 C 
ATOM     10  C   LIG A   1      -7.454  -2.852 128.595  0.00  0.00    +0.074 C 
ATOM     11  C   LIG A   1      -8.483  -3.560 127.705  0.00  0.00    +0.015 C 
ENDROOT
BRANCH   9  12
ATOM     12  C   LIG A   1      -7.653  -1.775 130.925  0.00  0.00    +0.000 A 
ATOM     13  C   LIG A   1      -7.547  -0.547 131.586  0.00  0.00    +0.057 A 
ATOM     14  C   LIG A   1      -7.187  -0.481 132.935  0.00  0.00    +0.166 A 
ATOM     15  C   LIG A   1      -6.839  -1.658 133.638  0.00  0.00    +0.203 A 
ATOM     16  C   LIG A   1      -6.866  -2.893 132.958  0.00  0.00    +0.166 A 
ATOM     17  C   LIG A   1      -7.287  -2.933 131.618  0.00  0.00    +0.057 A 
BRANCH  14  18
ATOM     18  O   LIG A   1      -7.110   0.714 133.616  0.00  0.00    -0.491 OA
ATOM     19  C   LIG A   1      -7.517   1.872 132.892  0.00  0.00    +0.277 C 
ENDBRANCH  14  18
BRANCH  16  20
ATOM     20  O   LIG A   1      -6.570  -4.054 133.632  0.00  0.00    -0.491 OA
ATOM     21  C   LIG A   1      -5.343  -4.682 133.259  0.00  0.00    +0.277 C 
ENDBRANCH  16  20
BRANCH  15  22
ATOM     22  O   LIG A   1      -6.545  -1.453 134.964  0.00  0.00    -0.488 OA
ATOM     23  C   LIG A   1      -5.194  -1.476 135.393  0.00  0.00    +0.277 C 
ENDBRANCH  15  22
ENDBRANCH   9  12
BRANCH   1  24
ATOM     24  O   LIG A   1      -5.289  -1.877 128.750  0.00  0.00    -0.364 OA
ATOM     25  C   LIG A   1      -4.506  -3.053 128.937  0.00  0.00    +0.195 C 
ENDBRANCH   1  24
BRANCH   6  26
ATOM     26  C   LIG A   1      -5.319  -2.148 124.123  0.00  0.00    +0.065 C 
BRANCH  26  27
ATOM     27  C   LIG A   1      -5.249  -3.647 123.996  0.00  0.00    -0.030 C 
ATOM     28  C   LIG A   1      -4.172  -4.338 123.595  0.00  0.00    +0.004 C 
ENDBRANCH  26  27
ENDBRANCH   6  26
TORSDOF 7
ENDMDL
MODEL 6
REMARK VINA RESULT:      -6.5      4.889     10.089
REMARK  Name = NuBBE_1838
REMARK  12 active torsions:
REMARK  status: ('A' for Active; 'I' for Inactive)
REMARK    1  A    between atoms: O_1  and  C_2
REMARK    2  A    between atoms: O_1  and  C_3
REMARK    3  A    between atoms: C_8  and  C_10
REMARK    4  A    between atoms: C_10  and  C_11
REMARK    5  A    between atoms: C_14  and  C_19
REMARK    6  A    between atoms: C_16  and  C_18
REMARK    7  A    between atoms: C_21  and  O_22
REMARK    8  A    between atoms: O_22  and  C_23
REMARK    9  A    between atoms: C_24  and  O_29
REMARK   10  A    between atoms: C_25  and  O_27
REMARK   11  A    between atoms: O_27  and  C_28
REMARK   12  A    between atoms: O_29  and  C_30
REMARK                            x       y       z     vdW  Elec       q    Type
REMARK                         _______ _______ _______ _____ _____    ______ ____
ROOT
ATOM      1  C   LIG A   1      -3.053   6.920 131.398  0.00  0.00    +0.151 C 
ATOM      2  C   LIG A   1      -2.011   5.878 131.643  0.00  0.00    +0.138 C 
ATOM      3  C   LIG A   1      -0.863   6.109 132.274  0.00  0.00    +0.095 C 
ATOM      4  C   LIG A   1      -0.584   7.465 132.809  0.00  0.00    +0.185 C 
ATOM      5  O   LIG A   1       0.542   7.736 133.240  0.00  0.00    -0.287 OA
ATOM      6  C   LIG A   1      -1.718   8.442 132.868  0.00  0.00    +0.002 C 
ATOM      7  C   LIG A   1      -2.880   8.146 132.241  0.00  0.00    +0.023 C 
ATOM      8  O   LIG A   1      -2.410   4.600 131.308  0.00  0.00    -0.485 OA
ATOM      9  C   LIG A   1      -3.849   4.671 131.161  0.00  0.00    +0.210 C 
ATOM     10  C   LIG A   1      -4.303   6.073 131.654  0.00  0.00    +0.074 C 
ATOM     11  C   LIG A   1      -4.766   5.985 133.113  0.00  0.00    +0.015 C 
ENDROOT
BRANCH   9  12
ATOM     12  C   LIG A   1      -4.300   4.341 129.748  0.00  0.00    +0.000 A 
ATOM     13  C   LIG A   1      -3.414   3.696 128.881  0.00  0.00    +0.057 A 
ATOM     14  C   LIG A   1      -3.822   3.273 127.613  0.00  0.00    +0.166 A 
ATOM     15  C   LIG A   1      -5.125   3.567 127.149  0.00  0.00    +0.203 A 
ATOM     16  C   LIG A   1      -6.001   4.288 127.986  0.00  0.00    +0.166 A 
ATOM     17  C   LIG A   1      -5.580   4.649 129.277  0.00  0.00    +0.057 A 
BRANCH  14  18
ATOM     18  O   LIG A   1      -2.976   2.604 126.755  0.00  0.00    -0.491 OA
ATOM     19  C   LIG A   1      -1.645   3.108 126.673  0.00  0.00    +0.277 C 
ENDBRANCH  14  18
BRANCH  16  20
ATOM     20  O   LIG A   1      -7.286   4.550 127.572  0.00  0.00    -0.491 OA
ATOM     21  C   LIG A   1      -8.288   4.441 128.583  0.00  0.00    +0.277 C 
ENDBRANCH  16  20
BRANCH  15  22
ATOM     22  O   LIG A   1      -5.405   3.059 125.904  0.00  0.00    -0.488 OA
ATOM     23  C   LIG A   1      -5.392   3.920 124.778  0.00  0.00    +0.277 C 
ENDBRANCH  15  22
ENDBRANCH   9  12
BRANCH   1  24
ATOM     24  O   LIG A   1      -3.104   7.312 130.015  0.00  0.00    -0.364 OA
ATOM     25  C   LIG A   1      -4.009   8.361 129.683  0.00  0.00    +0.195 C 
ENDBRANCH   1  24
BRANCH   6  26
ATOM     26  C   LIG A   1      -1.504   9.715 133.641  0.00  0.00    +0.065 C 
BRANCH  26  27
ATOM     27  C   LIG A   1      -2.125  10.921 132.985  0.00  0.00    -0.030 C 
ATOM     28  C   LIG A   1      -2.649  11.969 133.637  0.00  0.00    +0.004 C 
ENDBRANCH  26  27
ENDBRANCH   6  26
TORSDOF 7
ENDMDL
MODEL 7
REMARK VINA RESULT:      -6.4      3.388      4.742
REMARK  Name = NuBBE_1838
REMARK  12 active torsions:
REMARK  status: ('A' for Active; 'I' for Inactive)
REMARK    1  A    between atoms: O_1  and  C_2
REMARK    2  A    between atoms: O_1  and  C_3
REMARK    3  A    between atoms: C_8  and  C_10
REMARK    4  A    between atoms: C_10  and  C_11
REMARK    5  A    between atoms: C_14  and  C_19
REMARK    6  A    between atoms: C_16  and  C_18
REMARK    7  A    between atoms: C_21  and  O_22
REMARK    8  A    between atoms: O_22  and  C_23
REMARK    9  A    between atoms: C_24  and  O_29
REMARK   10  A    between atoms: C_25  and  O_27
REMARK   11  A    between atoms: O_27  and  C_28
REMARK   12  A    between atoms: O_29  and  C_30
REMARK                            x       y       z     vdW  Elec       q    Type
REMARK                         _______ _______ _______ _____ _____    ______ ____
ROOT
ATOM      1  C   LIG A   1      -6.377  -1.971 128.044  0.00  0.00    +0.151 C 
ATOM      2  C   LIG A   1      -7.124  -0.677 128.069  0.00  0.00    +0.138 C 
ATOM      3  C   LIG A   1      -7.151   0.185 127.057  0.00  0.00    +0.095 C 
ATOM      4  C   LIG A   1      -6.434  -0.143 125.799  0.00  0.00    +0.185 C 
ATOM      5  O   LIG A   1      -6.308   0.718 124.921  0.00  0.00    -0.287 OA
ATOM      6  C   LIG A   1      -5.948  -1.548 125.615  0.00  0.00    +0.002 C 
ATOM      7  C   LIG A   1      -5.975  -2.400 126.666  0.00  0.00    +0.023 C 
ATOM      8  O   LIG A   1      -7.932  -0.521 129.176  0.00  0.00    -0.485 OA
ATOM      9  C   LIG A   1      -8.042  -1.841 129.763  0.00  0.00    +0.210 C 
ATOM     10  C   LIG A   1      -7.397  -2.850 128.774  0.00  0.00    +0.074 C 
ATOM     11  C   LIG A   1      -8.483  -3.485 127.897  0.00  0.00    +0.015 C 
ENDROOT
BRANCH   9  12
ATOM     12  C   LIG A   1      -7.462  -1.898 131.166  0.00  0.00    +0.000 A 
ATOM     13  C   LIG A   1      -6.982  -3.115 131.658  0.00  0.00    +0.057 A 
ATOM     14  C   LIG A   1      -6.340  -3.191 132.897  0.00  0.00    +0.166 A 
ATOM     15  C   LIG A   1      -6.238  -2.043 133.718  0.00  0.00    +0.203 A 
ATOM     16  C   LIG A   1      -6.790  -0.829 133.265  0.00  0.00    +0.166 A 
ATOM     17  C   LIG A   1      -7.379  -0.772 131.991  0.00  0.00    +0.057 A 
BRANCH  14  18
ATOM     18  O   LIG A   1      -5.827  -4.372 133.387  0.00  0.00    -0.491 OA
ATOM     19  C   LIG A   1      -4.875  -5.031 132.555  0.00  0.00    +0.277 C 
ENDBRANCH  14  18
BRANCH  16  20
ATOM     20  O   LIG A   1      -6.668   0.308 134.029  0.00  0.00    -0.491 OA
ATOM     21  C   LIG A   1      -5.751   1.283 133.531  0.00  0.00    +0.277 C 
ENDBRANCH  16  20
BRANCH  15  22
ATOM     22  O   LIG A   1      -5.548  -2.251 134.888  0.00  0.00    -0.488 OA
ATOM     23  C   LIG A   1      -4.186  -1.868 134.974  0.00  0.00    +0.277 C 
ENDBRANCH  15  22
ENDBRANCH   9  12
BRANCH   1  24
ATOM     24  O   LIG A   1      -5.206  -1.930 128.877  0.00  0.00    -0.364 OA
ATOM     25  C   LIG A   1      -4.407  -3.109 128.912  0.00  0.00    +0.195 C 
ENDBRANCH   1  24
BRANCH   6  26
ATOM     26  C   LIG A   1      -5.458  -1.945 124.249  0.00  0.00    +0.065 C 
BRANCH  26  27
ATOM     27  C   LIG A   1      -5.391  -3.437 124.052  0.00  0.00    -0.030 C 
ATOM     28  C   LIG A   1      -4.315  -4.110 123.618  0.00  0.00    +0.004 C 
ENDBRANCH  26  27
ENDBRANCH   6  26
TORSDOF 7
ENDMDL
MODEL 8
REMARK VINA RESULT:      -6.4      2.093      3.167
REMARK  Name = NuBBE_1838
REMARK  12 active torsions:
REMARK  status: ('A' for Active; 'I' for Inactive)
REMARK    1  A    between atoms: O_1  and  C_2
REMARK    2  A    between atoms: O_1  and  C_3
REMARK    3  A    between atoms: C_8  and  C_10
REMARK    4  A    between atoms: C_10  and  C_11
REMARK    5  A    between atoms: C_14  and  C_19
REMARK    6  A    between atoms: C_16  and  C_18
REMARK    7  A    between atoms: C_21  and  O_22
REMARK    8  A    between atoms: O_22  and  C_23
REMARK    9  A    between atoms: C_24  and  O_29
REMARK   10  A    between atoms: C_25  and  O_27
REMARK   11  A    between atoms: O_27  and  C_28
REMARK   12  A    between atoms: O_29  and  C_30
REMARK                            x       y       z     vdW  Elec       q    Type
REMARK                         _______ _______ _______ _____ _____    ______ ____
ROOT
ATOM      1  C   LIG A   1      -6.314  -1.588 127.463  0.00  0.00    +0.151 C 
ATOM      2  C   LIG A   1      -7.490  -2.477 127.702  0.00  0.00    +0.138 C 
ATOM      3  C   LIG A   1      -8.138  -3.126 126.740  0.00  0.00    +0.095 C 
ATOM      4  C   LIG A   1      -7.671  -3.008 125.336  0.00  0.00    +0.185 C 
ATOM      5  O   LIG A   1      -8.363  -3.463 124.418  0.00  0.00    -0.287 OA
ATOM      6  C   LIG A   1      -6.325  -2.395 125.094  0.00  0.00    +0.002 C 
ATOM      7  C   LIG A   1      -5.687  -1.778 126.115  0.00  0.00    +0.023 C 
ATOM      8  O   LIG A   1      -7.750  -2.710 129.037  0.00  0.00    -0.485 OA
ATOM      9  C   LIG A   1      -6.559  -2.284 129.743  0.00  0.00    +0.210 C 
ATOM     10  C   LIG A   1      -5.469  -1.974 128.681  0.00  0.00    +0.074 C 
ATOM     11  C   LIG A   1      -4.555  -3.193 128.503  0.00  0.00    +0.015 C 
ENDROOT
BRANCH   9  12
ATOM     12  C   LIG A   1      -6.835  -1.133 130.695  0.00  0.00    +0.000 A 
ATOM     13  C   LIG A   1      -8.153  -0.713 130.897  0.00  0.00    +0.057 A 
ATOM     14  C   LIG A   1      -8.463   0.265 131.846  0.00  0.00    +0.166 A 
ATOM     15  C   LIG A   1      -7.431   0.912 132.566  0.00  0.00    +0.203 A 
ATOM     16  C   LIG A   1      -6.092   0.552 132.311  0.00  0.00    +0.166 A 
ATOM     17  C   LIG A   1      -5.817  -0.475 131.392  0.00  0.00    +0.057 A 
BRANCH  14  18
ATOM     18  O   LIG A   1      -9.758   0.670 132.087  0.00  0.00    -0.491 OA
ATOM     19  C   LIG A   1     -10.172   1.862 131.425  0.00  0.00    +0.277 C 
ENDBRANCH  14  18
BRANCH  16  20
ATOM     20  O   LIG A   1      -5.075   1.139 133.027  0.00  0.00    -0.491 OA
ATOM     21  C   LIG A   1      -4.137   1.888 132.254  0.00  0.00    +0.277 C 
ENDBRANCH  16  20
BRANCH  15  22
ATOM     22  O   LIG A   1      -7.879   1.821 133.493  0.00  0.00    -0.488 OA
ATOM     23  C   LIG A   1      -7.524   3.188 133.360  0.00  0.00    +0.277 C 
ENDBRANCH  15  22
ENDBRANCH   9  12
BRANCH   1  24
ATOM     24  O   LIG A   1      -6.650  -0.199 127.625  0.00  0.00    -0.364 OA
ATOM     25  C   LIG A   1      -7.919   0.212 127.125  0.00  0.00    +0.195 C 
ENDBRANCH   1  24
BRANCH   6  26
ATOM     26  C   LIG A   1      -5.743  -2.511 123.712  0.00  0.00    +0.065 C 
BRANCH  26  27
ATOM     27  C   LIG A   1      -4.507  -3.370 123.657  0.00  0.00    -0.030 C 
ATOM     28  C   LIG A   1      -4.500  -4.710 123.620  0.00  0.00    +0.004 C 
ENDBRANCH  26  27
ENDBRANCH   6  26
TORSDOF 7
ENDMDL
MODEL 9
REMARK VINA RESULT:      -6.4      3.433      4.482
REMARK  Name = NuBBE_1838
REMARK  12 active torsions:
REMARK  status: ('A' for Active; 'I' for Inactive)
REMARK    1  A    between atoms: O_1  and  C_2
REMARK    2  A    between atoms: O_1  and  C_3
REMARK    3  A    between atoms: C_8  and  C_10
REMARK    4  A    between atoms: C_10  and  C_11
REMARK    5  A    between atoms: C_14  and  C_19
REMARK    6  A    between atoms: C_16  and  C_18
REMARK    7  A    between atoms: C_21  and  O_22
REMARK    8  A    between atoms: O_22  and  C_23
REMARK    9  A    between atoms: C_24  and  O_29
REMARK   10  A    between atoms: C_25  and  O_27
REMARK   11  A    between atoms: O_27  and  C_28
REMARK   12  A    between atoms: O_29  and  C_30
REMARK                            x       y       z     vdW  Elec       q    Type
REMARK                         _______ _______ _______ _____ _____    ______ ____
ROOT
ATOM      1  C   LIG A   1      -6.747   3.237 125.092  0.00  0.00    +0.151 C 
ATOM      2  C   LIG A   1      -8.186   2.838 125.036  0.00  0.00    +0.138 C 
ATOM      3  C   LIG A   1      -8.893   2.763 123.913  0.00  0.00    +0.095 C 
ATOM      4  C   LIG A   1      -8.234   3.053 122.615  0.00  0.00    +0.185 C 
ATOM      5  O   LIG A   1      -8.917   3.155 121.589  0.00  0.00    -0.287 OA
ATOM      6  C   LIG A   1      -6.739   3.141 122.591  0.00  0.00    +0.002 C 
ATOM      7  C   LIG A   1      -6.061   3.178 123.761  0.00  0.00    +0.023 C 
ATOM      8  O   LIG A   1      -8.685   2.385 126.240  0.00  0.00    -0.485 OA
ATOM      9  C   LIG A   1      -7.524   2.121 127.065  0.00  0.00    +0.210 C 
ATOM     10  C   LIG A   1      -6.267   2.253 126.163  0.00  0.00    +0.074 C 
ATOM     11  C   LIG A   1      -5.841   0.868 125.660  0.00  0.00    +0.015 C 
ENDROOT
BRANCH   9  12
ATOM     12  C   LIG A   1      -7.487   2.999 128.304  0.00  0.00    +0.000 A 
ATOM     13  C   LIG A   1      -6.623   2.666 129.352  0.00  0.00    +0.057 A 
ATOM     14  C   LIG A   1      -6.475   3.505 130.460  0.00  0.00    +0.166 A 
ATOM     15  C   LIG A   1      -7.264   4.672 130.582  0.00  0.00    +0.203 A 
ATOM     16  C   LIG A   1      -8.196   4.974 129.568  0.00  0.00    +0.166 A 
ATOM     17  C   LIG A   1      -8.282   4.142 128.440  0.00  0.00    +0.057 A 
BRANCH  14  18
ATOM     18  O   LIG A   1      -5.603   3.216 131.488  0.00  0.00    -0.491 OA
ATOM     19  C   LIG A   1      -4.219   3.199 131.146  0.00  0.00    +0.277 C 
ENDBRANCH  14  18
BRANCH  16  20
ATOM     20  O   LIG A   1      -8.946   6.124 129.646  0.00  0.00    -0.491 OA
ATOM     21  C   LIG A   1     -10.290   5.948 130.097  0.00  0.00    +0.277 C 
ENDBRANCH  16  20
BRANCH  15  22
ATOM     22  O   LIG A   1      -6.987   5.423 131.698  0.00  0.00    -0.488 OA
ATOM     23  C   LIG A   1      -6.212   6.603 131.572  0.00  0.00    +0.277 C 
ENDBRANCH  15  22
ENDBRANCH   9  12
BRANCH   1  24
ATOM     24  O   LIG A   1      -6.576   4.554 125.643  0.00  0.00    -0.364 OA
ATOM     25  C   LIG A   1      -5.265   4.895 126.084  0.00  0.00    +0.195 C 
ENDBRANCH   1  24
BRANCH   6  26
ATOM     26  C   LIG A   1      -6.062   3.175 121.248  0.00  0.00    +0.065 C 
BRANCH  26  27
ATOM     27  C   LIG A   1      -5.291   4.446 121.002  0.00  0.00    -0.030 C 
ATOM     28  C   LIG A   1      -5.340   5.172 119.876  0.00  0.00    +0.004 C 
ENDBRANCH  26  27
ENDBRANCH   6  26
TORSDOF 7
ENDMDL
