MODEL 1
REMARK VINA RESULT:      -7.5      0.000      0.000
REMARK  Name = NuBBE_2430
REMARK  5 active torsions:
REMARK  status: ('A' for Active; 'I' for Inactive)
REMARK    1  A    between atoms: C_6  and  C_9
REMARK    2  A    between atoms: C_7  and  O_8
REMARK    3  A    between atoms: C_16  and  O_20
REMARK    4  A    between atoms: C_18  and  O_19
REMARK    5  A    between atoms: O_20  and  C_21
REMARK                            x       y       z     vdW  Elec       q    Type
REMARK                         _______ _______ _______ _____ _____    ______ ____
ROOT
ATOM      1  O   LIG A   1      -8.896   2.346 125.830  0.00  0.00    -0.283 OA
ATOM      2  C   LIG A   1      -8.210   1.948 124.894  0.00  0.00    +0.238 A 
ATOM      3  C   LIG A   1      -7.798   0.550 124.671  0.00  0.00    +0.109 A 
ATOM      4  C   LIG A   1      -7.024   0.278 123.545  0.00  0.00    +0.146 A 
ATOM      5  O   LIG A   1      -6.604   1.244 122.663  0.00  0.00    -0.451 OA
ATOM      6  C   LIG A   1      -6.985   2.567 122.867  0.00  0.00    +0.181 A 
ATOM      7  C   LIG A   1      -7.761   2.953 123.897  0.00  0.00    +0.208 A 
ATOM      8  C   LIG A   1      -6.617  -1.030 123.257  0.00  0.00    +0.092 A 
ATOM      9  C   LIG A   1      -6.982  -2.074 124.104  0.00  0.00    +0.127 A 
ATOM     10  C   LIG A   1      -7.730  -1.803 125.251  0.00  0.00    +0.092 A 
ATOM     11  C   LIG A   1      -8.146  -0.498 125.530  0.00  0.00    +0.135 A 
ENDROOT
BRANCH   6  12
ATOM     12  C   LIG A   1      -6.460   3.487 121.822  0.00  0.00    +0.021 A 
ATOM     13  C   LIG A   1      -7.166   3.664 120.618  0.00  0.00    +0.012 A 
ATOM     14  C   LIG A   1      -6.682   4.504 119.609  0.00  0.00    +0.001 A 
ATOM     15  C   LIG A   1      -5.482   5.185 119.784  0.00  0.00    +0.000 A 
ATOM     16  C   LIG A   1      -4.761   5.019 120.962  0.00  0.00    +0.001 A 
ATOM     17  C   LIG A   1      -5.241   4.169 121.964  0.00  0.00    +0.012 A 
ENDBRANCH   6  12
BRANCH   7  18
ATOM     18  O   LIG A   1      -8.199   4.249 124.112  0.00  0.00    -0.501 OA
ATOM     19  H   LIG A   1      -8.528   4.244 125.038  0.00  0.00    +0.292 HD
ENDBRANCH   7  18
BRANCH  11  20
ATOM     20  O   LIG A   1      -8.891  -0.270 126.650  0.00  0.00    -0.506 OA
ATOM     21  H   LIG A   1      -8.486   0.428 127.189  0.00  0.00    +0.292 HD
ENDBRANCH  11  20
BRANCH   9  22
ATOM     22  O   LIG A   1      -6.624  -3.384 123.942  0.00  0.00    -0.495 OA
ATOM     23  C   LIG A   1      -5.224  -3.647 123.954  0.00  0.00    +0.277 C 
ENDBRANCH   9  22
TORSDOF 4
ENDMDL
MODEL 2
REMARK VINA RESULT:      -7.3      7.830     11.209
REMARK  Name = NuBBE_2430
REMARK  5 active torsions:
REMARK  status: ('A' for Active; 'I' for Inactive)
REMARK    1  A    between atoms: C_6  and  C_9
REMARK    2  A    between atoms: C_7  and  O_8
REMARK    3  A    between atoms: C_16  and  O_20
REMARK    4  A    between atoms: C_18  and  O_19
REMARK    5  A    between atoms: O_20  and  C_21
REMARK                            x       y       z     vdW  Elec       q    Type
REMARK                         _______ _______ _______ _____ _____    ______ ____
ROOT
ATOM      1  O   LIG A   1      -8.903   5.268 127.445  0.00  0.00    -0.283 OA
ATOM      2  C   LIG A   1      -9.364   5.739 128.478  0.00  0.00    +0.238 A 
ATOM      3  C   LIG A   1     -10.421   6.765 128.552  0.00  0.00    +0.109 A 
ATOM      4  C   LIG A   1     -10.831   7.179 129.819  0.00  0.00    +0.146 A 
ATOM      5  O   LIG A   1     -10.280   6.706 130.985  0.00  0.00    -0.451 OA
ATOM      6  C   LIG A   1      -9.279   5.740 130.925  0.00  0.00    +0.181 A 
ATOM      7  C   LIG A   1      -8.822   5.233 129.765  0.00  0.00    +0.208 A 
ATOM      8  C   LIG A   1     -11.847   8.131 129.966  0.00  0.00    +0.092 A 
ATOM      9  C   LIG A   1     -12.454   8.679 128.837  0.00  0.00    +0.127 A 
ATOM     10  C   LIG A   1     -12.025   8.292 127.567  0.00  0.00    +0.092 A 
ATOM     11  C   LIG A   1     -11.020   7.332 127.423  0.00  0.00    +0.135 A 
ENDROOT
BRANCH   6  12
ATOM     12  C   LIG A   1      -8.796   5.325 132.270  0.00  0.00    +0.021 A 
ATOM     13  C   LIG A   1      -7.724   6.005 132.875  0.00  0.00    +0.012 A 
ATOM     14  C   LIG A   1      -7.234   5.619 134.128  0.00  0.00    +0.001 A 
ATOM     15  C   LIG A   1      -7.808   4.546 134.802  0.00  0.00    +0.000 A 
ATOM     16  C   LIG A   1      -8.862   3.851 134.219  0.00  0.00    +0.001 A 
ATOM     17  C   LIG A   1      -9.342   4.231 132.961  0.00  0.00    +0.012 A 
ENDBRANCH   6  12
BRANCH   7  18
ATOM     18  O   LIG A   1      -7.860   4.241 129.663  0.00  0.00    -0.501 OA
ATOM     19  H   LIG A   1      -8.020   3.667 130.445  0.00  0.00    +0.292 HD
ENDBRANCH   7  18
BRANCH  11  20
ATOM     20  O   LIG A   1     -10.636   6.964 126.166  0.00  0.00    -0.506 OA
ATOM     21  H   LIG A   1     -11.174   7.423 125.500  0.00  0.00    +0.292 HD
ENDBRANCH  11  20
BRANCH   9  22
ATOM     22  O   LIG A   1     -13.434   9.632 128.853  0.00  0.00    -0.495 OA
ATOM     23  C   LIG A   1     -13.345  10.592 129.903  0.00  0.00    +0.277 C 
ENDBRANCH   9  22
TORSDOF 4
ENDMDL
MODEL 3
REMARK VINA RESULT:      -7.2      3.360      6.041
REMARK  Name = NuBBE_2430
REMARK  5 active torsions:
REMARK  status: ('A' for Active; 'I' for Inactive)
REMARK    1  A    between atoms: C_6  and  C_9
REMARK    2  A    between atoms: C_7  and  O_8
REMARK    3  A    between atoms: C_16  and  O_20
REMARK    4  A    between atoms: C_18  and  O_19
REMARK    5  A    between atoms: O_20  and  C_21
REMARK                            x       y       z     vdW  Elec       q    Type
REMARK                         _______ _______ _______ _____ _____    ______ ____
ROOT
ATOM      1  O   LIG A   1      -8.728   4.119 125.087  0.00  0.00    -0.283 OA
ATOM      2  C   LIG A   1      -8.055   3.107 125.248  0.00  0.00    +0.238 A 
ATOM      3  C   LIG A   1      -6.668   3.074 125.748  0.00  0.00    +0.109 A 
ATOM      4  C   LIG A   1      -6.058   1.828 125.877  0.00  0.00    +0.146 A 
ATOM      5  O   LIG A   1      -6.669   0.647 125.533  0.00  0.00    -0.451 OA
ATOM      6  C   LIG A   1      -7.977   0.668 125.056  0.00  0.00    +0.181 A 
ATOM      7  C   LIG A   1      -8.686   1.803 124.920  0.00  0.00    +0.208 A 
ATOM      8  C   LIG A   1      -4.752   1.719 126.369  0.00  0.00    +0.092 A 
ATOM      9  C   LIG A   1      -4.047   2.866 126.730  0.00  0.00    +0.127 A 
ATOM     10  C   LIG A   1      -4.642   4.119 126.573  0.00  0.00    +0.092 A 
ATOM     11  C   LIG A   1      -5.950   4.224 126.093  0.00  0.00    +0.135 A 
ENDROOT
BRANCH   6  12
ATOM     12  C   LIG A   1      -8.498  -0.690 124.739  0.00  0.00    +0.021 A 
ATOM     13  C   LIG A   1      -8.955  -1.529 125.770  0.00  0.00    +0.012 A 
ATOM     14  C   LIG A   1      -9.426  -2.820 125.501  0.00  0.00    +0.001 A 
ATOM     15  C   LIG A   1      -9.451  -3.295 124.195  0.00  0.00    +0.000 A 
ATOM     16  C   LIG A   1      -8.994  -2.487 123.159  0.00  0.00    +0.001 A 
ATOM     17  C   LIG A   1      -8.512  -1.203 123.431  0.00  0.00    +0.012 A 
ENDBRANCH   6  12
BRANCH   7  18
ATOM     18  O   LIG A   1     -10.002   1.864 124.492  0.00  0.00    -0.501 OA
ATOM     19  H   LIG A   1     -10.370   2.653 124.949  0.00  0.00    +0.292 HD
ENDBRANCH   7  18
BRANCH  11  20
ATOM     20  O   LIG A   1      -6.507   5.464 125.968  0.00  0.00    -0.506 OA
ATOM     21  H   LIG A   1      -7.390   5.480 126.371  0.00  0.00    +0.292 HD
ENDBRANCH  11  20
BRANCH   9  22
ATOM     22  O   LIG A   1      -2.762   2.888 127.196  0.00  0.00    -0.495 OA
ATOM     23  C   LIG A   1      -1.763   3.228 126.238  0.00  0.00    +0.277 C 
ENDBRANCH   9  22
TORSDOF 4
ENDMDL
MODEL 4
REMARK VINA RESULT:      -7.0      3.363      7.486
REMARK  Name = NuBBE_2430
REMARK  5 active torsions:
REMARK  status: ('A' for Active; 'I' for Inactive)
REMARK    1  A    between atoms: C_6  and  C_9
REMARK    2  A    between atoms: C_7  and  O_8
REMARK    3  A    between atoms: C_16  and  O_20
REMARK    4  A    between atoms: C_18  and  O_19
REMARK    5  A    between atoms: O_20  and  C_21
REMARK                            x       y       z     vdW  Elec       q    Type
REMARK                         _______ _______ _______ _____ _____    ______ ____
ROOT
ATOM      1  O   LIG A   1      -9.574  -2.430 123.772  0.00  0.00    -0.283 OA
ATOM      2  C   LIG A   1      -9.001  -1.758 124.623  0.00  0.00    +0.238 A 
ATOM      3  C   LIG A   1      -8.946  -0.285 124.654  0.00  0.00    +0.109 A 
ATOM      4  C   LIG A   1      -8.255   0.312 125.708  0.00  0.00    +0.146 A 
ATOM      5  O   LIG A   1      -7.603  -0.399 126.685  0.00  0.00    -0.451 OA
ATOM      6  C   LIG A   1      -7.647  -1.790 126.662  0.00  0.00    +0.181 A 
ATOM      7  C   LIG A   1      -8.310  -2.485 125.719  0.00  0.00    +0.208 A 
ATOM      8  C   LIG A   1      -8.182   1.706 125.815  0.00  0.00    +0.092 A 
ATOM      9  C   LIG A   1      -8.801   2.510 124.859  0.00  0.00    +0.127 A 
ATOM     10  C   LIG A   1      -9.467   1.917 123.786  0.00  0.00    +0.092 A 
ATOM     11  C   LIG A   1      -9.548   0.526 123.687  0.00  0.00    +0.135 A 
ENDROOT
BRANCH   6  12
ATOM     12  C   LIG A   1      -6.903  -2.410 127.792  0.00  0.00    +0.021 A 
ATOM     13  C   LIG A   1      -5.498  -2.344 127.833  0.00  0.00    +0.012 A 
ATOM     14  C   LIG A   1      -4.774  -2.940 128.872  0.00  0.00    +0.001 A 
ATOM     15  C   LIG A   1      -5.440  -3.614 129.891  0.00  0.00    +0.000 A 
ATOM     16  C   LIG A   1      -6.828  -3.701 129.866  0.00  0.00    +0.001 A 
ATOM     17  C   LIG A   1      -7.549  -3.115 128.821  0.00  0.00    +0.012 A 
ENDBRANCH   6  12
BRANCH   7  18
ATOM     18  O   LIG A   1      -8.415  -3.865 125.684  0.00  0.00    -0.501 OA
ATOM     19  H   LIG A   1      -7.497  -4.182 125.839  0.00  0.00    +0.292 HD
ENDBRANCH   7  18
BRANCH  11  20
ATOM     20  O   LIG A   1     -10.222  -0.021 122.634  0.00  0.00    -0.506 OA
ATOM     21  H   LIG A   1     -10.637  -0.859 122.896  0.00  0.00    +0.292 HD
ENDBRANCH  11  20
BRANCH   9  22
ATOM     22  O   LIG A   1      -8.777   3.877 124.844  0.00  0.00    -0.495 OA
ATOM     23  C   LIG A   1      -7.979   4.492 125.851  0.00  0.00    +0.277 C 
ENDBRANCH   9  22
TORSDOF 4
ENDMDL
MODEL 5
REMARK VINA RESULT:      -7.0      8.898     10.874
REMARK  Name = NuBBE_2430
REMARK  5 active torsions:
REMARK  status: ('A' for Active; 'I' for Inactive)
REMARK    1  A    between atoms: C_6  and  C_9
REMARK    2  A    between atoms: C_7  and  O_8
REMARK    3  A    between atoms: C_16  and  O_20
REMARK    4  A    between atoms: C_18  and  O_19
REMARK    5  A    between atoms: O_20  and  C_21
REMARK                            x       y       z     vdW  Elec       q    Type
REMARK                         _______ _______ _______ _____ _____    ______ ____
ROOT
ATOM      1  O   LIG A   1      -9.374   2.391 131.302  0.00  0.00    -0.283 OA
ATOM      2  C   LIG A   1      -9.370   3.558 131.676  0.00  0.00    +0.238 A 
ATOM      3  C   LIG A   1      -8.670   4.072 132.868  0.00  0.00    +0.109 A 
ATOM      4  C   LIG A   1      -8.769   5.436 133.136  0.00  0.00    +0.146 A 
ATOM      5  O   LIG A   1      -9.507   6.306 132.371  0.00  0.00    -0.451 OA
ATOM      6  C   LIG A   1     -10.174   5.830 131.246  0.00  0.00    +0.181 A 
ATOM      7  C   LIG A   1     -10.128   4.542 130.860  0.00  0.00    +0.208 A 
ATOM      8  C   LIG A   1      -8.110   5.997 134.236  0.00  0.00    +0.092 A 
ATOM      9  C   LIG A   1      -7.350   5.188 135.079  0.00  0.00    +0.127 A 
ATOM     10  C   LIG A   1      -7.274   3.816 134.833  0.00  0.00    +0.092 A 
ATOM     11  C   LIG A   1      -7.923   3.260 133.727  0.00  0.00    +0.135 A 
ENDROOT
BRANCH   6  12
ATOM     12  C   LIG A   1     -10.917   6.897 130.520  0.00  0.00    +0.021 A 
ATOM     13  C   LIG A   1     -12.196   7.287 130.955  0.00  0.00    +0.012 A 
ATOM     14  C   LIG A   1     -12.926   8.270 130.276  0.00  0.00    +0.001 A 
ATOM     15  C   LIG A   1     -12.389   8.883 129.149  0.00  0.00    +0.000 A 
ATOM     16  C   LIG A   1     -11.130   8.507 128.694  0.00  0.00    +0.001 A 
ATOM     17  C   LIG A   1     -10.408   7.516 129.367  0.00  0.00    +0.012 A 
ENDBRANCH   6  12
BRANCH   7  18
ATOM     18  O   LIG A   1     -10.740   4.036 129.725  0.00  0.00    -0.501 OA
ATOM     19  H   LIG A   1     -10.952   3.105 129.959  0.00  0.00    +0.292 HD
ENDBRANCH   7  18
BRANCH  11  20
ATOM     20  O   LIG A   1      -7.813   1.917 133.506  0.00  0.00    -0.506 OA
ATOM     21  H   LIG A   1      -8.486   1.435 134.012  0.00  0.00    +0.292 HD
ENDBRANCH  11  20
BRANCH   9  22
ATOM     22  O   LIG A   1      -6.685   5.615 136.194  0.00  0.00    -0.495 OA
ATOM     23  C   LIG A   1      -7.390   6.542 137.016  0.00  0.00    +0.277 C 
ENDBRANCH   9  22
TORSDOF 4
ENDMDL
MODEL 6
REMARK VINA RESULT:      -7.0      8.895     10.477
REMARK  Name = NuBBE_2430
REMARK  5 active torsions:
REMARK  status: ('A' for Active; 'I' for Inactive)
REMARK    1  A    between atoms: C_6  and  C_9
REMARK    2  A    between atoms: C_7  and  O_8
REMARK    3  A    between atoms: C_16  and  O_20
REMARK    4  A    between atoms: C_18  and  O_19
REMARK    5  A    between atoms: O_20  and  C_21
REMARK                            x       y       z     vdW  Elec       q    Type
REMARK                         _______ _______ _______ _____ _____    ______ ____
ROOT
ATOM      1  O   LIG A   1      -9.779   5.177 133.267  0.00  0.00    -0.283 OA
ATOM      2  C   LIG A   1      -9.291   5.750 132.300  0.00  0.00    +0.238 A 
ATOM      3  C   LIG A   1     -10.045   6.513 131.288  0.00  0.00    +0.109 A 
ATOM      4  C   LIG A   1      -9.321   7.109 130.257  0.00  0.00    +0.146 A 
ATOM      5  O   LIG A   1      -7.960   6.991 130.122  0.00  0.00    -0.451 OA
ATOM      6  C   LIG A   1      -7.239   6.270 131.069  0.00  0.00    +0.181 A 
ATOM      7  C   LIG A   1      -7.816   5.678 132.131  0.00  0.00    +0.208 A 
ATOM      8  C   LIG A   1      -9.969   7.869 129.275  0.00  0.00    +0.092 A 
ATOM      9  C   LIG A   1     -11.352   8.030 129.322  0.00  0.00    +0.127 A 
ATOM     10  C   LIG A   1     -12.086   7.409 130.335  0.00  0.00    +0.092 A 
ATOM     11  C   LIG A   1     -11.436   6.661 131.320  0.00  0.00    +0.135 A 
ENDROOT
BRANCH   6  12
ATOM     12  C   LIG A   1      -5.777   6.245 130.788  0.00  0.00    +0.021 A 
ATOM     13  C   LIG A   1      -5.184   5.097 130.233  0.00  0.00    +0.012 A 
ATOM     14  C   LIG A   1      -3.809   5.039 129.982  0.00  0.00    +0.001 A 
ATOM     15  C   LIG A   1      -2.999   6.130 130.280  0.00  0.00    +0.000 A 
ATOM     16  C   LIG A   1      -3.561   7.273 130.839  0.00  0.00    +0.001 A 
ATOM     17  C   LIG A   1      -4.934   7.324 131.100  0.00  0.00    +0.012 A 
ENDBRANCH   6  12
BRANCH   7  18
ATOM     18  O   LIG A   1      -7.132   4.989 133.119  0.00  0.00    -0.501 OA
ATOM     19  H   LIG A   1      -7.033   4.080 132.757  0.00  0.00    +0.292 HD
ENDBRANCH   7  18
BRANCH  11  20
ATOM     20  O   LIG A   1     -12.181   6.082 132.306  0.00  0.00    -0.506 OA
ATOM     21  H   LIG A   1     -12.400   6.733 132.991  0.00  0.00    +0.292 HD
ENDBRANCH  11  20
BRANCH   9  22
ATOM     22  O   LIG A   1     -12.097   8.725 128.410  0.00  0.00    -0.495 OA
ATOM     23  C   LIG A   1     -13.107   9.570 128.952  0.00  0.00    +0.277 C 
ENDBRANCH   9  22
TORSDOF 4
ENDMDL
MODEL 7
REMARK VINA RESULT:      -6.7      8.414      9.783
REMARK  Name = NuBBE_2430
REMARK  5 active torsions:
REMARK  status: ('A' for Active; 'I' for Inactive)
REMARK    1  A    between atoms: C_6  and  C_9
REMARK    2  A    between atoms: C_7  and  O_8
REMARK    3  A    between atoms: C_16  and  O_20
REMARK    4  A    between atoms: C_18  and  O_19
REMARK    5  A    between atoms: O_20  and  C_21
REMARK                            x       y       z     vdW  Elec       q    Type
REMARK                         _______ _______ _______ _____ _____    ______ ____
ROOT
ATOM      1  O   LIG A   1      -8.813   2.915 131.074  0.00  0.00    -0.283 OA
ATOM      2  C   LIG A   1      -8.618   4.112 130.895  0.00  0.00    +0.238 A 
ATOM      3  C   LIG A   1      -7.374   4.834 131.224  0.00  0.00    +0.109 A 
ATOM      4  C   LIG A   1      -7.326   6.198 130.941  0.00  0.00    +0.146 A 
ATOM      5  O   LIG A   1      -8.380   6.898 130.409  0.00  0.00    -0.451 OA
ATOM      6  C   LIG A   1      -9.559   6.227 130.098  0.00  0.00    +0.181 A 
ATOM      7  C   LIG A   1      -9.719   4.904 130.290  0.00  0.00    +0.208 A 
ATOM      8  C   LIG A   1      -6.168   6.941 131.204  0.00  0.00    +0.092 A 
ATOM      9  C   LIG A   1      -5.053   6.317 131.759  0.00  0.00    +0.127 A 
ATOM     10  C   LIG A   1      -5.107   4.958 132.074  0.00  0.00    +0.092 A 
ATOM     11  C   LIG A   1      -6.259   4.216 131.799  0.00  0.00    +0.135 A 
ENDROOT
BRANCH   6  12
ATOM     12  C   LIG A   1     -10.599   7.122 129.521  0.00  0.00    +0.021 A 
ATOM     13  C   LIG A   1     -11.677   7.554 130.314  0.00  0.00    +0.012 A 
ATOM     14  C   LIG A   1     -12.681   8.376 129.789  0.00  0.00    +0.001 A 
ATOM     15  C   LIG A   1     -12.625   8.783 128.460  0.00  0.00    +0.000 A 
ATOM     16  C   LIG A   1     -11.574   8.361 127.653  0.00  0.00    +0.001 A 
ATOM     17  C   LIG A   1     -10.579   7.529 128.177  0.00  0.00    +0.012 A 
ENDBRANCH   6  12
BRANCH   7  18
ATOM     18  O   LIG A   1     -10.858   4.191 129.955  0.00  0.00    -0.501 OA
ATOM     19  H   LIG A   1     -11.297   4.016 130.817  0.00  0.00    +0.292 HD
ENDBRANCH   7  18
BRANCH  11  20
ATOM     20  O   LIG A   1      -6.272   2.885 132.103  0.00  0.00    -0.506 OA
ATOM     21  H   LIG A   1      -7.125   2.636 132.494  0.00  0.00    +0.292 HD
ENDBRANCH  11  20
BRANCH   9  22
ATOM     22  O   LIG A   1      -3.880   6.941 132.083  0.00  0.00    -0.495 OA
ATOM     23  C   LIG A   1      -3.406   7.894 131.137  0.00  0.00    +0.277 C 
ENDBRANCH   9  22
TORSDOF 4
ENDMDL
MODEL 8
REMARK VINA RESULT:      -6.6      1.821      2.423
REMARK  Name = NuBBE_2430
REMARK  5 active torsions:
REMARK  status: ('A' for Active; 'I' for Inactive)
REMARK    1  A    between atoms: C_6  and  C_9
REMARK    2  A    between atoms: C_7  and  O_8
REMARK    3  A    between atoms: C_16  and  O_20
REMARK    4  A    between atoms: C_18  and  O_19
REMARK    5  A    between atoms: O_20  and  C_21
REMARK                            x       y       z     vdW  Elec       q    Type
REMARK                         _______ _______ _______ _____ _____    ______ ____
ROOT
ATOM      1  O   LIG A   1      -7.531   4.660 127.341  0.00  0.00    -0.283 OA
ATOM      2  C   LIG A   1      -7.343   3.837 126.453  0.00  0.00    +0.238 A 
ATOM      3  C   LIG A   1      -7.508   2.378 126.592  0.00  0.00    +0.109 A 
ATOM      4  C   LIG A   1      -7.259   1.590 125.469  0.00  0.00    +0.146 A 
ATOM      5  O   LIG A   1      -6.839   2.101 124.265  0.00  0.00    -0.451 OA
ATOM      6  C   LIG A   1      -6.677   3.476 124.125  0.00  0.00    +0.181 A 
ATOM      7  C   LIG A   1      -6.920   4.346 125.123  0.00  0.00    +0.208 A 
ATOM      8  C   LIG A   1      -7.419   0.200 125.521  0.00  0.00    +0.092 A 
ATOM      9  C   LIG A   1      -7.826  -0.408 126.707  0.00  0.00    +0.127 A 
ATOM     10  C   LIG A   1      -8.046   0.372 127.843  0.00  0.00    +0.092 A 
ATOM     11  C   LIG A   1      -7.897   1.760 127.785  0.00  0.00    +0.135 A 
ENDROOT
BRANCH   6  12
ATOM     12  C   LIG A   1      -6.230   3.869 122.761  0.00  0.00    +0.021 A 
ATOM     13  C   LIG A   1      -7.031   3.572 121.643  0.00  0.00    +0.012 A 
ATOM     14  C   LIG A   1      -6.622   3.908 120.347  0.00  0.00    +0.001 A 
ATOM     15  C   LIG A   1      -5.405   4.550 120.144  0.00  0.00    +0.000 A 
ATOM     16  C   LIG A   1      -4.591   4.845 121.233  0.00  0.00    +0.001 A 
ATOM     17  C   LIG A   1      -4.996   4.497 122.526  0.00  0.00    +0.012 A 
ENDBRANCH   6  12
BRANCH   7  18
ATOM     18  O   LIG A   1      -6.814   5.722 125.013  0.00  0.00    -0.501 OA
ATOM     19  H   LIG A   1      -7.726   6.019 124.796  0.00  0.00    +0.292 HD
ENDBRANCH   7  18
BRANCH  11  20
ATOM     20  O   LIG A   1      -8.137   2.496 128.910  0.00  0.00    -0.506 OA
ATOM     21  H   LIG A   1      -8.500   3.365 128.675  0.00  0.00    +0.292 HD
ENDBRANCH  11  20
BRANCH   9  22
ATOM     22  O   LIG A   1      -7.992  -1.753 126.886  0.00  0.00    -0.495 OA
ATOM     23  C   LIG A   1      -7.314  -2.589 125.952  0.00  0.00    +0.277 C 
ENDBRANCH   9  22
TORSDOF 4
ENDMDL
MODEL 9
REMARK VINA RESULT:      -6.5      2.903      6.991
REMARK  Name = NuBBE_2430
REMARK  5 active torsions:
REMARK  status: ('A' for Active; 'I' for Inactive)
REMARK    1  A    between atoms: C_6  and  C_9
REMARK    2  A    between atoms: C_7  and  O_8
REMARK    3  A    between atoms: C_16  and  O_20
REMARK    4  A    between atoms: C_18  and  O_19
REMARK    5  A    between atoms: O_20  and  C_21
REMARK                            x       y       z     vdW  Elec       q    Type
REMARK                         _______ _______ _______ _____ _____    ______ ____
ROOT
ATOM      1  O   LIG A   1      -8.672   1.795 123.364  0.00  0.00    -0.283 OA
ATOM      2  C   LIG A   1      -8.002   1.444 124.329  0.00  0.00    +0.238 A 
ATOM      3  C   LIG A   1      -6.800   2.135 124.832  0.00  0.00    +0.109 A 
ATOM      4  C   LIG A   1      -6.168   1.597 125.951  0.00  0.00    +0.146 A 
ATOM      5  O   LIG A   1      -6.586   0.449 126.579  0.00  0.00    -0.451 OA
ATOM      6  C   LIG A   1      -7.718  -0.212 126.109  0.00  0.00    +0.181 A 
ATOM      7  C   LIG A   1      -8.438   0.226 125.060  0.00  0.00    +0.208 A 
ATOM      8  C   LIG A   1      -5.036   2.214 126.498  0.00  0.00    +0.092 A 
ATOM      9  C   LIG A   1      -4.529   3.375 125.918  0.00  0.00    +0.127 A 
ATOM     10  C   LIG A   1      -5.140   3.900 124.778  0.00  0.00    +0.092 A 
ATOM     11  C   LIG A   1      -6.276   3.290 124.241  0.00  0.00    +0.135 A 
ENDROOT
BRANCH   6  12
ATOM     12  C   LIG A   1      -8.046  -1.429 126.902  0.00  0.00    +0.021 A 
ATOM     13  C   LIG A   1      -7.666  -1.515 128.253  0.00  0.00    +0.012 A 
ATOM     14  C   LIG A   1      -7.940  -2.657 129.013  0.00  0.00    +0.001 A 
ATOM     15  C   LIG A   1      -8.602  -3.737 128.437  0.00  0.00    +0.000 A 
ATOM     16  C   LIG A   1      -8.979  -3.679 127.099  0.00  0.00    +0.001 A 
ATOM     17  C   LIG A   1      -8.692  -2.541 126.338  0.00  0.00    +0.012 A 
ENDBRANCH   6  12
BRANCH   7  18
ATOM     18  O   LIG A   1      -9.592  -0.376 124.589  0.00  0.00    -0.501 OA
ATOM     19  H   LIG A   1      -9.964  -0.835 125.375  0.00  0.00    +0.292 HD
ENDBRANCH   7  18
BRANCH  11  20
ATOM     20  O   LIG A   1      -6.859   3.839 123.136  0.00  0.00    -0.506 OA
ATOM     21  H   LIG A   1      -7.111   4.760 123.309  0.00  0.00    +0.292 HD
ENDBRANCH  11  20
BRANCH   9  22
ATOM     22  O   LIG A   1      -3.419   4.050 126.344  0.00  0.00    -0.495 OA
ATOM     23  C   LIG A   1      -2.270   3.249 126.602  0.00  0.00    +0.277 C 
ENDBRANCH   9  22
TORSDOF 4
ENDMDL
