MODEL 1
REMARK VINA RESULT:      -7.1      0.000      0.000
REMARK  Name = NuBBE_79
REMARK  3 active torsions:
REMARK  status: ('A' for Active; 'I' for Inactive)
REMARK    1  A    between atoms: C_2  and  C_8
REMARK    2  A    between atoms: C_9  and  C_10
REMARK    3  A    between atoms: C_11  and  C_12
REMARK                            x       y       z     vdW  Elec       q    Type
REMARK                         _______ _______ _______ _____ _____    ______ ____
ROOT
ATOM      1  C   LIG A   1      -7.856   6.089 132.069  0.00  0.00    +0.001 C 
ATOM      2  C   LIG A   1      -7.029   6.730 131.230  0.00  0.00    +0.008 C 
ENDROOT
BRANCH   2   3
ATOM      3  C   LIG A   1      -5.571   6.802 131.423  0.00  0.00    -0.021 A 
ATOM      4  C   LIG A   1      -4.799   7.516 130.479  0.00  0.00    +0.012 A 
ATOM      5  C   LIG A   1      -3.408   7.621 130.610  0.00  0.00    +0.050 A 
ATOM      6  C   LIG A   1      -2.819   7.011 131.695  0.00  0.00    +0.166 A 
ATOM      7  C   LIG A   1      -3.562   6.331 132.629  0.00  0.00    +0.167 A 
ATOM      8  O   LIG A   1      -2.793   5.808 133.623  0.00  0.00    -0.453 OA
ATOM      9  C   LIG A   1      -1.480   6.227 133.199  0.00  0.00    +0.466 C 
ATOM     10  O   LIG A   1      -1.490   7.000 131.981  0.00  0.00    -0.453 OA
ATOM     11  C   LIG A   1      -4.933   6.217 132.529  0.00  0.00    +0.057 A 
ENDBRANCH   2   3
BRANCH   1  13
ATOM     12  C   LIG A   1      -9.919   6.830 131.026  0.00  0.00    +0.067 C 
ATOM     13  C   LIG A   1      -9.288   6.012 131.879  0.00  0.00    +0.005 C 
BRANCH  12  15
ATOM     14  O   LIG A   1     -12.141   6.528 131.783  0.00  0.00    -0.271 OA
ATOM     15  C   LIG A   1     -11.394   6.767 130.847  0.00  0.00    +0.239 C 
ATOM     16  N   LIG A   1     -11.814   6.997 129.554  0.00  0.00    -0.298 N 
ATOM     17  C   LIG A   1     -13.216   6.952 129.168  0.00  0.00    +0.108 C 
ATOM     18  C   LIG A   1     -13.182   7.004 127.643  0.00  0.00    +0.020 C 
ATOM     19  C   LIG A   1     -11.933   7.827 127.356  0.00  0.00    +0.020 C 
ATOM     20  C   LIG A   1     -10.969   7.360 128.430  0.00  0.00    +0.108 C 
ENDBRANCH  12  15
ENDBRANCH   1  13
TORSDOF 3
ENDMDL
MODEL 2
REMARK VINA RESULT:      -7.1      2.577      8.800
REMARK  Name = NuBBE_79
REMARK  3 active torsions:
REMARK  status: ('A' for Active; 'I' for Inactive)
REMARK    1  A    between atoms: C_2  and  C_8
REMARK    2  A    between atoms: C_9  and  C_10
REMARK    3  A    between atoms: C_11  and  C_12
REMARK                            x       y       z     vdW  Elec       q    Type
REMARK                         _______ _______ _______ _____ _____    ______ ____
ROOT
ATOM      1  C   LIG A   1      -8.135   6.547 131.351  0.00  0.00    +0.001 C 
ATOM      2  C   LIG A   1      -9.400   6.284 131.712  0.00  0.00    +0.008 C 
ENDROOT
BRANCH   2   3
ATOM      3  C   LIG A   1     -10.564   6.560 130.853  0.00  0.00    -0.021 A 
ATOM      4  C   LIG A   1     -11.796   6.879 131.467  0.00  0.00    +0.012 A 
ATOM      5  C   LIG A   1     -12.938   7.153 130.703  0.00  0.00    +0.050 A 
ATOM      6  C   LIG A   1     -12.817   7.108 129.332  0.00  0.00    +0.166 A 
ATOM      7  C   LIG A   1     -11.620   6.818 128.724  0.00  0.00    +0.167 A 
ATOM      8  O   LIG A   1     -11.710   6.830 127.366  0.00  0.00    -0.453 OA
ATOM      9  C   LIG A   1     -13.106   7.148 127.191  0.00  0.00    +0.466 C 
ATOM     10  O   LIG A   1     -13.813   7.336 128.435  0.00  0.00    -0.453 OA
ATOM     11  C   LIG A   1     -10.478   6.552 129.451  0.00  0.00    +0.057 A 
ENDBRANCH   2   3
BRANCH   1  13
ATOM     12  C   LIG A   1      -5.747   6.565 131.783  0.00  0.00    +0.067 C 
ATOM     13  C   LIG A   1      -6.990   6.272 132.189  0.00  0.00    +0.005 C 
BRANCH  12  15
ATOM     14  O   LIG A   1      -4.689   5.954 133.810  0.00  0.00    -0.271 OA
ATOM     15  C   LIG A   1      -4.566   6.262 132.635  0.00  0.00    +0.239 C 
ATOM     16  N   LIG A   1      -3.358   6.364 131.979  0.00  0.00    -0.298 N 
ATOM     17  C   LIG A   1      -2.085   6.134 132.645  0.00  0.00    +0.108 C 
ATOM     18  C   LIG A   1      -1.045   6.602 131.630  0.00  0.00    +0.020 C 
ATOM     19  C   LIG A   1      -1.717   6.311 130.294  0.00  0.00    +0.020 C 
ATOM     20  C   LIG A   1      -3.170   6.649 130.567  0.00  0.00    +0.108 C 
ENDBRANCH  12  15
ENDBRANCH   1  13
TORSDOF 3
ENDMDL
MODEL 3
REMARK VINA RESULT:      -7.0      2.780      8.915
REMARK  Name = NuBBE_79
REMARK  3 active torsions:
REMARK  status: ('A' for Active; 'I' for Inactive)
REMARK    1  A    between atoms: C_2  and  C_8
REMARK    2  A    between atoms: C_9  and  C_10
REMARK    3  A    between atoms: C_11  and  C_12
REMARK                            x       y       z     vdW  Elec       q    Type
REMARK                         _______ _______ _______ _____ _____    ______ ____
ROOT
ATOM      1  C   LIG A   1      -6.639   6.877 131.271  0.00  0.00    +0.001 C 
ATOM      2  C   LIG A   1      -7.699   6.058 131.326  0.00  0.00    +0.008 C 
ENDROOT
BRANCH   2   3
ATOM      3  C   LIG A   1      -9.081   6.498 131.072  0.00  0.00    -0.021 A 
ATOM      4  C   LIG A   1     -10.089   6.124 131.989  0.00  0.00    +0.012 A 
ATOM      5  C   LIG A   1     -11.421   6.514 131.801  0.00  0.00    +0.050 A 
ATOM      6  C   LIG A   1     -11.714   7.283 130.697  0.00  0.00    +0.166 A 
ATOM      7  C   LIG A   1     -10.739   7.670 129.810  0.00  0.00    +0.167 A 
ATOM      8  O   LIG A   1     -11.232   8.428 128.794  0.00  0.00    -0.453 OA
ATOM      9  C   LIG A   1     -12.632   8.463 129.137  0.00  0.00    +0.466 C 
ATOM     10  O   LIG A   1     -12.944   7.746 130.350  0.00  0.00    -0.453 OA
ATOM     11  C   LIG A   1      -9.419   7.306 129.974  0.00  0.00    +0.057 A 
ENDBRANCH   2   3
BRANCH   1  13
ATOM     12  C   LIG A   1      -4.239   7.103 130.985  0.00  0.00    +0.067 C 
ATOM     13  C   LIG A   1      -5.280   6.446 131.514  0.00  0.00    +0.005 C 
BRANCH  12  15
ATOM     14  O   LIG A   1      -2.409   5.631 130.696  0.00  0.00    -0.271 OA
ATOM     15  C   LIG A   1      -2.842   6.648 131.215  0.00  0.00    +0.239 C 
ATOM     16  N   LIG A   1      -2.114   7.467 132.051  0.00  0.00    -0.298 N 
ATOM     17  C   LIG A   1      -0.737   7.180 132.422  0.00  0.00    +0.108 C 
ATOM     18  C   LIG A   1      -0.435   8.183 133.533  0.00  0.00    +0.020 C 
ATOM     19  C   LIG A   1      -1.303   9.377 133.160  0.00  0.00    +0.020 C 
ATOM     20  C   LIG A   1      -2.563   8.723 132.625  0.00  0.00    +0.108 C 
ENDBRANCH  12  15
ENDBRANCH   1  13
TORSDOF 3
ENDMDL
MODEL 4
REMARK VINA RESULT:      -6.9      9.805     10.973
REMARK  Name = NuBBE_79
REMARK  3 active torsions:
REMARK  status: ('A' for Active; 'I' for Inactive)
REMARK    1  A    between atoms: C_2  and  C_8
REMARK    2  A    between atoms: C_9  and  C_10
REMARK    3  A    between atoms: C_11  and  C_12
REMARK                            x       y       z     vdW  Elec       q    Type
REMARK                         _______ _______ _______ _____ _____    ______ ____
ROOT
ATOM      1  C   LIG A   1      -6.095   2.513 124.699  0.00  0.00    +0.001 C 
ATOM      2  C   LIG A   1      -6.771   2.609 123.545  0.00  0.00    +0.008 C 
ENDROOT
BRANCH   2   3
ATOM      3  C   LIG A   1      -6.333   3.441 122.413  0.00  0.00    -0.021 A 
ATOM      4  C   LIG A   1      -5.134   4.177 122.538  0.00  0.00    +0.012 A 
ATOM      5  C   LIG A   1      -4.665   4.985 121.494  0.00  0.00    +0.050 A 
ATOM      6  C   LIG A   1      -5.409   5.031 120.336  0.00  0.00    +0.166 A 
ATOM      7  C   LIG A   1      -6.566   4.304 120.195  0.00  0.00    +0.167 A 
ATOM      8  O   LIG A   1      -7.147   4.483 118.978  0.00  0.00    -0.453 OA
ATOM      9  C   LIG A   1      -6.228   5.416 118.374  0.00  0.00    +0.466 C 
ATOM     10  O   LIG A   1      -5.117   5.761 119.228  0.00  0.00    -0.453 OA
ATOM     11  C   LIG A   1      -7.047   3.496 121.204  0.00  0.00    +0.057 A 
ENDBRANCH   2   3
BRANCH   1  13
ATOM     12  C   LIG A   1      -6.297   0.371 125.822  0.00  0.00    +0.067 C 
ATOM     13  C   LIG A   1      -6.520   1.692 125.811  0.00  0.00    +0.005 C 
BRANCH  12  15
ATOM     14  O   LIG A   1      -6.397  -0.257 128.102  0.00  0.00    -0.271 OA
ATOM     15  C   LIG A   1      -6.752  -0.478 126.954  0.00  0.00    +0.239 C 
ATOM     16  N   LIG A   1      -7.590  -1.509 126.583  0.00  0.00    -0.298 N 
ATOM     17  C   LIG A   1      -8.122  -2.467 127.541  0.00  0.00    +0.108 C 
ATOM     18  C   LIG A   1      -8.761  -3.545 126.670  0.00  0.00    +0.020 C 
ATOM     19  C   LIG A   1      -9.217  -2.767 125.443  0.00  0.00    +0.020 C 
ATOM     20  C   LIG A   1      -8.099  -1.761 125.247  0.00  0.00    +0.108 C 
ENDBRANCH  12  15
ENDBRANCH   1  13
TORSDOF 3
ENDMDL
MODEL 5
REMARK VINA RESULT:      -6.9     10.515     11.110
REMARK  Name = NuBBE_79
REMARK  3 active torsions:
REMARK  status: ('A' for Active; 'I' for Inactive)
REMARK    1  A    between atoms: C_2  and  C_8
REMARK    2  A    between atoms: C_9  and  C_10
REMARK    3  A    between atoms: C_11  and  C_12
REMARK                            x       y       z     vdW  Elec       q    Type
REMARK                         _______ _______ _______ _____ _____    ______ ____
ROOT
ATOM      1  C   LIG A   1      -8.229  -3.602 128.793  0.00  0.00    +0.001 C 
ATOM      2  C   LIG A   1      -7.086  -3.210 129.374  0.00  0.00    +0.008 C 
ENDROOT
BRANCH   2   3
ATOM      3  C   LIG A   1      -6.652  -3.664 130.706  0.00  0.00    -0.021 A 
ATOM      4  C   LIG A   1      -5.701  -4.705 130.788  0.00  0.00    +0.012 A 
ATOM      5  C   LIG A   1      -5.249  -5.178 132.027  0.00  0.00    +0.050 A 
ATOM      6  C   LIG A   1      -5.757  -4.588 133.162  0.00  0.00    +0.166 A 
ATOM      7  C   LIG A   1      -6.668  -3.561 133.094  0.00  0.00    +0.167 A 
ATOM      8  O   LIG A   1      -7.040  -3.114 134.324  0.00  0.00    -0.453 OA
ATOM      9  C   LIG A   1      -6.267  -3.986 135.174  0.00  0.00    +0.466 C 
ATOM     10  O   LIG A   1      -5.443  -4.918 134.443  0.00  0.00    -0.453 OA
ATOM     11  C   LIG A   1      -7.125  -3.071 131.888  0.00  0.00    +0.057 A 
ENDBRANCH   2   3
BRANCH   1  13
ATOM     12  C   LIG A   1      -8.179  -2.032 126.943  0.00  0.00    +0.067 C 
ATOM     13  C   LIG A   1      -8.655  -3.162 127.483  0.00  0.00    +0.005 C 
BRANCH  12  15
ATOM     14  O   LIG A   1      -9.719  -1.031 125.450  0.00  0.00    -0.271 OA
ATOM     15  C   LIG A   1      -8.632  -1.567 125.605  0.00  0.00    +0.239 C 
ATOM     16  N   LIG A   1      -7.727  -1.799 124.592  0.00  0.00    -0.298 N 
ATOM     17  C   LIG A   1      -7.995  -1.442 123.207  0.00  0.00    +0.108 C 
ATOM     18  C   LIG A   1      -6.862  -2.104 122.428  0.00  0.00    +0.020 C 
ATOM     19  C   LIG A   1      -5.707  -2.084 123.421  0.00  0.00    +0.020 C 
ATOM     20  C   LIG A   1      -6.396  -2.360 124.743  0.00  0.00    +0.108 C 
ENDBRANCH  12  15
ENDBRANCH   1  13
TORSDOF 3
ENDMDL
MODEL 6
REMARK VINA RESULT:      -6.8      7.855      8.350
REMARK  Name = NuBBE_79
REMARK  3 active torsions:
REMARK  status: ('A' for Active; 'I' for Inactive)
REMARK    1  A    between atoms: C_2  and  C_8
REMARK    2  A    between atoms: C_9  and  C_10
REMARK    3  A    between atoms: C_11  and  C_12
REMARK                            x       y       z     vdW  Elec       q    Type
REMARK                         _______ _______ _______ _____ _____    ______ ____
ROOT
ATOM      1  C   LIG A   1      -6.730   2.995 125.360  0.00  0.00    +0.001 C 
ATOM      2  C   LIG A   1      -5.404   2.813 125.428  0.00  0.00    +0.008 C 
ENDROOT
BRANCH   2   3
ATOM      3  C   LIG A   1      -4.512   3.632 126.266  0.00  0.00    -0.021 A 
ATOM      4  C   LIG A   1      -3.233   3.125 126.589  0.00  0.00    +0.012 A 
ATOM      5  C   LIG A   1      -2.341   3.859 127.380  0.00  0.00    +0.050 A 
ATOM      6  C   LIG A   1      -2.749   5.097 127.827  0.00  0.00    +0.166 A 
ATOM      7  C   LIG A   1      -3.982   5.608 127.502  0.00  0.00    +0.167 A 
ATOM      8  O   LIG A   1      -4.189   6.843 128.035  0.00  0.00    -0.453 OA
ATOM      9  C   LIG A   1      -2.948   7.043 128.743  0.00  0.00    +0.466 C 
ATOM     10  O   LIG A   1      -2.025   5.943 128.607  0.00  0.00    -0.453 OA
ATOM     11  C   LIG A   1      -4.878   4.910 126.719  0.00  0.00    +0.057 A 
ENDBRANCH   2   3
BRANCH   1  13
ATOM     12  C   LIG A   1      -7.620   0.852 124.646  0.00  0.00    +0.067 C 
ATOM     13  C   LIG A   1      -7.609   2.188 124.542  0.00  0.00    +0.005 C 
BRANCH  12  15
ATOM     14  O   LIG A   1      -9.248   0.523 122.961  0.00  0.00    -0.271 OA
ATOM     15  C   LIG A   1      -8.506   0.020 123.791  0.00  0.00    +0.239 C 
ATOM     16  N   LIG A   1      -8.407  -1.335 124.027  0.00  0.00    -0.298 N 
ATOM     17  C   LIG A   1      -9.211  -2.315 123.312  0.00  0.00    +0.108 C 
ATOM     18  C   LIG A   1      -8.962  -3.619 124.065  0.00  0.00    +0.020 C 
ATOM     19  C   LIG A   1      -7.538  -3.450 124.579  0.00  0.00    +0.020 C 
ATOM     20  C   LIG A   1      -7.485  -1.980 124.945  0.00  0.00    +0.108 C 
ENDBRANCH  12  15
ENDBRANCH   1  13
TORSDOF 3
ENDMDL
MODEL 7
REMARK VINA RESULT:      -6.8     10.000     10.602
REMARK  Name = NuBBE_79
REMARK  3 active torsions:
REMARK  status: ('A' for Active; 'I' for Inactive)
REMARK    1  A    between atoms: C_2  and  C_8
REMARK    2  A    between atoms: C_9  and  C_10
REMARK    3  A    between atoms: C_11  and  C_12
REMARK                            x       y       z     vdW  Elec       q    Type
REMARK                         _______ _______ _______ _____ _____    ______ ____
ROOT
ATOM      1  C   LIG A   1      -8.575  -3.692 128.209  0.00  0.00    +0.001 C 
ATOM      2  C   LIG A   1      -7.448  -3.196 128.740  0.00  0.00    +0.008 C 
ENDROOT
BRANCH   2   3
ATOM      3  C   LIG A   1      -7.033  -3.430 130.133  0.00  0.00    -0.021 A 
ATOM      4  C   LIG A   1      -6.005  -4.367 130.385  0.00  0.00    +0.012 A 
ATOM      5  C   LIG A   1      -5.567  -4.631 131.688  0.00  0.00    +0.050 A 
ATOM      6  C   LIG A   1      -6.166  -3.940 132.718  0.00  0.00    +0.166 A 
ATOM      7  C   LIG A   1      -7.152  -3.013 132.484  0.00  0.00    +0.167 A 
ATOM      8  O   LIG A   1      -7.608  -2.439 133.631  0.00  0.00    -0.453 OA
ATOM      9  C   LIG A   1      -6.803  -3.121 134.613  0.00  0.00    +0.466 C 
ATOM     10  O   LIG A   1      -5.878  -4.069 134.040  0.00  0.00    -0.453 OA
ATOM     11  C   LIG A   1      -7.599  -2.728 131.210  0.00  0.00    +0.057 A 
ENDBRANCH   2   3
BRANCH   1  13
ATOM     12  C   LIG A   1      -8.254  -2.700 126.017  0.00  0.00    +0.067 C 
ATOM     13  C   LIG A   1      -8.982  -3.468 126.840  0.00  0.00    +0.005 C 
BRANCH  12  15
ATOM     14  O   LIG A   1      -8.740  -3.355 123.796  0.00  0.00    -0.271 OA
ATOM     15  C   LIG A   1      -8.683  -2.452 124.616  0.00  0.00    +0.239 C 
ATOM     16  N   LIG A   1      -8.996  -1.136 124.348  0.00  0.00    -0.298 N 
ATOM     17  C   LIG A   1      -9.411  -0.684 123.029  0.00  0.00    +0.108 C 
ATOM     18  C   LIG A   1      -9.397   0.838 123.137  0.00  0.00    +0.020 C 
ATOM     19  C   LIG A   1      -9.745   1.080 124.600  0.00  0.00    +0.020 C 
ATOM     20  C   LIG A   1      -9.018  -0.047 125.309  0.00  0.00    +0.108 C 
ENDBRANCH  12  15
ENDBRANCH   1  13
TORSDOF 3
ENDMDL
MODEL 8
REMARK VINA RESULT:      -6.7      4.199      8.613
REMARK  Name = NuBBE_79
REMARK  3 active torsions:
REMARK  status: ('A' for Active; 'I' for Inactive)
REMARK    1  A    between atoms: C_2  and  C_8
REMARK    2  A    between atoms: C_9  and  C_10
REMARK    3  A    between atoms: C_11  and  C_12
REMARK                            x       y       z     vdW  Elec       q    Type
REMARK                         _______ _______ _______ _____ _____    ______ ____
ROOT
ATOM      1  C   LIG A   1      -9.143   5.023 133.344  0.00  0.00    +0.001 C 
ATOM      2  C   LIG A   1      -8.908   6.060 132.528  0.00  0.00    +0.008 C 
ENDROOT
BRANCH   2   3
ATOM      3  C   LIG A   1      -9.821   6.469 131.448  0.00  0.00    -0.021 A 
ATOM      4  C   LIG A   1     -11.199   6.184 131.583  0.00  0.00    +0.012 A 
ATOM      5  C   LIG A   1     -12.116   6.550 130.590  0.00  0.00    +0.050 A 
ATOM      6  C   LIG A   1     -11.631   7.206 129.480  0.00  0.00    +0.166 A 
ATOM      7  C   LIG A   1     -10.297   7.506 129.347  0.00  0.00    +0.167 A 
ATOM      8  O   LIG A   1     -10.025   8.158 128.185  0.00  0.00    -0.453 OA
ATOM      9  C   LIG A   1     -11.340   8.223 127.596  0.00  0.00    +0.466 C 
ATOM     10  O   LIG A   1     -12.366   7.628 128.418  0.00  0.00    -0.453 OA
ATOM     11  C   LIG A   1      -9.373   7.163 130.312  0.00  0.00    +0.057 A 
ENDBRANCH   2   3
BRANCH   1  13
ATOM     12  C   LIG A   1      -7.485   5.520 135.046  0.00  0.00    +0.067 C 
ATOM     13  C   LIG A   1      -8.251   4.623 134.410  0.00  0.00    +0.005 C 
BRANCH  12  15
ATOM     14  O   LIG A   1      -5.644   4.315 135.918  0.00  0.00    -0.271 OA
ATOM     15  C   LIG A   1      -6.551   5.107 136.127  0.00  0.00    +0.239 C 
ATOM     16  N   LIG A   1      -6.810   5.691 137.348  0.00  0.00    -0.298 N 
ATOM     17  C   LIG A   1      -6.025   5.396 138.538  0.00  0.00    +0.108 C 
ATOM     18  C   LIG A   1      -6.812   6.047 139.672  0.00  0.00    +0.020 C 
ATOM     19  C   LIG A   1      -7.468   7.241 138.991  0.00  0.00    +0.020 C 
ATOM     20  C   LIG A   1      -7.824   6.693 137.622  0.00  0.00    +0.108 C 
ENDBRANCH  12  15
ENDBRANCH   1  13
TORSDOF 3
ENDMDL
MODEL 9
REMARK VINA RESULT:      -6.6      9.165     10.783
REMARK  Name = NuBBE_79
REMARK  3 active torsions:
REMARK  status: ('A' for Active; 'I' for Inactive)
REMARK    1  A    between atoms: C_2  and  C_8
REMARK    2  A    between atoms: C_9  and  C_10
REMARK    3  A    between atoms: C_11  and  C_12
REMARK                            x       y       z     vdW  Elec       q    Type
REMARK                         _______ _______ _______ _____ _____    ______ ____
ROOT
ATOM      1  C   LIG A   1      -8.168   2.541 125.151  0.00  0.00    +0.001 C 
ATOM      2  C   LIG A   1      -7.342   2.219 124.146  0.00  0.00    +0.008 C 
ENDROOT
BRANCH   2   3
ATOM      3  C   LIG A   1      -7.388   2.855 122.819  0.00  0.00    -0.021 A 
ATOM      4  C   LIG A   1      -8.631   2.938 122.152  0.00  0.00    +0.012 A 
ATOM      5  C   LIG A   1      -8.738   3.534 120.889  0.00  0.00    +0.050 A 
ATOM      6  C   LIG A   1      -7.592   4.045 120.322  0.00  0.00    +0.166 A 
ATOM      7  C   LIG A   1      -6.382   3.988 120.970  0.00  0.00    +0.167 A 
ATOM      8  O   LIG A   1      -5.378   4.552 120.245  0.00  0.00    -0.453 OA
ATOM      9  C   LIG A   1      -6.094   4.959 119.061  0.00  0.00    +0.466 C 
ATOM     10  O   LIG A   1      -7.502   4.649 119.107  0.00  0.00    -0.453 OA
ATOM     11  C   LIG A   1      -6.249   3.413 122.217  0.00  0.00    +0.057 A 
ENDBRANCH   2   3
BRANCH   1  13
ATOM     12  C   LIG A   1      -7.528   0.734 126.640  0.00  0.00    +0.067 C 
ATOM     13  C   LIG A   1      -8.120   1.922 126.457  0.00  0.00    +0.005 C 
BRANCH  12  15
ATOM     14  O   LIG A   1      -7.221   0.716 128.986  0.00  0.00    -0.271 OA
ATOM     15  C   LIG A   1      -7.498   0.085 127.977  0.00  0.00    +0.239 C 
ATOM     16  N   LIG A   1      -7.803  -1.259 127.958  0.00  0.00    -0.298 N 
ATOM     17  C   LIG A   1      -7.802  -2.078 129.161  0.00  0.00    +0.108 C 
ATOM     18  C   LIG A   1      -7.934  -3.506 128.637  0.00  0.00    +0.020 C 
ATOM     19  C   LIG A   1      -8.752  -3.328 127.365  0.00  0.00    +0.020 C 
ATOM     20  C   LIG A   1      -8.213  -2.029 126.797  0.00  0.00    +0.108 C 
ENDBRANCH  12  15
ENDBRANCH   1  13
TORSDOF 3
ENDMDL
