MODEL 1
REMARK VINA RESULT:      -8.8      0.000      0.000
REMARK  Name = NuBBE_1891
REMARK  2 active torsions:
REMARK  status: ('A' for Active; 'I' for Inactive)
REMARK    1  A    between atoms: C_1  and  C_2
REMARK    2  A    between atoms: C_2  and  C_3
REMARK                            x       y       z     vdW  Elec       q    Type
REMARK                         _______ _______ _______ _____ _____    ______ ____
ROOT
ATOM      1  C   LIG A   1     -13.618   7.915 127.599  0.00  0.00    +0.060 C 
ATOM      2  C   LIG A   1     -12.722   8.372 128.760  0.00  0.00    +0.123 C 
ATOM      3  C   LIG A   1     -13.030   9.841 129.084  0.00  0.00    +0.060 C 
ATOM      4  C   LIG A   1     -11.267   8.281 128.298  0.00  0.00    +0.020 C 
ATOM      5  C   LIG A   1     -10.723   7.073 128.429  0.00  0.00    +0.015 C 
ATOM      6  C   LIG A   1     -10.742   6.786 129.872  0.00  0.00    +0.059 A 
ATOM      7  C   LIG A   1      -9.569   6.515 130.562  0.00  0.00    +0.138 A 
ATOM      8  C   LIG A   1      -9.581   6.136 131.912  0.00  0.00    +0.036 A 
ATOM      9  C   LIG A   1      -8.263   6.013 132.666  0.00  0.00    +0.218 C 
ATOM     10  C   LIG A   1      -7.153   6.713 131.871  0.00  0.00    +0.105 C 
ATOM     11  C   LIG A   1      -5.972   5.986 132.373  0.00  0.00    +0.008 A 
ATOM     12  C   LIG A   1      -6.406   4.758 132.884  0.00  0.00    +0.129 A 
ATOM     13  C   LIG A   1      -5.502   3.745 133.146  0.00  0.00    +0.095 A 
ATOM     14  C   LIG A   1      -4.170   4.035 132.871  0.00  0.00    +0.170 A 
ATOM     15  O   LIG A   1      -3.120   3.173 132.998  0.00  0.00    -0.453 OA
ATOM     16  C   LIG A   1      -2.014   4.021 132.612  0.00  0.00    +0.466 C 
ATOM     17  O   LIG A   1      -2.426   5.304 132.105  0.00  0.00    -0.453 OA
ATOM     18  C   LIG A   1      -3.758   5.258 132.367  0.00  0.00    +0.167 A 
ATOM     19  C   LIG A   1      -4.642   6.274 132.104  0.00  0.00    +0.057 A 
ATOM     20  O   LIG A   1      -7.791   4.648 132.918  0.00  0.00    -0.483 OA
ATOM     21  C   LIG A   1      -7.264   6.339 130.400  0.00  0.00    +0.241 C 
ATOM     22  O   LIG A   1      -8.450   6.834 129.845  0.00  0.00    -0.490 OA
ATOM     23  C   LIG A   1     -10.841   6.048 132.541  0.00  0.00    +0.014 A 
ATOM     24  C   LIG A   1     -12.018   6.474 131.873  0.00  0.00    +0.047 A 
ATOM     25  C   LIG A   1     -11.949   6.918 130.550  0.00  0.00    +0.132 A 
ATOM     26  O   LIG A   1     -13.025   7.538 129.942  0.00  0.00    -0.481 OA
ENDROOT
TORSDOF 0
ENDMDL
MODEL 2
REMARK VINA RESULT:      -8.7      1.635      2.013
REMARK  Name = NuBBE_1891
REMARK  2 active torsions:
REMARK  status: ('A' for Active; 'I' for Inactive)
REMARK    1  A    between atoms: C_1  and  C_2
REMARK    2  A    between atoms: C_2  and  C_3
REMARK                            x       y       z     vdW  Elec       q    Type
REMARK                         _______ _______ _______ _____ _____    ______ ____
ROOT
ATOM      1  C   LIG A   1     -13.020   7.281 128.088  0.00  0.00    +0.060 C 
ATOM      2  C   LIG A   1     -12.397   7.010 129.465  0.00  0.00    +0.123 C 
ATOM      3  C   LIG A   1     -13.406   7.391 130.558  0.00  0.00    +0.060 C 
ATOM      4  C   LIG A   1     -11.171   7.911 129.614  0.00  0.00    +0.020 C 
ATOM      5  C   LIG A   1     -10.057   7.419 129.077  0.00  0.00    +0.015 C 
ATOM      6  C   LIG A   1      -9.778   6.177 129.814  0.00  0.00    +0.059 A 
ATOM      7  C   LIG A   1      -8.579   6.003 130.491  0.00  0.00    +0.138 A 
ATOM      8  C   LIG A   1      -8.256   4.786 131.109  0.00  0.00    +0.036 A 
ATOM      9  C   LIG A   1      -7.008   4.699 131.979  0.00  0.00    +0.218 C 
ATOM     10  C   LIG A   1      -6.525   6.115 132.324  0.00  0.00    +0.105 C 
ATOM     11  C   LIG A   1      -5.096   5.851 132.575  0.00  0.00    +0.008 A 
ATOM     12  C   LIG A   1      -4.757   4.658 131.927  0.00  0.00    +0.129 A 
ATOM     13  C   LIG A   1      -3.432   4.315 131.732  0.00  0.00    +0.095 A 
ATOM     14  C   LIG A   1      -2.493   5.221 132.217  0.00  0.00    +0.170 A 
ATOM     15  O   LIG A   1      -1.139   5.117 132.087  0.00  0.00    -0.453 OA
ATOM     16  C   LIG A   1      -0.699   6.298 132.796  0.00  0.00    +0.466 C 
ATOM     17  O   LIG A   1      -1.778   7.167 133.186  0.00  0.00    -0.453 OA
ATOM     18  C   LIG A   1      -2.848   6.396 132.858  0.00  0.00    +0.167 A 
ATOM     19  C   LIG A   1      -4.158   6.750 133.060  0.00  0.00    +0.057 A 
ATOM     20  O   LIG A   1      -5.859   4.006 131.389  0.00  0.00    -0.483 OA
ATOM     21  C   LIG A   1      -6.565   6.985 131.076  0.00  0.00    +0.241 C 
ATOM     22  O   LIG A   1      -7.880   7.168 130.633  0.00  0.00    -0.490 OA
ATOM     23  C   LIG A   1      -9.206   3.748 131.017  0.00  0.00    +0.014 A 
ATOM     24  C   LIG A   1     -10.487   3.984 130.456  0.00  0.00    +0.047 A 
ATOM     25  C   LIG A   1     -10.796   5.235 129.920  0.00  0.00    +0.132 A 
ATOM     26  O   LIG A   1     -12.091   5.567 129.565  0.00  0.00    -0.481 OA
ENDROOT
TORSDOF 0
ENDMDL
MODEL 3
REMARK VINA RESULT:      -8.6      8.306     11.064
REMARK  Name = NuBBE_1891
REMARK  2 active torsions:
REMARK  status: ('A' for Active; 'I' for Inactive)
REMARK    1  A    between atoms: C_1  and  C_2
REMARK    2  A    between atoms: C_2  and  C_3
REMARK                            x       y       z     vdW  Elec       q    Type
REMARK                         _______ _______ _______ _____ _____    ______ ____
ROOT
ATOM      1  C   LIG A   1      -7.371  -2.795 132.452  0.00  0.00    +0.060 C 
ATOM      2  C   LIG A   1      -6.836  -3.004 131.028  0.00  0.00    +0.123 C 
ATOM      3  C   LIG A   1      -5.598  -3.910 131.084  0.00  0.00    +0.060 C 
ATOM      4  C   LIG A   1      -6.406  -1.642 130.481  0.00  0.00    +0.020 C 
ATOM      5  C   LIG A   1      -7.392  -0.928 129.944  0.00  0.00    +0.015 C 
ATOM      6  C   LIG A   1      -7.880  -1.722 128.805  0.00  0.00    +0.059 A 
ATOM      7  C   LIG A   1      -7.875  -1.202 127.518  0.00  0.00    +0.138 A 
ATOM      8  C   LIG A   1      -8.433  -1.905 126.441  0.00  0.00    +0.036 A 
ATOM      9  C   LIG A   1      -8.254  -1.370 125.026  0.00  0.00    +0.218 C 
ATOM     10  C   LIG A   1      -7.137  -0.317 125.016  0.00  0.00    +0.105 C 
ATOM     11  C   LIG A   1      -7.531   0.472 123.834  0.00  0.00    +0.008 A 
ATOM     12  C   LIG A   1      -8.894   0.255 123.604  0.00  0.00    +0.129 A 
ATOM     13  C   LIG A   1      -9.606   1.085 122.759  0.00  0.00    +0.095 A 
ATOM     14  C   LIG A   1      -8.882   2.118 122.172  0.00  0.00    +0.170 A 
ATOM     15  O   LIG A   1      -9.388   3.085 121.353  0.00  0.00    -0.453 OA
ATOM     16  C   LIG A   1      -8.193   3.837 121.039  0.00  0.00    +0.466 C 
ATOM     17  O   LIG A   1      -7.040   3.422 121.793  0.00  0.00    -0.453 OA
ATOM     18  C   LIG A   1      -7.532   2.317 122.409  0.00  0.00    +0.167 A 
ATOM     19  C   LIG A   1      -6.811   1.501 123.245  0.00  0.00    +0.057 A 
ATOM     20  O   LIG A   1      -9.428  -0.729 124.427  0.00  0.00    -0.483 OA
ATOM     21  C   LIG A   1      -7.307   0.618 126.204  0.00  0.00    +0.241 C 
ATOM     22  O   LIG A   1      -7.126  -0.065 127.412  0.00  0.00    -0.490 OA
ATOM     23  C   LIG A   1      -8.997  -3.168 126.723  0.00  0.00    +0.014 A 
ATOM     24  C   LIG A   1      -8.861  -3.754 128.007  0.00  0.00    +0.047 A 
ATOM     25  C   LIG A   1      -8.228  -3.049 129.034  0.00  0.00    +0.132 A 
ATOM     26  O   LIG A   1      -7.888  -3.663 130.224  0.00  0.00    -0.481 OA
ENDROOT
TORSDOF 0
ENDMDL
MODEL 4
REMARK VINA RESULT:      -8.5      1.694      8.048
REMARK  Name = NuBBE_1891
REMARK  2 active torsions:
REMARK  status: ('A' for Active; 'I' for Inactive)
REMARK    1  A    between atoms: C_1  and  C_2
REMARK    2  A    between atoms: C_2  and  C_3
REMARK                            x       y       z     vdW  Elec       q    Type
REMARK                         _______ _______ _______ _____ _____    ______ ____
ROOT
ATOM      1  C   LIG A   1      -0.664   7.489 133.077  0.00  0.00    +0.060 C 
ATOM      2  C   LIG A   1      -1.659   6.356 132.784  0.00  0.00    +0.123 C 
ATOM      3  C   LIG A   1      -0.880   5.078 132.442  0.00  0.00    +0.060 C 
ATOM      4  C   LIG A   1      -2.482   6.755 131.559  0.00  0.00    +0.020 C 
ATOM      5  C   LIG A   1      -3.531   7.529 131.828  0.00  0.00    +0.015 C 
ATOM      6  C   LIG A   1      -4.403   6.724 132.697  0.00  0.00    +0.059 A 
ATOM      7  C   LIG A   1      -5.712   6.443 132.331  0.00  0.00    +0.138 A 
ATOM      8  C   LIG A   1      -6.587   5.768 133.194  0.00  0.00    +0.036 A 
ATOM      9  C   LIG A   1      -7.956   5.337 132.684  0.00  0.00    +0.218 C 
ATOM     10  C   LIG A   1      -7.973   5.403 131.151  0.00  0.00    +0.105 C 
ATOM     11  C   LIG A   1      -9.418   5.578 130.911  0.00  0.00    +0.008 A 
ATOM     12  C   LIG A   1      -9.989   6.094 132.080  0.00  0.00    +0.129 A 
ATOM     13  C   LIG A   1     -11.259   6.640 132.060  0.00  0.00    +0.095 A 
ATOM     14  C   LIG A   1     -11.903   6.635 130.827  0.00  0.00    +0.170 A 
ATOM     15  O   LIG A   1     -13.130   7.168 130.563  0.00  0.00    -0.453 OA
ATOM     16  C   LIG A   1     -13.281   6.841 129.162  0.00  0.00    +0.466 C 
ATOM     17  O   LIG A   1     -12.094   6.278 128.575  0.00  0.00    -0.453 OA
ATOM     18  C   LIG A   1     -11.323   6.118 129.681  0.00  0.00    +0.167 A 
ATOM     19  C   LIG A   1     -10.064   5.571 129.684  0.00  0.00    +0.057 A 
ATOM     20  O   LIG A   1      -9.095   6.139 133.142  0.00  0.00    -0.483 OA
ATOM     21  C   LIG A   1      -7.324   6.699 130.687  0.00  0.00    +0.241 C 
ATOM     22  O   LIG A   1      -5.965   6.726 131.018  0.00  0.00    -0.490 OA
ATOM     23  C   LIG A   1      -6.075   5.382 134.451  0.00  0.00    +0.014 A 
ATOM     24  C   LIG A   1      -4.698   5.537 134.754  0.00  0.00    +0.047 A 
ATOM     25  C   LIG A   1      -3.844   6.147 133.832  0.00  0.00    +0.132 A 
ATOM     26  O   LIG A   1      -2.472   6.122 133.997  0.00  0.00    -0.481 OA
ENDROOT
TORSDOF 0
ENDMDL
MODEL 5
REMARK VINA RESULT:      -8.4      9.026      9.994
REMARK  Name = NuBBE_1891
REMARK  2 active torsions:
REMARK  status: ('A' for Active; 'I' for Inactive)
REMARK    1  A    between atoms: C_1  and  C_2
REMARK    2  A    between atoms: C_2  and  C_3
REMARK                            x       y       z     vdW  Elec       q    Type
REMARK                         _______ _______ _______ _____ _____    ______ ____
ROOT
ATOM      1  C   LIG A   1      -7.465  -1.786 122.473  0.00  0.00    +0.060 C 
ATOM      2  C   LIG A   1      -7.744  -1.275 123.894  0.00  0.00    +0.123 C 
ATOM      3  C   LIG A   1      -8.488   0.066 123.809  0.00  0.00    +0.060 C 
ATOM      4  C   LIG A   1      -6.399  -1.032 124.580  0.00  0.00    +0.020 C 
ATOM      5  C   LIG A   1      -5.861  -2.114 125.137  0.00  0.00    +0.015 C 
ATOM      6  C   LIG A   1      -6.812  -2.537 126.177  0.00  0.00    +0.059 A 
ATOM      7  C   LIG A   1      -6.420  -2.636 127.504  0.00  0.00    +0.138 A 
ATOM      8  C   LIG A   1      -7.284  -3.138 128.489  0.00  0.00    +0.036 A 
ATOM      9  C   LIG A   1      -6.868  -3.070 129.953  0.00  0.00    +0.218 C 
ATOM     10  C   LIG A   1      -5.696  -2.091 130.106  0.00  0.00    +0.105 C 
ATOM     11  C   LIG A   1      -5.075  -2.615 131.337  0.00  0.00    +0.008 A 
ATOM     12  C   LIG A   1      -5.473  -3.948 131.487  0.00  0.00    +0.129 A 
ATOM     13  C   LIG A   1      -4.817  -4.783 132.373  0.00  0.00    +0.095 A 
ATOM     14  C   LIG A   1      -3.766  -4.209 133.082  0.00  0.00    +0.170 A 
ATOM     15  O   LIG A   1      -2.948  -4.854 133.962  0.00  0.00    -0.453 OA
ATOM     16  C   LIG A   1      -2.093  -3.771 134.394  0.00  0.00    +0.466 C 
ATOM     17  O   LIG A   1      -2.295  -2.553 133.656  0.00  0.00    -0.453 OA
ATOM     18  C   LIG A   1      -3.387  -2.886 132.921  0.00  0.00    +0.167 A 
ATOM     19  C   LIG A   1      -4.029  -2.045 132.047  0.00  0.00    +0.057 A 
ATOM     20  O   LIG A   1      -6.430  -4.332 130.557  0.00  0.00    -0.483 OA
ATOM     21  C   LIG A   1      -4.678  -2.336 129.001  0.00  0.00    +0.241 C 
ATOM     22  O   LIG A   1      -5.218  -2.035 127.745  0.00  0.00    -0.490 OA
ATOM     23  C   LIG A   1      -8.571  -3.534 128.070  0.00  0.00    +0.014 A 
ATOM     24  C   LIG A   1      -9.012  -3.288 126.745  0.00  0.00    +0.047 A 
ATOM     25  C   LIG A   1      -8.143  -2.713 125.814  0.00  0.00    +0.132 A 
ATOM     26  O   LIG A   1      -8.597  -2.263 124.588  0.00  0.00    -0.481 OA
ENDROOT
TORSDOF 0
ENDMDL
MODEL 6
REMARK VINA RESULT:      -8.4      1.601      8.244
REMARK  Name = NuBBE_1891
REMARK  2 active torsions:
REMARK  status: ('A' for Active; 'I' for Inactive)
REMARK    1  A    between atoms: C_1  and  C_2
REMARK    2  A    between atoms: C_2  and  C_3
REMARK                            x       y       z     vdW  Elec       q    Type
REMARK                         _______ _______ _______ _____ _____    ______ ____
ROOT
ATOM      1  C   LIG A   1      -3.882   0.663 133.507  0.00  0.00    +0.060 C 
ATOM      2  C   LIG A   1      -4.842   1.758 133.994  0.00  0.00    +0.123 C 
ATOM      3  C   LIG A   1      -4.988   1.656 135.519  0.00  0.00    +0.060 C 
ATOM      4  C   LIG A   1      -6.212   1.498 133.366  0.00  0.00    +0.020 C 
ATOM      5  C   LIG A   1      -6.359   1.995 132.140  0.00  0.00    +0.015 C 
ATOM      6  C   LIG A   1      -6.214   3.452 132.285  0.00  0.00    +0.059 A 
ATOM      7  C   LIG A   1      -7.230   4.313 131.894  0.00  0.00    +0.138 A 
ATOM      8  C   LIG A   1      -7.065   5.706 131.927  0.00  0.00    +0.036 A 
ATOM      9  C   LIG A   1      -8.262   6.606 131.649  0.00  0.00    +0.218 C 
ATOM     10  C   LIG A   1      -9.554   5.785 131.751  0.00  0.00    +0.105 C 
ATOM     11  C   LIG A   1     -10.443   6.584 130.888  0.00  0.00    +0.008 A 
ATOM     12  C   LIG A   1      -9.642   7.344 130.029  0.00  0.00    +0.129 A 
ATOM     13  C   LIG A   1     -10.186   7.956 128.915  0.00  0.00    +0.095 A 
ATOM     14  C   LIG A   1     -11.551   7.764 128.724  0.00  0.00    +0.170 A 
ATOM     15  O   LIG A   1     -12.284   8.224 127.670  0.00  0.00    -0.453 OA
ATOM     16  C   LIG A   1     -13.606   7.756 128.024  0.00  0.00    +0.466 C 
ATOM     17  O   LIG A   1     -13.619   6.894 129.176  0.00  0.00    -0.453 OA
ATOM     18  C   LIG A   1     -12.329   7.010 129.587  0.00  0.00    +0.167 A 
ATOM     19  C   LIG A   1     -11.804   6.398 130.697  0.00  0.00    +0.057 A 
ATOM     20  O   LIG A   1      -8.289   7.252 130.333  0.00  0.00    -0.483 OA
ATOM     21  C   LIG A   1      -9.374   4.457 131.030  0.00  0.00    +0.241 C 
ATOM     22  O   LIG A   1      -8.411   3.666 131.667  0.00  0.00    -0.490 OA
ATOM     23  C   LIG A   1      -5.822   6.193 132.382  0.00  0.00    +0.014 A 
ATOM     24  C   LIG A   1      -4.849   5.312 132.921  0.00  0.00    +0.047 A 
ATOM     25  C   LIG A   1      -5.086   3.936 132.940  0.00  0.00    +0.132 A 
ATOM     26  O   LIG A   1      -4.267   3.075 133.645  0.00  0.00    -0.481 OA
ENDROOT
TORSDOF 0
ENDMDL
MODEL 7
REMARK VINA RESULT:      -8.3      8.585     10.007
REMARK  Name = NuBBE_1891
REMARK  2 active torsions:
REMARK  status: ('A' for Active; 'I' for Inactive)
REMARK    1  A    between atoms: C_1  and  C_2
REMARK    2  A    between atoms: C_2  and  C_3
REMARK                            x       y       z     vdW  Elec       q    Type
REMARK                         _______ _______ _______ _____ _____    ______ ____
ROOT
ATOM      1  C   LIG A   1      -9.200  -2.225 122.847  0.00  0.00    +0.060 C 
ATOM      2  C   LIG A   1      -8.036  -1.987 123.820  0.00  0.00    +0.123 C 
ATOM      3  C   LIG A   1      -6.743  -1.787 123.016  0.00  0.00    +0.060 C 
ATOM      4  C   LIG A   1      -7.874  -3.242 124.679  0.00  0.00    +0.020 C 
ATOM      5  C   LIG A   1      -8.675  -3.289 125.740  0.00  0.00    +0.015 C 
ATOM      6  C   LIG A   1      -8.296  -2.137 126.573  0.00  0.00    +0.059 A 
ATOM      7  C   LIG A   1      -7.870  -2.312 127.883  0.00  0.00    +0.138 A 
ATOM      8  C   LIG A   1      -7.607  -1.220 128.721  0.00  0.00    +0.036 A 
ATOM      9  C   LIG A   1      -6.983  -1.462 130.090  0.00  0.00    +0.218 C 
ATOM     10  C   LIG A   1      -6.401  -2.881 130.142  0.00  0.00    +0.105 C 
ATOM     11  C   LIG A   1      -6.441  -3.128 131.596  0.00  0.00    +0.008 A 
ATOM     12  C   LIG A   1      -7.390  -2.265 132.154  0.00  0.00    +0.129 A 
ATOM     13  C   LIG A   1      -7.861  -2.472 133.438  0.00  0.00    +0.095 A 
ATOM     14  C   LIG A   1      -7.331  -3.570 134.108  0.00  0.00    +0.170 A 
ATOM     15  O   LIG A   1      -7.688  -3.997 135.353  0.00  0.00    -0.453 OA
ATOM     16  C   LIG A   1      -6.803  -5.127 135.526  0.00  0.00    +0.466 C 
ATOM     17  O   LIG A   1      -6.062  -5.461 134.339  0.00  0.00    -0.453 OA
ATOM     18  C   LIG A   1      -6.390  -4.413 133.540  0.00  0.00    +0.167 A 
ATOM     19  C   LIG A   1      -5.911  -4.219 132.268  0.00  0.00    +0.057 A 
ATOM     20  O   LIG A   1      -7.887  -1.346 131.238  0.00  0.00    -0.483 OA
ATOM     21  C   LIG A   1      -7.393  -3.863 129.536  0.00  0.00    +0.241 C 
ATOM     22  O   LIG A   1      -7.574  -3.615 128.171  0.00  0.00    -0.490 OA
ATOM     23  C   LIG A   1      -7.789   0.067 128.173  0.00  0.00    +0.014 A 
ATOM     24  C   LIG A   1      -8.075   0.235 126.794  0.00  0.00    +0.047 A 
ATOM     25  C   LIG A   1      -8.255  -0.882 125.976  0.00  0.00    +0.132 A 
ATOM     26  O   LIG A   1      -8.320  -0.764 124.600  0.00  0.00    -0.481 OA
ENDROOT
TORSDOF 0
ENDMDL
MODEL 8
REMARK VINA RESULT:      -8.2      3.353      4.448
REMARK  Name = NuBBE_1891
REMARK  2 active torsions:
REMARK  status: ('A' for Active; 'I' for Inactive)
REMARK    1  A    between atoms: C_1  and  C_2
REMARK    2  A    between atoms: C_2  and  C_3
REMARK                            x       y       z     vdW  Elec       q    Type
REMARK                         _______ _______ _______ _____ _____    ______ ____
ROOT
ATOM      1  C   LIG A   1     -12.786   8.685 129.488  0.00  0.00    +0.060 C 
ATOM      2  C   LIG A   1     -11.694   7.744 128.961  0.00  0.00    +0.123 C 
ATOM      3  C   LIG A   1     -11.587   7.902 127.437  0.00  0.00    +0.060 C 
ATOM      4  C   LIG A   1     -12.122   6.307 129.262  0.00  0.00    +0.020 C 
ATOM      5  C   LIG A   1     -11.814   5.886 130.486  0.00  0.00    +0.015 C 
ATOM      6  C   LIG A   1     -10.345   5.928 130.559  0.00  0.00    +0.059 A 
ATOM      7  C   LIG A   1      -9.611   4.785 130.844  0.00  0.00    +0.138 A 
ATOM      8  C   LIG A   1      -8.221   4.831 131.022  0.00  0.00    +0.036 A 
ATOM      9  C   LIG A   1      -7.443   3.529 131.166  0.00  0.00    +0.218 C 
ATOM     10  C   LIG A   1      -8.318   2.357 130.702  0.00  0.00    +0.105 C 
ATOM     11  C   LIG A   1      -7.704   1.252 131.463  0.00  0.00    +0.008 A 
ATOM     12  C   LIG A   1      -7.027   1.806 132.555  0.00  0.00    +0.129 A 
ATOM     13  C   LIG A   1      -6.613   1.007 133.605  0.00  0.00    +0.095 A 
ATOM     14  C   LIG A   1      -6.912  -0.347 133.492  0.00  0.00    +0.170 A 
ATOM     15  O   LIG A   1      -6.652  -1.306 134.426  0.00  0.00    -0.453 OA
ATOM     16  C   LIG A   1      -7.144  -2.489 133.757  0.00  0.00    +0.466 C 
ATOM     17  O   LIG A   1      -7.833  -2.206 132.526  0.00  0.00    -0.453 OA
ATOM     18  C   LIG A   1      -7.582  -0.877 132.401  0.00  0.00    +0.167 A 
ATOM     19  C   LIG A   1      -7.998  -0.098 131.351  0.00  0.00    +0.057 A 
ATOM     20  O   LIG A   1      -6.993   3.195 132.520  0.00  0.00    -0.483 OA
ATOM     21  C   LIG A   1      -9.721   2.511 131.270  0.00  0.00    +0.241 C 
ATOM     22  O   LIG A   1     -10.354   3.643 130.745  0.00  0.00    -0.490 OA
ATOM     23  C   LIG A   1      -7.599   6.090 130.892  0.00  0.00    +0.014 A 
ATOM     24  C   LIG A   1      -8.334   7.221 130.452  0.00  0.00    +0.047 A 
ATOM     25  C   LIG A   1      -9.705   7.114 130.212  0.00  0.00    +0.132 A 
ATOM     26  O   LIG A   1     -10.407   8.124 129.582  0.00  0.00    -0.481 OA
ENDROOT
TORSDOF 0
ENDMDL
MODEL 9
REMARK VINA RESULT:      -8.2      8.002      9.413
REMARK  Name = NuBBE_1891
REMARK  2 active torsions:
REMARK  status: ('A' for Active; 'I' for Inactive)
REMARK    1  A    between atoms: C_1  and  C_2
REMARK    2  A    between atoms: C_2  and  C_3
REMARK                            x       y       z     vdW  Elec       q    Type
REMARK                         _______ _______ _______ _____ _____    ______ ____
ROOT
ATOM      1  C   LIG A   1      -6.360  -1.794 122.551  0.00  0.00    +0.060 C 
ATOM      2  C   LIG A   1      -7.351  -1.429 123.666  0.00  0.00    +0.123 C 
ATOM      3  C   LIG A   1      -8.489  -0.587 123.071  0.00  0.00    +0.060 C 
ATOM      4  C   LIG A   1      -6.611  -0.571 124.694  0.00  0.00    +0.020 C 
ATOM      5  C   LIG A   1      -5.932  -1.266 125.604  0.00  0.00    +0.015 C 
ATOM      6  C   LIG A   1      -6.940  -2.051 126.334  0.00  0.00    +0.059 A 
ATOM      7  C   LIG A   1      -7.089  -1.919 127.707  0.00  0.00    +0.138 A 
ATOM      8  C   LIG A   1      -7.970  -2.735 128.431  0.00  0.00    +0.036 A 
ATOM      9  C   LIG A   1      -8.222  -2.441 129.905  0.00  0.00    +0.218 C 
ATOM     10  C   LIG A   1      -7.725  -1.026 130.235  0.00  0.00    +0.105 C 
ATOM     11  C   LIG A   1      -7.471  -1.168 131.681  0.00  0.00    +0.008 A 
ATOM     12  C   LIG A   1      -7.300  -2.529 131.958  0.00  0.00    +0.129 A 
ATOM     13  C   LIG A   1      -6.755  -2.940 133.160  0.00  0.00    +0.095 A 
ATOM     14  C   LIG A   1      -6.403  -1.925 134.044  0.00  0.00    +0.170 A 
ATOM     15  O   LIG A   1      -5.801  -2.093 135.257  0.00  0.00    -0.453 OA
ATOM     16  C   LIG A   1      -5.716  -0.725 135.718  0.00  0.00    +0.466 C 
ATOM     17  O   LIG A   1      -6.105   0.240 134.724  0.00  0.00    -0.453 OA
ATOM     18  C   LIG A   1      -6.581  -0.582 133.754  0.00  0.00    +0.167 A 
ATOM     19  C   LIG A   1      -7.122  -0.159 132.566  0.00  0.00    +0.057 A 
ATOM     20  O   LIG A   1      -7.569  -3.339 130.861  0.00  0.00    -0.483 OA
ATOM     21  C   LIG A   1      -6.359  -0.804 129.602  0.00  0.00    +0.241 C 
ATOM     22  O   LIG A   1      -6.443  -0.823 128.205  0.00  0.00    -0.490 OA
ATOM     23  C   LIG A   1      -8.703  -3.694 127.700  0.00  0.00    +0.014 A 
ATOM     24  C   LIG A   1      -8.656  -3.717 126.282  0.00  0.00    +0.047 A 
ATOM     25  C   LIG A   1      -7.822  -2.833 125.596  0.00  0.00    +0.132 A 
ATOM     26  O   LIG A   1      -7.909  -2.679 124.225  0.00  0.00    -0.481 OA
ENDROOT
TORSDOF 0
ENDMDL
