MODEL 1
REMARK VINA RESULT:      -6.9      0.000      0.000
REMARK  Name = NuBBE_1087
REMARK  4 active torsions:
REMARK  status: ('A' for Active; 'I' for Inactive)
REMARK    1  A    between atoms: C_2  and  O_3
REMARK    2  A    between atoms: C_2  and  C_5
REMARK    3  A    between atoms: O_3  and  C_4
REMARK    4  A    between atoms: C_8  and  C_9
REMARK                            x       y       z     vdW  Elec       q    Type
REMARK                         _______ _______ _______ _____ _____    ______ ____
ROOT
ATOM      1  C   LIG A   1      -6.962   3.270 122.226  0.00  0.00    +0.018 A 
ATOM      2  C   LIG A   1      -5.698   3.822 122.486  0.00  0.00    +0.013 A 
ATOM      3  C   LIG A   1      -5.015   4.593 121.538  0.00  0.00    +0.027 A 
ATOM      4  C   LIG A   1      -5.639   4.802 120.307  0.00  0.00    +0.046 A 
ATOM      5  N   LIG A   1      -5.215   5.506 119.203  0.00  0.00    -0.361 N 
ATOM      6  H   LIG A   1      -4.334   5.997 119.141  0.00  0.00    +0.165 HD
ATOM      7  C   LIG A   1      -6.158   5.446 118.212  0.00  0.00    +0.083 A 
ATOM      8  C   LIG A   1      -7.209   4.689 118.678  0.00  0.00    +0.027 A 
ATOM      9  C   LIG A   1      -6.892   4.275 120.001  0.00  0.00    +0.000 A 
ATOM     10  C   LIG A   1      -7.559   3.500 120.974  0.00  0.00    +0.021 A 
ENDROOT
BRANCH   1  14
ATOM     11  C   LIG A   1      -8.511   1.010 124.728  0.00  0.00    +0.097 A 
ATOM     12  C   LIG A   1      -9.270   2.158 124.697  0.00  0.00    +0.210 A 
ATOM     13  O   LIG A   1      -8.763   3.047 123.806  0.00  0.00    -0.462 OA
ATOM     14  C   LIG A   1      -7.656   2.478 123.239  0.00  0.00    +0.136 A 
ATOM     15  C   LIG A   1      -7.462   1.226 123.787  0.00  0.00    +0.065 A 
BRANCH  11  17
ATOM     16  O   LIG A   1      -8.410  -0.224 126.733  0.00  0.00    -0.245 OA
ATOM     17  C   LIG A   1      -8.774  -0.139 125.569  0.00  0.00    +0.342 C 
BRANCH  17  18
ATOM     18  O   LIG A   1      -9.464  -1.108 124.899  0.00  0.00    -0.464 OA
ATOM     19  C   LIG A   1      -9.085  -2.439 125.244  0.00  0.00    +0.280 C 
ENDBRANCH  17  18
ENDBRANCH  11  17
ENDBRANCH   1  14
TORSDOF 3
ENDMDL
MODEL 2
REMARK VINA RESULT:      -6.7      9.792     11.614
REMARK  Name = NuBBE_1087
REMARK  4 active torsions:
REMARK  status: ('A' for Active; 'I' for Inactive)
REMARK    1  A    between atoms: C_2  and  O_3
REMARK    2  A    between atoms: C_2  and  C_5
REMARK    3  A    between atoms: O_3  and  C_4
REMARK    4  A    between atoms: C_8  and  C_9
REMARK                            x       y       z     vdW  Elec       q    Type
REMARK                         _______ _______ _______ _____ _____    ______ ____
ROOT
ATOM      1  C   LIG A   1      -8.675   6.570 131.463  0.00  0.00    +0.018 A 
ATOM      2  C   LIG A   1      -7.312   6.708 131.162  0.00  0.00    +0.013 A 
ATOM      3  C   LIG A   1      -6.310   6.220 132.008  0.00  0.00    +0.027 A 
ATOM      4  C   LIG A   1      -6.714   5.580 133.182  0.00  0.00    +0.046 A 
ATOM      5  N   LIG A   1      -5.966   5.010 134.187  0.00  0.00    -0.361 N 
ATOM      6  H   LIG A   1      -4.956   4.980 134.201  0.00  0.00    +0.165 HD
ATOM      7  C   LIG A   1      -6.788   4.490 135.152  0.00  0.00    +0.083 A 
ATOM      8  C   LIG A   1      -8.088   4.729 134.770  0.00  0.00    +0.027 A 
ATOM      9  C   LIG A   1      -8.055   5.419 133.526  0.00  0.00    +0.000 A 
ATOM     10  C   LIG A   1      -9.045   5.921 132.655  0.00  0.00    +0.021 A 
ENDROOT
BRANCH   1  14
ATOM     11  C   LIG A   1     -11.502   7.710 129.347  0.00  0.00    +0.097 A 
ATOM     12  C   LIG A   1     -10.344   8.134 128.735  0.00  0.00    +0.210 A 
ATOM     13  O   LIG A   1      -9.255   7.762 129.455  0.00  0.00    -0.462 OA
ATOM     14  C   LIG A   1      -9.700   7.080 130.554  0.00  0.00    +0.136 A 
ATOM     15  C   LIG A   1     -11.079   7.034 130.529  0.00  0.00    +0.065 A 
BRANCH  11  17
ATOM     16  O   LIG A   1     -13.706   7.076 128.806  0.00  0.00    -0.245 OA
ATOM     17  C   LIG A   1     -12.840   7.939 128.844  0.00  0.00    +0.342 C 
BRANCH  17  18
ATOM     18  O   LIG A   1     -13.006   9.224 128.414  0.00  0.00    -0.464 OA
ATOM     19  C   LIG A   1     -13.324  10.151 129.449  0.00  0.00    +0.280 C 
ENDBRANCH  17  18
ENDBRANCH  11  17
ENDBRANCH   1  14
TORSDOF 3
ENDMDL
MODEL 3
REMARK VINA RESULT:      -6.7      9.199     11.478
REMARK  Name = NuBBE_1087
REMARK  4 active torsions:
REMARK  status: ('A' for Active; 'I' for Inactive)
REMARK    1  A    between atoms: C_2  and  O_3
REMARK    2  A    between atoms: C_2  and  C_5
REMARK    3  A    between atoms: O_3  and  C_4
REMARK    4  A    between atoms: C_8  and  C_9
REMARK                            x       y       z     vdW  Elec       q    Type
REMARK                         _______ _______ _______ _____ _____    ______ ____
ROOT
ATOM      1  C   LIG A   1      -9.363   6.476 131.607  0.00  0.00    +0.018 A 
ATOM      2  C   LIG A   1      -8.100   6.768 131.072  0.00  0.00    +0.013 A 
ATOM      3  C   LIG A   1      -6.915   6.382 131.708  0.00  0.00    +0.027 A 
ATOM      4  C   LIG A   1      -7.029   5.685 132.913  0.00  0.00    +0.046 A 
ATOM      5  N   LIG A   1      -6.054   5.186 133.747  0.00  0.00    -0.361 N 
ATOM      6  H   LIG A   1      -5.061   5.268 133.579  0.00  0.00    +0.165 HD
ATOM      7  C   LIG A   1      -6.626   4.564 134.825  0.00  0.00    +0.083 A 
ATOM      8  C   LIG A   1      -7.992   4.663 134.690  0.00  0.00    +0.027 A 
ATOM      9  C   LIG A   1      -8.259   5.371 133.485  0.00  0.00    +0.000 A 
ATOM     10  C   LIG A   1      -9.439   5.773 132.823  0.00  0.00    +0.021 A 
ENDROOT
BRANCH   1  14
ATOM     11  C   LIG A   1     -12.267   7.647 129.616  0.00  0.00    +0.097 A 
ATOM     12  C   LIG A   1     -12.768   7.083 130.768  0.00  0.00    +0.210 A 
ATOM     13  O   LIG A   1     -11.764   6.619 131.554  0.00  0.00    -0.462 OA
ATOM     14  C   LIG A   1     -10.584   6.883 130.915  0.00  0.00    +0.136 A 
ATOM     15  C   LIG A   1     -10.851   7.508 129.713  0.00  0.00    +0.065 A 
BRANCH  11  17
ATOM     16  O   LIG A   1     -13.317   9.432 128.493  0.00  0.00    -0.245 OA
ATOM     17  C   LIG A   1     -13.065   8.237 128.563  0.00  0.00    +0.342 C 
BRANCH  17  18
ATOM     18  O   LIG A   1     -13.505   7.299 127.674  0.00  0.00    -0.464 OA
ATOM     19  C   LIG A   1     -12.603   7.043 126.600  0.00  0.00    +0.280 C 
ENDBRANCH  17  18
ENDBRANCH  11  17
ENDBRANCH   1  14
TORSDOF 3
ENDMDL
MODEL 4
REMARK VINA RESULT:      -6.7     10.140     11.318
REMARK  Name = NuBBE_1087
REMARK  4 active torsions:
REMARK  status: ('A' for Active; 'I' for Inactive)
REMARK    1  A    between atoms: C_2  and  O_3
REMARK    2  A    between atoms: C_2  and  C_5
REMARK    3  A    between atoms: O_3  and  C_4
REMARK    4  A    between atoms: C_8  and  C_9
REMARK                            x       y       z     vdW  Elec       q    Type
REMARK                         _______ _______ _______ _____ _____    ______ ____
ROOT
ATOM      1  C   LIG A   1      -7.701   6.597 131.537  0.00  0.00    +0.018 A 
ATOM      2  C   LIG A   1      -8.195   5.910 132.655  0.00  0.00    +0.013 A 
ATOM      3  C   LIG A   1      -9.565   5.697 132.852  0.00  0.00    +0.027 A 
ATOM      4  C   LIG A   1     -10.439   6.197 131.884  0.00  0.00    +0.046 A 
ATOM      5  N   LIG A   1     -11.813   6.139 131.812  0.00  0.00    -0.361 N 
ATOM      6  H   LIG A   1     -12.403   5.695 132.501  0.00  0.00    +0.165 HD
ATOM      7  C   LIG A   1     -12.254   6.764 130.676  0.00  0.00    +0.083 A 
ATOM      8  C   LIG A   1     -11.151   7.237 130.002  0.00  0.00    +0.027 A 
ATOM      9  C   LIG A   1      -9.997   6.886 130.757  0.00  0.00    +0.000 A 
ATOM     10  C   LIG A   1      -8.612   7.087 130.584  0.00  0.00    +0.021 A 
ENDROOT
BRANCH   1  14
ATOM     11  C   LIG A   1      -4.009   6.920 131.348  0.00  0.00    +0.097 A 
ATOM     12  C   LIG A   1      -4.534   7.683 130.328  0.00  0.00    +0.210 A 
ATOM     13  O   LIG A   1      -5.889   7.612 130.322  0.00  0.00    -0.462 OA
ATOM     14  C   LIG A   1      -6.265   6.795 131.353  0.00  0.00    +0.136 A 
ATOM     15  C   LIG A   1      -5.135   6.341 132.004  0.00  0.00    +0.065 A 
BRANCH  11  17
ATOM     16  O   LIG A   1      -1.896   7.683 132.058  0.00  0.00    -0.245 OA
ATOM     17  C   LIG A   1      -2.598   6.774 131.637  0.00  0.00    +0.342 C 
BRANCH  17  18
ATOM     18  O   LIG A   1      -2.154   5.512 131.370  0.00  0.00    -0.464 OA
ATOM     19  C   LIG A   1      -1.533   4.865 132.479  0.00  0.00    +0.280 C 
ENDBRANCH  17  18
ENDBRANCH  11  17
ENDBRANCH   1  14
TORSDOF 3
ENDMDL
MODEL 5
REMARK VINA RESULT:      -6.5      9.256     10.524
REMARK  Name = NuBBE_1087
REMARK  4 active torsions:
REMARK  status: ('A' for Active; 'I' for Inactive)
REMARK    1  A    between atoms: C_2  and  O_3
REMARK    2  A    between atoms: C_2  and  C_5
REMARK    3  A    between atoms: O_3  and  C_4
REMARK    4  A    between atoms: C_8  and  C_9
REMARK                            x       y       z     vdW  Elec       q    Type
REMARK                         _______ _______ _______ _____ _____    ______ ____
ROOT
ATOM      1  C   LIG A   1      -7.545   6.486 131.644  0.00  0.00    +0.018 A 
ATOM      2  C   LIG A   1      -7.029   5.791 132.748  0.00  0.00    +0.013 A 
ATOM      3  C   LIG A   1      -5.659   5.757 133.032  0.00  0.00    +0.027 A 
ATOM      4  C   LIG A   1      -4.806   6.448 132.169  0.00  0.00    +0.046 A 
ATOM      5  N   LIG A   1      -3.437   6.589 132.197  0.00  0.00    -0.361 N 
ATOM      6  H   LIG A   1      -2.834   6.181 132.898  0.00  0.00    +0.165 HD
ATOM      7  C   LIG A   1      -3.019   7.362 131.146  0.00  0.00    +0.083 A 
ATOM      8  C   LIG A   1      -4.133   7.725 130.423  0.00  0.00    +0.027 A 
ATOM      9  C   LIG A   1      -5.268   7.152 131.060  0.00  0.00    +0.000 A 
ATOM     10  C   LIG A   1      -6.654   7.169 130.796  0.00  0.00    +0.021 A 
ENDROOT
BRANCH   1  14
ATOM     11  C   LIG A   1     -11.117   6.618 130.650  0.00  0.00    +0.097 A 
ATOM     12  C   LIG A   1     -11.084   6.450 132.017  0.00  0.00    +0.210 A 
ATOM     13  O   LIG A   1      -9.804   6.383 132.463  0.00  0.00    -0.462 OA
ATOM     14  C   LIG A   1      -8.981   6.512 131.378  0.00  0.00    +0.136 A 
ATOM     15  C   LIG A   1      -9.752   6.650 130.241  0.00  0.00    +0.065 A 
BRANCH  11  17
ATOM     16  O   LIG A   1     -13.373   7.189 130.277  0.00  0.00    -0.245 OA
ATOM     17  C   LIG A   1     -12.322   6.727 129.855  0.00  0.00    +0.342 C 
BRANCH  17  18
ATOM     18  O   LIG A   1     -12.140   6.244 128.591  0.00  0.00    -0.464 OA
ATOM     19  C   LIG A   1     -12.473   7.169 127.558  0.00  0.00    +0.280 C 
ENDBRANCH  17  18
ENDBRANCH  11  17
ENDBRANCH   1  14
TORSDOF 3
ENDMDL
MODEL 6
REMARK VINA RESULT:      -6.5      9.836     10.868
REMARK  Name = NuBBE_1087
REMARK  4 active torsions:
REMARK  status: ('A' for Active; 'I' for Inactive)
REMARK    1  A    between atoms: C_2  and  O_3
REMARK    2  A    between atoms: C_2  and  C_5
REMARK    3  A    between atoms: O_3  and  C_4
REMARK    4  A    between atoms: C_8  and  C_9
REMARK                            x       y       z     vdW  Elec       q    Type
REMARK                         _______ _______ _______ _____ _____    ______ ____
ROOT
ATOM      1  C   LIG A   1      -9.488   6.789 131.049  0.00  0.00    +0.018 A 
ATOM      2  C   LIG A   1     -10.630   6.332 131.723  0.00  0.00    +0.013 A 
ATOM      3  C   LIG A   1     -11.922   6.566 131.239  0.00  0.00    +0.027 A 
ATOM      4  C   LIG A   1     -12.043   7.281 130.045  0.00  0.00    +0.046 A 
ATOM      5  N   LIG A   1     -13.165   7.655 129.342  0.00  0.00    -0.361 N 
ATOM      6  H   LIG A   1     -14.113   7.442 129.622  0.00  0.00    +0.165 HD
ATOM      7  C   LIG A   1     -12.810   8.347 128.215  0.00  0.00    +0.083 A 
ATOM      8  C   LIG A   1     -11.436   8.426 128.187  0.00  0.00    +0.027 A 
ATOM      9  C   LIG A   1     -10.939   7.757 129.340  0.00  0.00    +0.000 A 
ATOM     10  C   LIG A   1      -9.648   7.507 129.850  0.00  0.00    +0.021 A 
ENDROOT
BRANCH   1  14
ATOM     11  C   LIG A   1      -5.971   6.270 132.115  0.00  0.00    +0.097 A 
ATOM     12  C   LIG A   1      -6.768   5.586 133.005  0.00  0.00    +0.210 A 
ATOM     13  O   LIG A   1      -8.079   5.733 132.689  0.00  0.00    -0.462 OA
ATOM     14  C   LIG A   1      -8.150   6.520 131.573  0.00  0.00    +0.136 A 
ATOM     15  C   LIG A   1      -6.873   6.880 131.193  0.00  0.00    +0.065 A 
BRANCH  11  17
ATOM     16  O   LIG A   1      -3.843   5.571 132.844  0.00  0.00    -0.245 OA
ATOM     17  C   LIG A   1      -4.525   6.323 132.163  0.00  0.00    +0.342 C 
BRANCH  17  18
ATOM     18  O   LIG A   1      -4.028   7.315 131.368  0.00  0.00    -0.464 OA
ATOM     19  C   LIG A   1      -2.928   8.023 131.935  0.00  0.00    +0.280 C 
ENDBRANCH  17  18
ENDBRANCH  11  17
ENDBRANCH   1  14
TORSDOF 3
ENDMDL
MODEL 7
REMARK VINA RESULT:      -6.4      9.798     11.048
REMARK  Name = NuBBE_1087
REMARK  4 active torsions:
REMARK  status: ('A' for Active; 'I' for Inactive)
REMARK    1  A    between atoms: C_2  and  O_3
REMARK    2  A    between atoms: C_2  and  C_5
REMARK    3  A    between atoms: O_3  and  C_4
REMARK    4  A    between atoms: C_8  and  C_9
REMARK                            x       y       z     vdW  Elec       q    Type
REMARK                         _______ _______ _______ _____ _____    ______ ____
ROOT
ATOM      1  C   LIG A   1      -7.117   6.611 131.571  0.00  0.00    +0.018 A 
ATOM      2  C   LIG A   1      -6.018   7.127 130.869  0.00  0.00    +0.013 A 
ATOM      3  C   LIG A   1      -4.704   6.977 131.328  0.00  0.00    +0.027 A 
ATOM      4  C   LIG A   1      -4.517   6.286 132.528  0.00  0.00    +0.046 A 
ATOM      5  N   LIG A   1      -3.360   5.988 133.211  0.00  0.00    -0.361 N 
ATOM      6  H   LIG A   1      -2.433   6.252 132.908  0.00  0.00    +0.165 HD
ATOM      7  C   LIG A   1      -3.651   5.285 134.350  0.00  0.00    +0.083 A 
ATOM      8  C   LIG A   1      -5.017   5.126 134.408  0.00  0.00    +0.027 A 
ATOM      9  C   LIG A   1      -5.576   5.755 133.262  0.00  0.00    +0.000 A 
ATOM     10  C   LIG A   1      -6.890   5.922 132.776  0.00  0.00    +0.021 A 
ENDROOT
BRANCH   1  14
ATOM     11  C   LIG A   1     -10.666   6.799 130.503  0.00  0.00    +0.097 A 
ATOM     12  C   LIG A   1      -9.943   7.597 129.644  0.00  0.00    +0.210 A 
ATOM     13  O   LIG A   1      -8.626   7.590 129.974  0.00  0.00    -0.462 OA
ATOM     14  C   LIG A   1      -8.477   6.774 131.061  0.00  0.00    +0.136 A 
ATOM     15  C   LIG A   1      -9.712   6.274 131.423  0.00  0.00    +0.065 A 
BRANCH  11  17
ATOM     16  O   LIG A   1     -12.867   6.864 131.340  0.00  0.00    -0.245 OA
ATOM     17  C   LIG A   1     -12.096   6.584 130.433  0.00  0.00    +0.342 C 
BRANCH  17  18
ATOM     18  O   LIG A   1     -12.466   6.025 129.244  0.00  0.00    -0.464 OA
ATOM     19  C   LIG A   1     -13.358   6.828 128.474  0.00  0.00    +0.280 C 
ENDBRANCH  17  18
ENDBRANCH  11  17
ENDBRANCH   1  14
TORSDOF 3
ENDMDL
MODEL 8
REMARK VINA RESULT:      -6.2      7.266     10.449
REMARK  Name = NuBBE_1087
REMARK  4 active torsions:
REMARK  status: ('A' for Active; 'I' for Inactive)
REMARK    1  A    between atoms: C_2  and  O_3
REMARK    2  A    between atoms: C_2  and  C_5
REMARK    3  A    between atoms: O_3  and  C_4
REMARK    4  A    between atoms: C_8  and  C_9
REMARK                            x       y       z     vdW  Elec       q    Type
REMARK                         _______ _______ _______ _____ _____    ______ ____
ROOT
ATOM      1  C   LIG A   1      -6.056  -3.215 129.374  0.00  0.00    +0.018 A 
ATOM      2  C   LIG A   1      -4.835  -2.544 129.209  0.00  0.00    +0.013 A 
ATOM      3  C   LIG A   1      -3.789  -2.665 130.131  0.00  0.00    +0.027 A 
ATOM      4  C   LIG A   1      -4.001  -3.488 131.240  0.00  0.00    +0.046 A 
ATOM      5  N   LIG A   1      -3.168  -3.793 132.293  0.00  0.00    -0.361 N 
ATOM      6  H   LIG A   1      -2.230  -3.434 132.402  0.00  0.00    +0.165 HD
ATOM      7  C   LIG A   1      -3.794  -4.651 133.158  0.00  0.00    +0.083 A 
ATOM      8  C   LIG A   1      -5.052  -4.905 132.661  0.00  0.00    +0.027 A 
ATOM      9  C   LIG A   1      -5.195  -4.174 131.449  0.00  0.00    +0.000 A 
ATOM     10  C   LIG A   1      -6.233  -4.033 130.504  0.00  0.00    +0.021 A 
ENDROOT
BRANCH   1  14
ATOM     11  C   LIG A   1      -8.612  -2.596 126.757  0.00  0.00    +0.097 A 
ATOM     12  C   LIG A   1      -9.059  -3.655 127.516  0.00  0.00    +0.210 A 
ATOM     13  O   LIG A   1      -8.171  -3.953 128.497  0.00  0.00    -0.462 OA
ATOM     14  C   LIG A   1      -7.126  -3.077 128.389  0.00  0.00    +0.136 A 
ATOM     15  C   LIG A   1      -7.356  -2.231 127.323  0.00  0.00    +0.065 A 
BRANCH  11  17
ATOM     16  O   LIG A   1      -9.522  -0.825 125.496  0.00  0.00    -0.245 OA
ATOM     17  C   LIG A   1      -9.318  -2.024 125.630  0.00  0.00    +0.342 C 
BRANCH  17  18
ATOM     18  O   LIG A   1      -9.731  -2.984 124.751  0.00  0.00    -0.464 OA
ATOM     19  C   LIG A   1      -8.907  -3.112 123.595  0.00  0.00    +0.280 C 
ENDBRANCH  17  18
ENDBRANCH  11  17
ENDBRANCH   1  14
TORSDOF 3
ENDMDL
MODEL 9
REMARK VINA RESULT:      -6.0      7.791     11.246
REMARK  Name = NuBBE_1087
REMARK  4 active torsions:
REMARK  status: ('A' for Active; 'I' for Inactive)
REMARK    1  A    between atoms: C_2  and  O_3
REMARK    2  A    between atoms: C_2  and  C_5
REMARK    3  A    between atoms: O_3  and  C_4
REMARK    4  A    between atoms: C_8  and  C_9
REMARK                            x       y       z     vdW  Elec       q    Type
REMARK                         _______ _______ _______ _____ _____    ______ ____
ROOT
ATOM      1  C   LIG A   1      -6.962  -3.374 130.391  0.00  0.00    +0.018 A 
ATOM      2  C   LIG A   1      -7.608  -2.748 131.468  0.00  0.00    +0.013 A 
ATOM      3  C   LIG A   1      -7.275  -3.028 132.799  0.00  0.00    +0.027 A 
ATOM      4  C   LIG A   1      -6.264  -3.964 133.026  0.00  0.00    +0.046 A 
ATOM      5  N   LIG A   1      -5.734  -4.430 134.208  0.00  0.00    -0.361 N 
ATOM      6  H   LIG A   1      -6.032  -4.131 135.126  0.00  0.00    +0.165 HD
ATOM      7  C   LIG A   1      -4.749  -5.348 133.955  0.00  0.00    +0.083 A 
ATOM      8  C   LIG A   1      -4.640  -5.481 132.590  0.00  0.00    +0.027 A 
ATOM      9  C   LIG A   1      -5.594  -4.612 131.991  0.00  0.00    +0.000 A 
ATOM     10  C   LIG A   1      -5.949  -4.312 130.659  0.00  0.00    +0.021 A 
ENDROOT
BRANCH   1  14
ATOM     11  C   LIG A   1      -8.173  -2.708 126.948  0.00  0.00    +0.097 A 
ATOM     12  C   LIG A   1      -6.865  -2.281 127.005  0.00  0.00    +0.210 A 
ATOM     13  O   LIG A   1      -6.347  -2.483 128.242  0.00  0.00    -0.462 OA
ATOM     14  C   LIG A   1      -7.323  -3.054 129.012  0.00  0.00    +0.136 A 
ATOM     15  C   LIG A   1      -8.467  -3.201 128.253  0.00  0.00    +0.065 A 
BRANCH  11  17
ATOM     16  O   LIG A   1      -9.900  -1.801 125.625  0.00  0.00    -0.245 OA
ATOM     17  C   LIG A   1      -9.021  -2.638 125.776  0.00  0.00    +0.342 C 
BRANCH  17  18
ATOM     18  O   LIG A   1      -8.723  -3.621 124.877  0.00  0.00    -0.464 OA
ATOM     19  C   LIG A   1      -9.310  -3.434 123.591  0.00  0.00    +0.280 C 
ENDBRANCH  17  18
ENDBRANCH  11  17
ENDBRANCH   1  14
TORSDOF 3
ENDMDL
