MODEL 1
REMARK VINA RESULT:      -5.7      0.000      0.000
REMARK  Name = NuBBE_1753
REMARK  5 active torsions:
REMARK  status: ('A' for Active; 'I' for Inactive)
REMARK    1  A    between atoms: O_1  and  C_2
REMARK    2  A    between atoms: O_1  and  C_3
REMARK    3  A    between atoms: C_5  and  C_6
REMARK    4  A    between atoms: C_6  and  C_7
REMARK    5  A    between atoms: C_11  and  O_12
REMARK                            x       y       z     vdW  Elec       q    Type
REMARK                         _______ _______ _______ _____ _____    ______ ____
ROOT
ATOM      1  C   LIG A   1     -10.138   7.107 128.704  0.00  0.00    +0.162 A 
ATOM      2  C   LIG A   1     -10.964   7.846 129.567  0.00  0.00    +0.053 A 
ATOM      3  C   LIG A   1     -12.123   8.492 129.106  0.00  0.00    -0.040 A 
ATOM      4  C   LIG A   1     -12.446   8.396 127.749  0.00  0.00    +0.008 A 
ATOM      5  C   LIG A   1     -11.637   7.661 126.879  0.00  0.00    +0.049 A 
ATOM      6  C   LIG A   1     -10.489   7.016 127.353  0.00  0.00    +0.159 A 
ENDROOT
BRANCH   1   7
ATOM      7  O   LIG A   1      -9.059   6.554 129.342  0.00  0.00    -0.491 OA
ATOM      8  C   LIG A   1      -8.966   6.699 130.751  0.00  0.00    +0.277 C 
ENDBRANCH   1   7
BRANCH   6   9
ATOM      9  O   LIG A   1      -9.736   6.302 126.462  0.00  0.00    -0.503 OA
ATOM     10  H   LIG A   1      -9.052   6.880 126.088  0.00  0.00    +0.292 HD
ENDBRANCH   6   9
BRANCH   3  11
ATOM     11  C   LIG A   1     -13.002   9.270 130.058  0.00  0.00    +0.061 C 
BRANCH  11  12
ATOM     12  C   LIG A   1     -13.436  10.610 129.521  0.00  0.00    -0.030 C 
ATOM     13  C   LIG A   1     -13.627  11.701 130.273  0.00  0.00    +0.004 C 
ENDBRANCH  11  12
ENDBRANCH   3  11
TORSDOF 4
ENDMDL
MODEL 2
REMARK VINA RESULT:      -5.6      1.321      2.640
REMARK  Name = NuBBE_1753
REMARK  5 active torsions:
REMARK  status: ('A' for Active; 'I' for Inactive)
REMARK    1  A    between atoms: O_1  and  C_2
REMARK    2  A    between atoms: O_1  and  C_3
REMARK    3  A    between atoms: C_5  and  C_6
REMARK    4  A    between atoms: C_6  and  C_7
REMARK    5  A    between atoms: C_11  and  O_12
REMARK                            x       y       z     vdW  Elec       q    Type
REMARK                         _______ _______ _______ _____ _____    ______ ____
ROOT
ATOM      1  C   LIG A   1     -11.012   7.058 129.005  0.00  0.00    +0.162 A 
ATOM      2  C   LIG A   1     -11.698   8.237 128.670  0.00  0.00    +0.053 A 
ATOM      3  C   LIG A   1     -12.645   8.812 129.534  0.00  0.00    -0.040 A 
ATOM      4  C   LIG A   1     -12.909   8.177 130.752  0.00  0.00    +0.008 A 
ATOM      5  C   LIG A   1     -12.232   7.006 131.101  0.00  0.00    +0.049 A 
ATOM      6  C   LIG A   1     -11.286   6.449 130.233  0.00  0.00    +0.159 A 
ENDROOT
BRANCH   1   7
ATOM      7  O   LIG A   1     -10.132   6.659 128.034  0.00  0.00    -0.491 OA
ATOM      8  C   LIG A   1     -10.391   7.048 126.693  0.00  0.00    +0.277 C 
ENDBRANCH   1   7
BRANCH   6   9
ATOM      9  O   LIG A   1     -10.646   5.306 130.627  0.00  0.00    -0.503 OA
ATOM     10  H   LIG A   1      -9.686   5.445 130.578  0.00  0.00    +0.292 HD
ENDBRANCH   6   9
BRANCH   3  11
ATOM     11  C   LIG A   1     -13.359  10.090 129.156  0.00  0.00    +0.061 C 
BRANCH  11  12
ATOM     12  C   LIG A   1     -13.475  11.075 130.291  0.00  0.00    -0.030 C 
ATOM     13  C   LIG A   1     -13.850  12.352 130.148  0.00  0.00    +0.004 C 
ENDBRANCH  11  12
ENDBRANCH   3  11
TORSDOF 4
ENDMDL
MODEL 3
REMARK VINA RESULT:      -5.5     10.107     12.647
REMARK  Name = NuBBE_1753
REMARK  5 active torsions:
REMARK  status: ('A' for Active; 'I' for Inactive)
REMARK    1  A    between atoms: O_1  and  C_2
REMARK    2  A    between atoms: O_1  and  C_3
REMARK    3  A    between atoms: C_5  and  C_6
REMARK    4  A    between atoms: C_6  and  C_7
REMARK    5  A    between atoms: C_11  and  O_12
REMARK                            x       y       z     vdW  Elec       q    Type
REMARK                         _______ _______ _______ _____ _____    ______ ____
ROOT
ATOM      1  C   LIG A   1      -8.010  -0.320 123.377  0.00  0.00    +0.162 A 
ATOM      2  C   LIG A   1      -6.825  -0.896 123.866  0.00  0.00    +0.053 A 
ATOM      3  C   LIG A   1      -6.709  -2.280 124.075  0.00  0.00    -0.040 A 
ATOM      4  C   LIG A   1      -7.812  -3.093 123.795  0.00  0.00    +0.008 A 
ATOM      5  C   LIG A   1      -8.995  -2.535 123.304  0.00  0.00    +0.049 A 
ATOM      6  C   LIG A   1      -9.095  -1.155 123.094  0.00  0.00    +0.159 A 
ENDROOT
BRANCH   1   7
ATOM      7  O   LIG A   1      -7.924   1.041 123.241  0.00  0.00    -0.491 OA
ATOM      8  C   LIG A   1      -8.450   1.853 124.280  0.00  0.00    +0.277 C 
ENDBRANCH   1   7
BRANCH   6   9
ATOM      9  O   LIG A   1     -10.272  -0.661 122.604  0.00  0.00    -0.503 OA
ATOM     10  H   LIG A   1     -10.915  -1.385 122.530  0.00  0.00    +0.292 HD
ENDBRANCH   6   9
BRANCH   3  11
ATOM     11  C   LIG A   1      -5.418  -2.876 124.589  0.00  0.00    +0.061 C 
BRANCH  11  12
ATOM     12  C   LIG A   1      -4.600  -3.555 123.520  0.00  0.00    -0.030 C 
ATOM     13  C   LIG A   1      -4.316  -4.863 123.500  0.00  0.00    +0.004 C 
ENDBRANCH  11  12
ENDBRANCH   3  11
TORSDOF 4
ENDMDL
MODEL 4
REMARK VINA RESULT:      -5.4      2.638      3.931
REMARK  Name = NuBBE_1753
REMARK  5 active torsions:
REMARK  status: ('A' for Active; 'I' for Inactive)
REMARK    1  A    between atoms: O_1  and  C_2
REMARK    2  A    between atoms: O_1  and  C_3
REMARK    3  A    between atoms: C_5  and  C_6
REMARK    4  A    between atoms: C_6  and  C_7
REMARK    5  A    between atoms: C_11  and  O_12
REMARK                            x       y       z     vdW  Elec       q    Type
REMARK                         _______ _______ _______ _____ _____    ______ ____
ROOT
ATOM      1  C   LIG A   1      -9.349   6.601 131.216  0.00  0.00    +0.162 A 
ATOM      2  C   LIG A   1      -9.465   7.343 130.028  0.00  0.00    +0.053 A 
ATOM      3  C   LIG A   1     -10.717   7.709 129.506  0.00  0.00    -0.040 A 
ATOM      4  C   LIG A   1     -11.869   7.309 130.191  0.00  0.00    +0.008 A 
ATOM      5  C   LIG A   1     -11.769   6.575 131.376  0.00  0.00    +0.049 A 
ATOM      6  C   LIG A   1     -10.515   6.224 131.888  0.00  0.00    +0.159 A 
ENDROOT
BRANCH   1   7
ATOM      7  O   LIG A   1      -8.047   6.346 131.560  0.00  0.00    -0.491 OA
ATOM      8  C   LIG A   1      -7.288   5.490 130.719  0.00  0.00    +0.277 C 
ENDBRANCH   1   7
BRANCH   6   9
ATOM      9  O   LIG A   1     -10.473   5.512 133.056  0.00  0.00    -0.503 OA
ATOM     10  H   LIG A   1     -10.750   4.598 132.882  0.00  0.00    +0.292 HD
ENDBRANCH   6   9
BRANCH   3  11
ATOM     11  C   LIG A   1     -10.815   8.519 128.234  0.00  0.00    +0.061 C 
BRANCH  11  12
ATOM     12  C   LIG A   1     -10.879   7.676 126.985  0.00  0.00    -0.030 C 
ATOM     13  C   LIG A   1     -12.009   7.187 126.460  0.00  0.00    +0.004 C 
ENDBRANCH  11  12
ENDBRANCH   3  11
TORSDOF 4
ENDMDL
MODEL 5
REMARK VINA RESULT:      -5.3     10.214     12.642
REMARK  Name = NuBBE_1753
REMARK  5 active torsions:
REMARK  status: ('A' for Active; 'I' for Inactive)
REMARK    1  A    between atoms: O_1  and  C_2
REMARK    2  A    between atoms: O_1  and  C_3
REMARK    3  A    between atoms: C_5  and  C_6
REMARK    4  A    between atoms: C_6  and  C_7
REMARK    5  A    between atoms: C_11  and  O_12
REMARK                            x       y       z     vdW  Elec       q    Type
REMARK                         _______ _______ _______ _____ _____    ______ ____
ROOT
ATOM      1  C   LIG A   1      -8.783  -1.862 124.739  0.00  0.00    +0.162 A 
ATOM      2  C   LIG A   1      -7.653  -2.550 124.265  0.00  0.00    +0.053 A 
ATOM      3  C   LIG A   1      -6.666  -1.910 123.498  0.00  0.00    -0.040 A 
ATOM      4  C   LIG A   1      -6.829  -0.554 123.197  0.00  0.00    +0.008 A 
ATOM      5  C   LIG A   1      -7.945   0.145 123.665  0.00  0.00    +0.049 A 
ATOM      6  C   LIG A   1      -8.917  -0.504 124.434  0.00  0.00    +0.159 A 
ENDROOT
BRANCH   1   7
ATOM      7  O   LIG A   1      -9.627  -2.659 125.466  0.00  0.00    -0.491 OA
ATOM      8  C   LIG A   1      -9.092  -3.367 126.575  0.00  0.00    +0.277 C 
ENDBRANCH   1   7
BRANCH   6   9
ATOM      9  O   LIG A   1      -9.985   0.228 124.874  0.00  0.00    -0.503 OA
ATOM     10  H   LIG A   1     -10.022   0.188 125.843  0.00  0.00    +0.292 HD
ENDBRANCH   6   9
BRANCH   3  11
ATOM     11  C   LIG A   1      -5.453  -2.670 123.012  0.00  0.00    +0.061 C 
BRANCH  11  12
ATOM     12  C   LIG A   1      -5.043  -3.799 123.924  0.00  0.00    -0.030 C 
ATOM     13  C   LIG A   1      -4.281  -4.834 123.551  0.00  0.00    +0.004 C 
ENDBRANCH  11  12
ENDBRANCH   3  11
TORSDOF 4
ENDMDL
MODEL 6
REMARK VINA RESULT:      -5.3     11.656     13.069
REMARK  Name = NuBBE_1753
REMARK  5 active torsions:
REMARK  status: ('A' for Active; 'I' for Inactive)
REMARK    1  A    between atoms: O_1  and  C_2
REMARK    2  A    between atoms: O_1  and  C_3
REMARK    3  A    between atoms: C_5  and  C_6
REMARK    4  A    between atoms: C_6  and  C_7
REMARK    5  A    between atoms: C_11  and  O_12
REMARK                            x       y       z     vdW  Elec       q    Type
REMARK                         _______ _______ _______ _____ _____    ______ ____
ROOT
ATOM      1  C   LIG A   1      -8.160  -2.582 126.506  0.00  0.00    +0.162 A 
ATOM      2  C   LIG A   1      -6.840  -2.430 126.051  0.00  0.00    +0.053 A 
ATOM      3  C   LIG A   1      -6.493  -2.638 124.706  0.00  0.00    -0.040 A 
ATOM      4  C   LIG A   1      -7.496  -3.016 123.809  0.00  0.00    +0.008 A 
ATOM      5  C   LIG A   1      -8.815  -3.168 124.244  0.00  0.00    +0.049 A 
ATOM      6  C   LIG A   1      -9.148  -2.950 125.586  0.00  0.00    +0.159 A 
ENDROOT
BRANCH   1   7
ATOM      7  O   LIG A   1      -8.295  -2.335 127.846  0.00  0.00    -0.491 OA
ATOM      8  C   LIG A   1      -7.872  -3.337 128.759  0.00  0.00    +0.277 C 
ENDBRANCH   1   7
BRANCH   6   9
ATOM      9  O   LIG A   1     -10.454  -3.104 125.959  0.00  0.00    -0.503 OA
ATOM     10  H   LIG A   1     -11.003  -2.473 125.467  0.00  0.00    +0.292 HD
ENDBRANCH   6   9
BRANCH   3  11
ATOM     11  C   LIG A   1      -5.067  -2.453 124.240  0.00  0.00    +0.061 C 
BRANCH  11  12
ATOM     12  C   LIG A   1      -4.608  -3.510 123.267  0.00  0.00    -0.030 C 
ATOM     13  C   LIG A   1      -4.296  -4.766 123.608  0.00  0.00    +0.004 C 
ENDBRANCH  11  12
ENDBRANCH   3  11
TORSDOF 4
ENDMDL
MODEL 7
REMARK VINA RESULT:      -5.3      2.151      4.458
REMARK  Name = NuBBE_1753
REMARK  5 active torsions:
REMARK  status: ('A' for Active; 'I' for Inactive)
REMARK    1  A    between atoms: O_1  and  C_2
REMARK    2  A    between atoms: O_1  and  C_3
REMARK    3  A    between atoms: C_5  and  C_6
REMARK    4  A    between atoms: C_6  and  C_7
REMARK    5  A    between atoms: C_11  and  O_12
REMARK                            x       y       z     vdW  Elec       q    Type
REMARK                         _______ _______ _______ _____ _____    ______ ____
ROOT
ATOM      1  C   LIG A   1     -11.369   8.308 128.684  0.00  0.00    +0.162 A 
ATOM      2  C   LIG A   1     -10.762   7.235 129.358  0.00  0.00    +0.053 A 
ATOM      3  C   LIG A   1     -11.239   6.775 130.596  0.00  0.00    -0.040 A 
ATOM      4  C   LIG A   1     -12.343   7.417 131.166  0.00  0.00    +0.008 A 
ATOM      5  C   LIG A   1     -12.961   8.483 130.506  0.00  0.00    +0.049 A 
ATOM      6  C   LIG A   1     -12.478   8.926 129.269  0.00  0.00    +0.159 A 
ENDROOT
BRANCH   1   7
ATOM      7  O   LIG A   1     -10.758   8.605 127.494  0.00  0.00    -0.491 OA
ATOM      8  C   LIG A   1     -10.876   7.673 126.429  0.00  0.00    +0.277 C 
ENDBRANCH   1   7
BRANCH   6   9
ATOM      9  O   LIG A   1     -13.124   9.967 128.662  0.00  0.00    -0.503 OA
ATOM     10  H   LIG A   1     -12.545  10.348 127.982  0.00  0.00    +0.292 HD
ENDBRANCH   6   9
BRANCH   3  11
ATOM     11  C   LIG A   1     -10.576   5.609 131.294  0.00  0.00    +0.061 C 
BRANCH  11  12
ATOM     12  C   LIG A   1      -9.517   6.022 132.284  0.00  0.00    -0.030 C 
ATOM     13  C   LIG A   1      -8.243   6.281 131.965  0.00  0.00    +0.004 C 
ENDBRANCH  11  12
ENDBRANCH   3  11
TORSDOF 4
ENDMDL
MODEL 8
REMARK VINA RESULT:      -5.1      7.536      9.450
REMARK  Name = NuBBE_1753
REMARK  5 active torsions:
REMARK  status: ('A' for Active; 'I' for Inactive)
REMARK    1  A    between atoms: O_1  and  C_2
REMARK    2  A    between atoms: O_1  and  C_3
REMARK    3  A    between atoms: C_5  and  C_6
REMARK    4  A    between atoms: C_6  and  C_7
REMARK    5  A    between atoms: C_11  and  O_12
REMARK                            x       y       z     vdW  Elec       q    Type
REMARK                         _______ _______ _______ _____ _____    ______ ____
ROOT
ATOM      1  C   LIG A   1      -6.984   3.534 124.252  0.00  0.00    +0.162 A 
ATOM      2  C   LIG A   1      -5.994   3.684 123.267  0.00  0.00    +0.053 A 
ATOM      3  C   LIG A   1      -6.284   3.534 121.900  0.00  0.00    -0.040 A 
ATOM      4  C   LIG A   1      -7.594   3.216 121.527  0.00  0.00    +0.008 A 
ATOM      5  C   LIG A   1      -8.590   3.068 122.495  0.00  0.00    +0.049 A 
ATOM      6  C   LIG A   1      -8.288   3.228 123.853  0.00  0.00    +0.159 A 
ENDROOT
BRANCH   1   7
ATOM      7  O   LIG A   1      -6.504   3.719 125.523  0.00  0.00    -0.491 OA
ATOM      8  C   LIG A   1      -5.747   4.891 125.789  0.00  0.00    +0.277 C 
ENDBRANCH   1   7
BRANCH   6   9
ATOM      9  O   LIG A   1      -9.301   3.080 124.759  0.00  0.00    -0.503 OA
ATOM     10  H   LIG A   1     -10.046   2.626 124.334  0.00  0.00    +0.292 HD
ENDBRANCH   6   9
BRANCH   3  11
ATOM     11  C   LIG A   1      -5.204   3.714 120.859  0.00  0.00    +0.061 C 
BRANCH  11  12
ATOM     12  C   LIG A   1      -5.131   5.114 120.302  0.00  0.00    -0.030 C 
ATOM     13  C   LIG A   1      -5.691   5.498 119.148  0.00  0.00    +0.004 C 
ENDBRANCH  11  12
ENDBRANCH   3  11
TORSDOF 4
ENDMDL
MODEL 9
REMARK VINA RESULT:      -5.0      2.653      5.923
REMARK  Name = NuBBE_1753
REMARK  5 active torsions:
REMARK  status: ('A' for Active; 'I' for Inactive)
REMARK    1  A    between atoms: O_1  and  C_2
REMARK    2  A    between atoms: O_1  and  C_3
REMARK    3  A    between atoms: C_5  and  C_6
REMARK    4  A    between atoms: C_6  and  C_7
REMARK    5  A    between atoms: C_11  and  O_12
REMARK                            x       y       z     vdW  Elec       q    Type
REMARK                         _______ _______ _______ _____ _____    ______ ____
ROOT
ATOM      1  C   LIG A   1     -10.464   7.020 130.439  0.00  0.00    +0.162 A 
ATOM      2  C   LIG A   1      -9.082   7.205 130.276  0.00  0.00    +0.053 A 
ATOM      3  C   LIG A   1      -8.157   6.741 131.226  0.00  0.00    -0.040 A 
ATOM      4  C   LIG A   1      -8.641   6.087 132.364  0.00  0.00    +0.008 A 
ATOM      5  C   LIG A   1     -10.014   5.892 132.538  0.00  0.00    +0.049 A 
ATOM      6  C   LIG A   1     -10.923   6.354 131.579  0.00  0.00    +0.159 A 
ENDROOT
BRANCH   1   7
ATOM      7  O   LIG A   1     -11.198   7.543 129.406  0.00  0.00    -0.491 OA
ATOM      8  C   LIG A   1     -10.530   8.357 128.454  0.00  0.00    +0.277 C 
ENDBRANCH   1   7
BRANCH   6   9
ATOM      9  O   LIG A   1     -12.255   6.129 131.793  0.00  0.00    -0.503 OA
ATOM     10  H   LIG A   1     -12.773   6.744 131.249  0.00  0.00    +0.292 HD
ENDBRANCH   6   9
BRANCH   3  11
ATOM     11  C   LIG A   1      -6.673   6.940 131.020  0.00  0.00    +0.061 C 
BRANCH  11  12
ATOM     12  C   LIG A   1      -5.822   5.917 131.729  0.00  0.00    -0.030 C 
ATOM     13  C   LIG A   1      -5.033   6.184 132.776  0.00  0.00    +0.004 C 
ENDBRANCH  11  12
ENDBRANCH   3  11
TORSDOF 4
ENDMDL
