MODEL 1
REMARK VINA RESULT:      -7.8      0.000      0.000
REMARK  Name = NuBBE_1851
REMARK  7 active torsions:
REMARK  status: ('A' for Active; 'I' for Inactive)
REMARK    1  A    between atoms: C_2  and  C_3
REMARK    2  A    between atoms: C_3  and  C_4
REMARK    3  A    between atoms: C_7  and  C_9
REMARK    4  A    between atoms: C_10  and  C_12
REMARK    5  A    between atoms: C_23  and  O_24
REMARK    6  A    between atoms: O_24  and  C_25
REMARK    7  A    between atoms: C_26  and  O_27
REMARK                            x       y       z     vdW  Elec       q    Type
REMARK                         _______ _______ _______ _____ _____    ______ ____
ROOT
ATOM      1  C   LIG A   1      -7.092  -0.959 124.334  0.00  0.00    +0.043 A 
ATOM      2  C   LIG A   1      -7.114   0.422 124.171  0.00  0.00    +0.132 A 
ATOM      3  C   LIG A   1      -6.922   1.307 125.227  0.00  0.00    +0.005 A 
ATOM      4  C   LIG A   1      -6.948   2.709 124.719  0.00  0.00    +0.065 C 
ATOM      5  C   LIG A   1      -7.847   3.647 125.516  0.00  0.00    +0.016 C 
ATOM      6  C   LIG A   1      -7.477   2.455 123.287  0.00  0.00    +0.211 C 
ATOM      7  O   LIG A   1      -7.303   1.048 122.965  0.00  0.00    -0.483 OA
ATOM      8  C   LIG A   1      -6.692   0.844 126.516  0.00  0.00    +0.057 A 
ATOM      9  C   LIG A   1      -6.662  -0.535 126.723  0.00  0.00    +0.162 A 
ATOM     10  C   LIG A   1      -6.873  -1.416 125.638  0.00  0.00    +0.166 A 
ENDROOT
BRANCH   6  11
ATOM     11  C   LIG A   1      -6.787   3.309 122.236  0.00  0.00    -0.003 A 
ATOM     12  C   LIG A   1      -7.392   3.543 120.987  0.00  0.00    +0.056 A 
ATOM     13  C   LIG A   1      -6.734   4.345 120.078  0.00  0.00    +0.167 A 
ATOM     14  C   LIG A   1      -5.511   4.904 120.357  0.00  0.00    +0.166 A 
ATOM     15  O   LIG A   1      -5.043   5.665 119.331  0.00  0.00    -0.453 OA
ATOM     16  C   LIG A   1      -6.119   5.528 118.380  0.00  0.00    +0.466 C 
ATOM     17  O   LIG A   1      -7.191   4.683 118.844  0.00  0.00    -0.453 OA
ATOM     18  C   LIG A   1      -4.874   4.687 121.560  0.00  0.00    +0.050 A 
ATOM     19  C   LIG A   1      -5.520   3.881 122.505  0.00  0.00    +0.011 A 
ENDBRANCH   6  11
BRANCH   9  20
ATOM     20  O   LIG A   1      -6.470  -1.148 127.939  0.00  0.00    -0.491 OA
ATOM     21  C   LIG A   1      -7.492  -0.927 128.906  0.00  0.00    +0.277 C 
ENDBRANCH   9  20
BRANCH  10  22
ATOM     22  O   LIG A   1      -6.835  -2.769 125.878  0.00  0.00    -0.503 OA
ATOM     23  H   LIG A   1      -7.273  -2.885 126.743  0.00  0.00    +0.292 HD
ENDBRANCH  10  22
BRANCH   1  24
ATOM     24  C   LIG A   1      -7.305  -1.901 123.177  0.00  0.00    +0.069 C 
BRANCH  24  26
ATOM     25  C   LIG A   1      -9.427  -3.240 123.468  0.00  0.00    +0.004 C 
ATOM     26  C   LIG A   1      -8.757  -2.219 122.919  0.00  0.00    -0.030 C 
ENDBRANCH  24  26
ENDBRANCH   1  24
TORSDOF 5
ENDMDL
MODEL 2
REMARK VINA RESULT:      -7.7      4.301      8.811
REMARK  Name = NuBBE_1851
REMARK  7 active torsions:
REMARK  status: ('A' for Active; 'I' for Inactive)
REMARK    1  A    between atoms: C_2  and  C_3
REMARK    2  A    between atoms: C_3  and  C_4
REMARK    3  A    between atoms: C_7  and  C_9
REMARK    4  A    between atoms: C_10  and  C_12
REMARK    5  A    between atoms: C_23  and  O_24
REMARK    6  A    between atoms: O_24  and  C_25
REMARK    7  A    between atoms: C_26  and  O_27
REMARK                            x       y       z     vdW  Elec       q    Type
REMARK                         _______ _______ _______ _____ _____    ______ ____
ROOT
ATOM      1  C   LIG A   1      -6.420  -2.055 124.331  0.00  0.00    +0.043 A 
ATOM      2  C   LIG A   1      -6.533  -1.792 125.692  0.00  0.00    +0.132 A 
ATOM      3  C   LIG A   1      -7.669  -1.217 126.254  0.00  0.00    +0.005 A 
ATOM      4  C   LIG A   1      -7.501  -1.117 127.733  0.00  0.00    +0.065 C 
ATOM      5  C   LIG A   1      -7.842   0.252 128.310  0.00  0.00    +0.016 C 
ATOM      6  C   LIG A   1      -5.993  -1.449 127.845  0.00  0.00    +0.211 C 
ATOM      7  O   LIG A   1      -5.560  -2.087 126.613  0.00  0.00    -0.483 OA
ATOM      8  C   LIG A   1      -8.762  -0.876 125.470  0.00  0.00    +0.057 A 
ATOM      9  C   LIG A   1      -8.689  -1.123 124.098  0.00  0.00    +0.162 A 
ATOM     10  C   LIG A   1      -7.521  -1.696 123.546  0.00  0.00    +0.166 A 
ENDROOT
BRANCH   6  11
ATOM     11  C   LIG A   1      -5.668  -2.346 129.028  0.00  0.00    -0.003 A 
ATOM     12  C   LIG A   1      -4.476  -2.174 129.756  0.00  0.00    +0.056 A 
ATOM     13  C   LIG A   1      -4.240  -2.999 130.836  0.00  0.00    +0.167 A 
ATOM     14  C   LIG A   1      -5.125  -3.983 131.204  0.00  0.00    +0.166 A 
ATOM     15  O   LIG A   1      -4.706  -4.675 132.296  0.00  0.00    -0.453 OA
ATOM     16  C   LIG A   1      -3.460  -4.006 132.579  0.00  0.00    +0.466 C 
ATOM     17  O   LIG A   1      -3.153  -2.948 131.650  0.00  0.00    -0.453 OA
ATOM     18  C   LIG A   1      -6.295  -4.199 130.508  0.00  0.00    +0.050 A 
ATOM     19  C   LIG A   1      -6.565  -3.373 129.410  0.00  0.00    +0.011 A 
ENDBRANCH   6  11
BRANCH   9  20
ATOM     20  O   LIG A   1      -9.674  -0.822 123.187  0.00  0.00    -0.491 OA
ATOM     21  C   LIG A   1      -9.855   0.564 122.914  0.00  0.00    +0.277 C 
ENDBRANCH   9  20
BRANCH  10  22
ATOM     22  O   LIG A   1      -7.484  -1.928 122.192  0.00  0.00    -0.503 OA
ATOM     23  H   LIG A   1      -7.774  -2.854 122.086  0.00  0.00    +0.292 HD
ENDBRANCH  10  22
BRANCH   1  24
ATOM     24  C   LIG A   1      -5.180  -2.677 123.741  0.00  0.00    +0.069 C 
BRANCH  24  26
ATOM     25  C   LIG A   1      -4.138  -4.957 123.438  0.00  0.00    +0.004 C 
ATOM     26  C   LIG A   1      -5.129  -4.177 123.888  0.00  0.00    -0.030 C 
ENDBRANCH  24  26
ENDBRANCH   1  24
TORSDOF 5
ENDMDL
MODEL 3
REMARK VINA RESULT:      -7.0      3.949      5.698
REMARK  Name = NuBBE_1851
REMARK  7 active torsions:
REMARK  status: ('A' for Active; 'I' for Inactive)
REMARK    1  A    between atoms: C_2  and  C_3
REMARK    2  A    between atoms: C_3  and  C_4
REMARK    3  A    between atoms: C_7  and  C_9
REMARK    4  A    between atoms: C_10  and  C_12
REMARK    5  A    between atoms: C_23  and  O_24
REMARK    6  A    between atoms: O_24  and  C_25
REMARK    7  A    between atoms: C_26  and  O_27
REMARK                            x       y       z     vdW  Elec       q    Type
REMARK                         _______ _______ _______ _____ _____    ______ ____
ROOT
ATOM      1  C   LIG A   1      -7.406   0.154 125.893  0.00  0.00    +0.043 A 
ATOM      2  C   LIG A   1      -6.687   1.310 125.614  0.00  0.00    +0.132 A 
ATOM      3  C   LIG A   1      -7.199   2.347 124.841  0.00  0.00    +0.005 A 
ATOM      4  C   LIG A   1      -6.210   3.461 124.776  0.00  0.00    +0.065 C 
ATOM      5  C   LIG A   1      -5.951   3.986 123.368  0.00  0.00    +0.016 C 
ATOM      6  C   LIG A   1      -4.977   2.749 125.380  0.00  0.00    +0.211 C 
ATOM      7  O   LIG A   1      -5.422   1.558 126.085  0.00  0.00    -0.483 OA
ATOM      8  C   LIG A   1      -8.477   2.274 124.303  0.00  0.00    +0.057 A 
ATOM      9  C   LIG A   1      -9.234   1.129 124.558  0.00  0.00    +0.162 A 
ATOM     10  C   LIG A   1      -8.687   0.082 125.335  0.00  0.00    +0.166 A 
ENDROOT
BRANCH   6  11
ATOM     11  C   LIG A   1      -4.180   3.634 126.323  0.00  0.00    -0.003 A 
ATOM     12  C   LIG A   1      -4.698   4.866 126.765  0.00  0.00    +0.056 A 
ATOM     13  C   LIG A   1      -3.945   5.620 127.640  0.00  0.00    +0.167 A 
ATOM     14  C   LIG A   1      -2.708   5.207 128.074  0.00  0.00    +0.166 A 
ATOM     15  O   LIG A   1      -2.139   6.092 128.936  0.00  0.00    -0.453 OA
ATOM     16  C   LIG A   1      -3.166   7.104 129.002  0.00  0.00    +0.466 C 
ATOM     17  O   LIG A   1      -4.310   6.815 128.174  0.00  0.00    -0.453 OA
ATOM     18  C   LIG A   1      -2.154   4.017 127.653  0.00  0.00    +0.050 A 
ATOM     19  C   LIG A   1      -2.899   3.227 126.768  0.00  0.00    +0.011 A 
ENDBRANCH   6  11
BRANCH   9  20
ATOM     20  O   LIG A   1     -10.501   0.897 124.080  0.00  0.00    -0.491 OA
ATOM     21  C   LIG A   1     -10.597   0.675 122.676  0.00  0.00    +0.277 C 
ENDBRANCH   9  20
BRANCH  10  22
ATOM     22  O   LIG A   1      -9.461  -1.029 125.569  0.00  0.00    -0.503 OA
ATOM     23  H   LIG A   1     -10.028  -0.789 126.327  0.00  0.00    +0.292 HD
ENDBRANCH  10  22
BRANCH   1  24
ATOM     24  C   LIG A   1      -6.831  -0.959 126.731  0.00  0.00    +0.069 C 
BRANCH  24  26
ATOM     25  C   LIG A   1      -5.524  -1.834 124.754  0.00  0.00    +0.004 C 
ATOM     26  C   LIG A   1      -6.151  -2.035 125.921  0.00  0.00    -0.030 C 
ENDBRANCH  24  26
ENDBRANCH   1  24
TORSDOF 5
ENDMDL
MODEL 4
REMARK VINA RESULT:      -7.0      4.367      9.999
REMARK  Name = NuBBE_1851
REMARK  7 active torsions:
REMARK  status: ('A' for Active; 'I' for Inactive)
REMARK    1  A    between atoms: C_2  and  C_3
REMARK    2  A    between atoms: C_3  and  C_4
REMARK    3  A    between atoms: C_7  and  C_9
REMARK    4  A    between atoms: C_10  and  C_12
REMARK    5  A    between atoms: C_23  and  O_24
REMARK    6  A    between atoms: O_24  and  C_25
REMARK    7  A    between atoms: C_26  and  O_27
REMARK                            x       y       z     vdW  Elec       q    Type
REMARK                         _______ _______ _______ _____ _____    ______ ____
ROOT
ATOM      1  C   LIG A   1      -7.750  -0.437 126.756  0.00  0.00    +0.043 A 
ATOM      2  C   LIG A   1      -7.935  -1.515 127.615  0.00  0.00    +0.132 A 
ATOM      3  C   LIG A   1      -8.515  -2.711 127.205  0.00  0.00    +0.005 A 
ATOM      4  C   LIG A   1      -8.519  -3.681 128.338  0.00  0.00    +0.065 C 
ATOM      5  C   LIG A   1      -9.862  -4.364 128.572  0.00  0.00    +0.016 C 
ATOM      6  C   LIG A   1      -8.128  -2.730 129.494  0.00  0.00    +0.211 C 
ATOM      7  O   LIG A   1      -7.550  -1.520 128.932  0.00  0.00    -0.483 OA
ATOM      8  C   LIG A   1      -8.941  -2.889 125.896  0.00  0.00    +0.057 A 
ATOM      9  C   LIG A   1      -8.774  -1.830 125.001  0.00  0.00    +0.162 A 
ATOM     10  C   LIG A   1      -8.195  -0.619 125.442  0.00  0.00    +0.166 A 
ENDROOT
BRANCH   6  11
ATOM     11  C   LIG A   1      -7.150  -3.355 130.475  0.00  0.00    -0.003 A 
ATOM     12  C   LIG A   1      -7.156  -2.986 131.833  0.00  0.00    +0.056 A 
ATOM     13  C   LIG A   1      -6.265  -3.601 132.686  0.00  0.00    +0.167 A 
ATOM     14  C   LIG A   1      -5.372  -4.546 132.243  0.00  0.00    +0.166 A 
ATOM     15  O   LIG A   1      -4.590  -5.032 133.245  0.00  0.00    -0.453 OA
ATOM     16  C   LIG A   1      -5.103  -4.290 134.371  0.00  0.00    +0.466 C 
ATOM     17  O   LIG A   1      -6.159  -3.373 134.022  0.00  0.00    -0.453 OA
ATOM     18  C   LIG A   1      -5.318  -4.925 130.919  0.00  0.00    +0.050 A 
ATOM     19  C   LIG A   1      -6.216  -4.321 130.029  0.00  0.00    +0.011 A 
ENDBRANCH   6  11
BRANCH   9  20
ATOM     20  O   LIG A   1      -9.164  -1.841 123.683  0.00  0.00    -0.491 OA
ATOM     21  C   LIG A   1      -9.517  -3.117 123.157  0.00  0.00    +0.277 C 
ENDBRANCH   9  20
BRANCH  10  22
ATOM     22  O   LIG A   1      -8.044   0.401 124.534  0.00  0.00    -0.503 OA
ATOM     23  H   LIG A   1      -8.857   0.383 123.995  0.00  0.00    +0.292 HD
ENDBRANCH  10  22
BRANCH   1  24
ATOM     24  C   LIG A   1      -7.122   0.852 127.221  0.00  0.00    +0.069 C 
BRANCH  24  26
ATOM     25  C   LIG A   1      -4.898   1.519 126.228  0.00  0.00    +0.004 C 
ATOM     26  C   LIG A   1      -5.616   0.853 127.141  0.00  0.00    -0.030 C 
ENDBRANCH  24  26
ENDBRANCH   1  24
TORSDOF 5
ENDMDL
MODEL 5
REMARK VINA RESULT:      -6.9      9.524     11.117
REMARK  Name = NuBBE_1851
REMARK  7 active torsions:
REMARK  status: ('A' for Active; 'I' for Inactive)
REMARK    1  A    between atoms: C_2  and  C_3
REMARK    2  A    between atoms: C_3  and  C_4
REMARK    3  A    between atoms: C_7  and  C_9
REMARK    4  A    between atoms: C_10  and  C_12
REMARK    5  A    between atoms: C_23  and  O_24
REMARK    6  A    between atoms: O_24  and  C_25
REMARK    7  A    between atoms: C_26  and  O_27
REMARK                            x       y       z     vdW  Elec       q    Type
REMARK                         _______ _______ _______ _____ _____    ______ ____
ROOT
ATOM      1  C   LIG A   1      -4.882   6.171 132.364  0.00  0.00    +0.043 A 
ATOM      2  C   LIG A   1      -6.245   5.930 132.495  0.00  0.00    +0.132 A 
ATOM      3  C   LIG A   1      -6.850   5.684 133.723  0.00  0.00    +0.005 A 
ATOM      4  C   LIG A   1      -8.321   5.521 133.535  0.00  0.00    +0.065 C 
ATOM      5  C   LIG A   1      -8.907   4.292 134.221  0.00  0.00    +0.016 C 
ATOM      6  C   LIG A   1      -8.375   5.421 131.992  0.00  0.00    +0.211 C 
ATOM      7  O   LIG A   1      -7.128   5.932 131.445  0.00  0.00    -0.483 OA
ATOM      8  C   LIG A   1      -6.108   5.670 134.897  0.00  0.00    +0.057 A 
ATOM      9  C   LIG A   1      -4.736   5.907 134.809  0.00  0.00    +0.162 A 
ATOM     10  C   LIG A   1      -4.140   6.141 133.549  0.00  0.00    +0.166 A 
ENDROOT
BRANCH   6  11
ATOM     11  C   LIG A   1      -9.546   6.176 131.386  0.00  0.00    -0.003 A 
ATOM     12  C   LIG A   1      -9.382   6.943 130.217  0.00  0.00    +0.056 A 
ATOM     13  C   LIG A   1     -10.483   7.589 129.695  0.00  0.00    +0.167 A 
ATOM     14  C   LIG A   1     -11.718   7.513 130.291  0.00  0.00    +0.166 A 
ATOM     15  O   LIG A   1     -12.665   8.215 129.612  0.00  0.00    -0.453 OA
ATOM     16  C   LIG A   1     -11.884   8.732 128.515  0.00  0.00    +0.466 C 
ATOM     17  O   LIG A   1     -10.496   8.347 128.567  0.00  0.00    -0.453 OA
ATOM     18  C   LIG A   1     -11.920   6.789 131.446  0.00  0.00    +0.050 A 
ATOM     19  C   LIG A   1     -10.822   6.117 131.997  0.00  0.00    +0.011 A 
ENDBRANCH   6  11
BRANCH   9  20
ATOM     20  O   LIG A   1      -3.864   5.904 135.872  0.00  0.00    -0.491 OA
ATOM     21  C   LIG A   1      -4.428   6.260 137.131  0.00  0.00    +0.277 C 
ENDBRANCH   9  20
BRANCH  10  22
ATOM     22  O   LIG A   1      -2.786   6.374 133.500  0.00  0.00    -0.503 OA
ATOM     23  H   LIG A   1      -2.520   6.130 132.593  0.00  0.00    +0.292 HD
ENDBRANCH  10  22
BRANCH   1  24
ATOM     24  C   LIG A   1      -4.245   6.433 131.023  0.00  0.00    +0.069 C 
BRANCH  24  26
ATOM     25  C   LIG A   1      -3.879   8.354 129.424  0.00  0.00    +0.004 C 
ATOM     26  C   LIG A   1      -4.272   7.885 130.616  0.00  0.00    -0.030 C 
ENDBRANCH  24  26
ENDBRANCH   1  24
TORSDOF 5
ENDMDL
MODEL 6
REMARK VINA RESULT:      -6.8      3.866      6.681
REMARK  Name = NuBBE_1851
REMARK  7 active torsions:
REMARK  status: ('A' for Active; 'I' for Inactive)
REMARK    1  A    between atoms: C_2  and  C_3
REMARK    2  A    between atoms: C_3  and  C_4
REMARK    3  A    between atoms: C_7  and  C_9
REMARK    4  A    between atoms: C_10  and  C_12
REMARK    5  A    between atoms: C_23  and  O_24
REMARK    6  A    between atoms: O_24  and  C_25
REMARK    7  A    between atoms: C_26  and  O_27
REMARK                            x       y       z     vdW  Elec       q    Type
REMARK                         _______ _______ _______ _____ _____    ______ ____
ROOT
ATOM      1  C   LIG A   1      -5.227  -2.119 130.195  0.00  0.00    +0.043 A 
ATOM      2  C   LIG A   1      -6.163  -2.256 129.177  0.00  0.00    +0.132 A 
ATOM      3  C   LIG A   1      -7.438  -2.772 129.390  0.00  0.00    +0.005 A 
ATOM      4  C   LIG A   1      -8.214  -2.734 128.118  0.00  0.00    +0.065 C 
ATOM      5  C   LIG A   1      -8.919  -4.043 127.777  0.00  0.00    +0.016 C 
ATOM      6  C   LIG A   1      -7.074  -2.399 127.127  0.00  0.00    +0.211 C 
ATOM      7  O   LIG A   1      -5.940  -1.879 127.876  0.00  0.00    -0.483 OA
ATOM      8  C   LIG A   1      -7.842  -3.179 130.654  0.00  0.00    +0.057 A 
ATOM      9  C   LIG A   1      -6.931  -3.060 131.706  0.00  0.00    +0.162 A 
ATOM     10  C   LIG A   1      -5.637  -2.546 131.463  0.00  0.00    +0.166 A 
ENDROOT
BRANCH   6  11
ATOM     11  C   LIG A   1      -7.485  -1.397 126.061  0.00  0.00    -0.003 A 
ATOM     12  C   LIG A   1      -8.786  -0.859 126.042  0.00  0.00    +0.056 A 
ATOM     13  C   LIG A   1      -9.100   0.065 125.068  0.00  0.00    +0.167 A 
ATOM     14  C   LIG A   1      -8.188   0.457 124.119  0.00  0.00    +0.166 A 
ATOM     15  O   LIG A   1      -8.698   1.379 123.259  0.00  0.00    -0.453 OA
ATOM     16  C   LIG A   1     -10.033   1.529 123.784  0.00  0.00    +0.466 C 
ATOM     17  O   LIG A   1     -10.299   0.690 124.926  0.00  0.00    -0.453 OA
ATOM     18  C   LIG A   1      -6.909  -0.057 124.089  0.00  0.00    +0.050 A 
ATOM     19  C   LIG A   1      -6.559  -0.994 125.070  0.00  0.00    +0.011 A 
ENDBRANCH   6  11
BRANCH   9  20
ATOM     20  O   LIG A   1      -7.170  -3.440 133.005  0.00  0.00    -0.491 OA
ATOM     21  C   LIG A   1      -8.091  -2.625 133.724  0.00  0.00    +0.277 C 
ENDBRANCH   9  20
BRANCH  10  22
ATOM     22  O   LIG A   1      -4.768  -2.440 132.521  0.00  0.00    -0.503 OA
ATOM     23  H   LIG A   1      -3.902  -2.234 132.119  0.00  0.00    +0.292 HD
ENDBRANCH  10  22
BRANCH   1  24
ATOM     24  C   LIG A   1      -3.850  -1.560 129.942  0.00  0.00    +0.069 C 
BRANCH  24  26
ATOM     25  C   LIG A   1      -3.104  -3.836 129.139  0.00  0.00    +0.004 C 
ATOM     26  C   LIG A   1      -2.823  -2.614 129.611  0.00  0.00    -0.030 C 
ENDBRANCH  24  26
ENDBRANCH   1  24
TORSDOF 5
ENDMDL
MODEL 7
REMARK VINA RESULT:      -6.7      7.630     10.381
REMARK  Name = NuBBE_1851
REMARK  7 active torsions:
REMARK  status: ('A' for Active; 'I' for Inactive)
REMARK    1  A    between atoms: C_2  and  C_3
REMARK    2  A    between atoms: C_3  and  C_4
REMARK    3  A    between atoms: C_7  and  C_9
REMARK    4  A    between atoms: C_10  and  C_12
REMARK    5  A    between atoms: C_23  and  O_24
REMARK    6  A    between atoms: O_24  and  C_25
REMARK    7  A    between atoms: C_26  and  O_27
REMARK                            x       y       z     vdW  Elec       q    Type
REMARK                         _______ _______ _______ _____ _____    ______ ____
ROOT
ATOM      1  C   LIG A   1      -4.056   6.080 129.558  0.00  0.00    +0.043 A 
ATOM      2  C   LIG A   1      -5.200   6.085 130.348  0.00  0.00    +0.132 A 
ATOM      3  C   LIG A   1      -5.177   6.413 131.701  0.00  0.00    +0.005 A 
ATOM      4  C   LIG A   1      -6.564   6.380 132.248  0.00  0.00    +0.065 C 
ATOM      5  C   LIG A   1      -6.704   5.598 133.549  0.00  0.00    +0.016 C 
ATOM      6  C   LIG A   1      -7.294   5.699 131.065  0.00  0.00    +0.211 C 
ATOM      7  O   LIG A   1      -6.456   5.794 129.880  0.00  0.00    -0.483 OA
ATOM      8  C   LIG A   1      -3.991   6.758 132.333  0.00  0.00    +0.057 A 
ATOM      9  C   LIG A   1      -2.819   6.765 131.575  0.00  0.00    +0.162 A 
ATOM     10  C   LIG A   1      -2.863   6.415 130.206  0.00  0.00    +0.166 A 
ENDROOT
BRANCH   6  11
ATOM     11  C   LIG A   1      -8.657   6.306 130.778  0.00  0.00    -0.003 A 
ATOM     12  C   LIG A   1      -9.773   5.979 131.571  0.00  0.00    +0.056 A 
ATOM     13  C   LIG A   1     -10.982   6.576 131.283  0.00  0.00    +0.167 A 
ATOM     14  C   LIG A   1     -11.124   7.462 130.243  0.00  0.00    +0.166 A 
ATOM     15  O   LIG A   1     -12.393   7.939 130.138  0.00  0.00    -0.453 OA
ATOM     16  C   LIG A   1     -13.030   7.258 131.239  0.00  0.00    +0.466 C 
ATOM     17  O   LIG A   1     -12.143   6.383 131.964  0.00  0.00    -0.453 OA
ATOM     18  C   LIG A   1     -10.063   7.797 129.430  0.00  0.00    +0.050 A 
ATOM     19  C   LIG A   1      -8.820   7.211 129.701  0.00  0.00    +0.011 A 
ENDBRANCH   6  11
BRANCH   9  20
ATOM     20  O   LIG A   1      -1.567   7.060 132.059  0.00  0.00    -0.491 OA
ATOM     21  C   LIG A   1      -1.490   8.198 132.912  0.00  0.00    +0.277 C 
ENDBRANCH   9  20
BRANCH  10  22
ATOM     22  O   LIG A   1      -1.691   6.434 129.490  0.00  0.00    -0.503 OA
ATOM     23  H   LIG A   1      -1.796   5.738 128.813  0.00  0.00    +0.292 HD
ENDBRANCH  10  22
BRANCH   1  24
ATOM     24  C   LIG A   1      -4.102   5.719 128.095  0.00  0.00    +0.069 C 
BRANCH  24  26
ATOM     25  C   LIG A   1      -2.849   3.538 127.863  0.00  0.00    +0.004 C 
ATOM     26  C   LIG A   1      -3.991   4.237 127.836  0.00  0.00    -0.030 C 
ENDBRANCH  24  26
ENDBRANCH   1  24
TORSDOF 5
ENDMDL
MODEL 8
REMARK VINA RESULT:      -6.7      5.460      8.638
REMARK  Name = NuBBE_1851
REMARK  7 active torsions:
REMARK  status: ('A' for Active; 'I' for Inactive)
REMARK    1  A    between atoms: C_2  and  C_3
REMARK    2  A    between atoms: C_3  and  C_4
REMARK    3  A    between atoms: C_7  and  C_9
REMARK    4  A    between atoms: C_10  and  C_12
REMARK    5  A    between atoms: C_23  and  O_24
REMARK    6  A    between atoms: O_24  and  C_25
REMARK    7  A    between atoms: C_26  and  O_27
REMARK                            x       y       z     vdW  Elec       q    Type
REMARK                         _______ _______ _______ _____ _____    ______ ____
ROOT
ATOM      1  C   LIG A   1      -6.772  -0.131 131.979  0.00  0.00    +0.043 A 
ATOM      2  C   LIG A   1      -6.792  -1.202 131.093  0.00  0.00    +0.132 A 
ATOM      3  C   LIG A   1      -6.826  -2.527 131.516  0.00  0.00    +0.005 A 
ATOM      4  C   LIG A   1      -6.897  -3.431 130.331  0.00  0.00    +0.065 C 
ATOM      5  C   LIG A   1      -5.895  -4.579 130.360  0.00  0.00    +0.016 C 
ATOM      6  C   LIG A   1      -6.598  -2.410 129.208  0.00  0.00    +0.211 C 
ATOM      7  O   LIG A   1      -6.804  -1.067 129.728  0.00  0.00    -0.483 OA
ATOM      8  C   LIG A   1      -6.844  -2.847 132.867  0.00  0.00    +0.057 A 
ATOM      9  C   LIG A   1      -6.824  -1.801 133.790  0.00  0.00    +0.162 A 
ATOM     10  C   LIG A   1      -6.776  -0.462 133.338  0.00  0.00    +0.166 A 
ENDROOT
BRANCH   6  11
ATOM     11  C   LIG A   1      -7.456  -2.617 127.971  0.00  0.00    -0.003 A 
ATOM     12  C   LIG A   1      -7.126  -1.992 126.753  0.00  0.00    +0.056 A 
ATOM     13  C   LIG A   1      -7.924  -2.233 125.654  0.00  0.00    +0.167 A 
ATOM     14  C   LIG A   1      -9.027  -3.047 125.724  0.00  0.00    +0.166 A 
ATOM     15  O   LIG A   1      -9.668  -3.156 124.529  0.00  0.00    -0.453 OA
ATOM     16  C   LIG A   1      -8.833  -2.323 123.698  0.00  0.00    +0.466 C 
ATOM     17  O   LIG A   1      -7.730  -1.726 124.408  0.00  0.00    -0.453 OA
ATOM     18  C   LIG A   1      -9.398  -3.664 126.899  0.00  0.00    +0.050 A 
ATOM     19  C   LIG A   1      -8.603  -3.444 128.032  0.00  0.00    +0.011 A 
ENDBRANCH   6  11
BRANCH   9  20
ATOM     20  O   LIG A   1      -6.814  -1.953 135.156  0.00  0.00    -0.491 OA
ATOM     21  C   LIG A   1      -7.471  -3.116 135.650  0.00  0.00    +0.277 C 
ENDBRANCH   9  20
BRANCH  10  22
ATOM     22  O   LIG A   1      -6.760   0.543 134.275  0.00  0.00    -0.503 OA
ATOM     23  H   LIG A   1      -7.433   0.286 134.934  0.00  0.00    +0.292 HD
ENDBRANCH  10  22
BRANCH   1  24
ATOM     24  C   LIG A   1      -6.733   1.297 131.500  0.00  0.00    +0.069 C 
BRANCH  24  26
ATOM     25  C   LIG A   1      -9.223   1.635 131.755  0.00  0.00    +0.004 C 
ATOM     26  C   LIG A   1      -8.081   1.831 131.083  0.00  0.00    -0.030 C 
ENDBRANCH  24  26
ENDBRANCH   1  24
TORSDOF 5
ENDMDL
MODEL 9
REMARK VINA RESULT:      -6.6      3.521      8.804
REMARK  Name = NuBBE_1851
REMARK  7 active torsions:
REMARK  status: ('A' for Active; 'I' for Inactive)
REMARK    1  A    between atoms: C_2  and  C_3
REMARK    2  A    between atoms: C_3  and  C_4
REMARK    3  A    between atoms: C_7  and  C_9
REMARK    4  A    between atoms: C_10  and  C_12
REMARK    5  A    between atoms: C_23  and  O_24
REMARK    6  A    between atoms: O_24  and  C_25
REMARK    7  A    between atoms: C_26  and  O_27
REMARK                            x       y       z     vdW  Elec       q    Type
REMARK                         _______ _______ _______ _____ _____    ______ ____
ROOT
ATOM      1  C   LIG A   1      -7.462  -1.045 125.170  0.00  0.00    +0.043 A 
ATOM      2  C   LIG A   1      -6.800  -0.952 126.389  0.00  0.00    +0.132 A 
ATOM      3  C   LIG A   1      -6.904   0.160 127.218  0.00  0.00    +0.005 A 
ATOM      4  C   LIG A   1      -6.125  -0.071 128.469  0.00  0.00    +0.065 C 
ATOM      5  C   LIG A   1      -5.201   1.080 128.851  0.00  0.00    +0.016 C 
ATOM      6  C   LIG A   1      -5.349  -1.345 128.059  0.00  0.00    +0.211 C 
ATOM      7  O   LIG A   1      -6.004  -1.943 126.906  0.00  0.00    -0.483 OA
ATOM      8  C   LIG A   1      -7.691   1.247 126.861  0.00  0.00    +0.057 A 
ATOM      9  C   LIG A   1      -8.372   1.195 125.644  0.00  0.00    +0.162 A 
ATOM     10  C   LIG A   1      -8.240   0.060 124.811  0.00  0.00    +0.166 A 
ENDROOT
BRANCH   6  11
ATOM     11  C   LIG A   1      -5.249  -2.368 129.178  0.00  0.00    -0.003 A 
ATOM     12  C   LIG A   1      -4.138  -2.385 130.041  0.00  0.00    +0.056 A 
ATOM     13  C   LIG A   1      -4.108  -3.319 131.056  0.00  0.00    +0.167 A 
ATOM     14  C   LIG A   1      -5.120  -4.230 131.233  0.00  0.00    +0.166 A 
ATOM     15  O   LIG A   1      -4.898  -5.053 132.292  0.00  0.00    -0.453 OA
ATOM     16  C   LIG A   1      -3.634  -4.546 132.768  0.00  0.00    +0.466 C 
ATOM     17  O   LIG A   1      -3.122  -3.452 131.981  0.00  0.00    -0.453 OA
ATOM     18  C   LIG A   1      -6.218  -4.261 130.400  0.00  0.00    +0.050 A 
ATOM     19  C   LIG A   1      -6.279  -3.321 129.364  0.00  0.00    +0.011 A 
ENDBRANCH   6  11
BRANCH   9  20
ATOM     20  O   LIG A   1      -9.168   2.195 125.140  0.00  0.00    -0.491 OA
ATOM     21  C   LIG A   1      -8.485   3.378 124.734  0.00  0.00    +0.277 C 
ENDBRANCH   9  20
BRANCH  10  22
ATOM     22  O   LIG A   1      -8.927   0.041 123.621  0.00  0.00    -0.503 OA
ATOM     23  H   LIG A   1      -9.674  -0.570 123.770  0.00  0.00    +0.292 HD
ENDBRANCH  10  22
BRANCH   1  24
ATOM     24  C   LIG A   1      -7.333  -2.259 124.285  0.00  0.00    +0.069 C 
BRANCH  24  26
ATOM     25  C   LIG A   1      -9.491  -3.410 123.654  0.00  0.00    +0.004 C 
ATOM     26  C   LIG A   1      -8.442  -3.263 124.474  0.00  0.00    -0.030 C 
ENDBRANCH  24  26
ENDBRANCH   1  24
TORSDOF 5
ENDMDL
