MODEL 1
REMARK VINA RESULT:      -7.9      0.000      0.000
REMARK  Name = NuBBE_2074
REMARK  5 active torsions:
REMARK  status: ('A' for Active; 'I' for Inactive)
REMARK    1  A    between atoms: C_3  and  C_4
REMARK    2  A    between atoms: C_5  and  O_6
REMARK    3  A    between atoms: C_16  and  O_18
REMARK    4  A    between atoms: O_18  and  C_19
REMARK    5  A    between atoms: C_19  and  C_20
REMARK                            x       y       z     vdW  Elec       q    Type
REMARK                         _______ _______ _______ _____ _____    ______ ____
ROOT
ATOM      1  O   LIG A   1      -8.744   4.665 125.767  0.00  0.00    -0.250 OA
ATOM      2  C   LIG A   1      -8.403   3.502 125.833  0.00  0.00    +0.319 C 
ATOM      3  C   LIG A   1      -7.824   2.614 124.761  0.00  0.00    +0.125 C 
ATOM      4  C   LIG A   1      -6.303   2.794 125.051  0.00  0.00    +0.029 C 
ATOM      5  C   LIG A   1      -8.111   2.565 123.239  0.00  0.00    +0.183 C 
ATOM      6  C   LIG A   1      -9.454   1.887 122.793  0.00  0.00    +0.066 C 
ATOM      7  C   LIG A   1      -9.497   0.380 123.268  0.00  0.00    +0.015 C 
ATOM      8  C   LIG A   1      -8.337   0.193 124.297  0.00  0.00    +0.005 C 
ATOM      9  C   LIG A   1      -7.093   0.400 123.371  0.00  0.00    +0.170 C 
ATOM     10  O   LIG A   1      -7.122   1.666 122.677  0.00  0.00    -0.347 OA
ATOM     11  C   LIG A   1      -8.142  -1.136 125.077  0.00  0.00    +0.005 C 
ATOM     12  C   LIG A   1      -8.922  -2.327 124.508  0.00  0.00    +0.005 C 
ATOM     13  C   LIG A   1      -8.500  -3.628 125.191  0.00  0.00    +0.004 C 
ATOM     14  C   LIG A   1      -8.607  -3.549 126.709  0.00  0.00    +0.045 C 
ATOM     15  C   LIG A   1      -7.862  -2.342 127.302  0.00  0.00    +0.180 C 
ATOM     16  C   LIG A   1      -8.347  -1.044 126.622  0.00  0.00    +0.037 C 
ATOM     17  C   LIG A   1      -7.709   0.246 127.223  0.00  0.00    +0.052 C 
ATOM     18  C   LIG A   1      -8.565   1.385 126.714  0.00  0.00    +0.182 C 
ATOM     19  O   LIG A   1      -8.322   2.759 127.030  0.00  0.00    -0.461 OA
ATOM     20  C   LIG A   1      -8.577   1.387 125.228  0.00  0.00    +0.060 C 
ENDROOT
BRANCH   5  21
ATOM     21  O   LIG A   1      -7.936   3.825 122.644  0.00  0.00    -0.364 OA
ATOM     22  H   LIG A   1      -7.049   4.123 122.901  0.00  0.00    +0.213 HD
ENDBRANCH   5  21
BRANCH  15  23
ATOM     23  O   LIG A   1      -8.169  -2.256 128.707  0.00  0.00    -0.461 OA
BRANCH  23  24
ATOM     24  C   LIG A   1      -7.250  -2.801 129.554  0.00  0.00    +0.304 C 
ATOM     25  C   LIG A   1      -5.876  -2.686 128.967  0.00  0.00    +0.136 C 
ATOM     26  O   LIG A   1      -7.492  -3.274 130.654  0.00  0.00    -0.251 OA
ENDBRANCH  23  24
ENDBRANCH  15  23
TORSDOF 3
ENDMDL
MODEL 2
REMARK VINA RESULT:      -7.6      2.020      6.721
REMARK  Name = NuBBE_2074
REMARK  5 active torsions:
REMARK  status: ('A' for Active; 'I' for Inactive)
REMARK    1  A    between atoms: C_3  and  C_4
REMARK    2  A    between atoms: C_5  and  O_6
REMARK    3  A    between atoms: C_16  and  O_18
REMARK    4  A    between atoms: O_18  and  C_19
REMARK    5  A    between atoms: C_19  and  C_20
REMARK                            x       y       z     vdW  Elec       q    Type
REMARK                         _______ _______ _______ _____ _____    ______ ____
ROOT
ATOM      1  O   LIG A   1     -10.055  -2.811 125.827  0.00  0.00    -0.250 OA
ATOM      2  C   LIG A   1      -9.235  -1.996 125.454  0.00  0.00    +0.319 C 
ATOM      3  C   LIG A   1      -7.825  -1.773 125.935  0.00  0.00    +0.125 C 
ATOM      4  C   LIG A   1      -7.043  -2.631 124.894  0.00  0.00    +0.029 C 
ATOM      5  C   LIG A   1      -7.217  -1.909 127.354  0.00  0.00    +0.183 C 
ATOM      6  C   LIG A   1      -7.530  -0.758 128.373  0.00  0.00    +0.066 C 
ATOM      7  C   LIG A   1      -6.994   0.625 127.827  0.00  0.00    +0.015 C 
ATOM      8  C   LIG A   1      -6.636   0.413 126.321  0.00  0.00    +0.005 C 
ATOM      9  C   LIG A   1      -5.437  -0.586 126.447  0.00  0.00    +0.170 C 
ATOM     10  O   LIG A   1      -5.782  -1.776 127.187  0.00  0.00    -0.347 OA
ATOM     11  C   LIG A   1      -6.189   1.591 125.413  0.00  0.00    +0.005 C 
ATOM     12  C   LIG A   1      -5.787   2.861 126.172  0.00  0.00    +0.005 C 
ATOM     13  C   LIG A   1      -5.153   3.881 125.225  0.00  0.00    +0.004 C 
ATOM     14  C   LIG A   1      -6.040   4.190 124.025  0.00  0.00    +0.045 C 
ATOM     15  C   LIG A   1      -6.487   2.930 123.267  0.00  0.00    +0.180 C 
ATOM     16  C   LIG A   1      -7.164   1.945 124.245  0.00  0.00    +0.037 C 
ATOM     17  C   LIG A   1      -7.731   0.671 123.547  0.00  0.00    +0.052 C 
ATOM     18  C   LIG A   1      -8.659   0.043 124.565  0.00  0.00    +0.182 C 
ATOM     19  O   LIG A   1      -9.392  -1.163 124.327  0.00  0.00    -0.461 OA
ATOM     20  C   LIG A   1      -7.912  -0.268 125.811  0.00  0.00    +0.060 C 
ENDROOT
BRANCH   5  21
ATOM     21  O   LIG A   1      -7.471  -3.178 127.901  0.00  0.00    -0.364 OA
ATOM     22  H   LIG A   1      -6.970  -3.809 127.360  0.00  0.00    +0.213 HD
ENDBRANCH   5  21
BRANCH  15  23
ATOM     23  O   LIG A   1      -7.455   3.310 122.270  0.00  0.00    -0.461 OA
BRANCH  23  24
ATOM     24  C   LIG A   1      -6.958   3.595 121.034  0.00  0.00    +0.304 C 
ATOM     25  C   LIG A   1      -5.567   3.057 120.900  0.00  0.00    +0.136 C 
ATOM     26  O   LIG A   1      -7.565   4.165 120.139  0.00  0.00    -0.251 OA
ENDBRANCH  23  24
ENDBRANCH  15  23
TORSDOF 3
ENDMDL
MODEL 3
REMARK VINA RESULT:      -7.6      2.972      5.752
REMARK  Name = NuBBE_2074
REMARK  5 active torsions:
REMARK  status: ('A' for Active; 'I' for Inactive)
REMARK    1  A    between atoms: C_3  and  C_4
REMARK    2  A    between atoms: C_5  and  O_6
REMARK    3  A    between atoms: C_16  and  O_18
REMARK    4  A    between atoms: O_18  and  C_19
REMARK    5  A    between atoms: C_19  and  C_20
REMARK                            x       y       z     vdW  Elec       q    Type
REMARK                         _______ _______ _______ _____ _____    ______ ____
ROOT
ATOM      1  O   LIG A   1      -6.573  -4.046 124.347  0.00  0.00    -0.250 OA
ATOM      2  C   LIG A   1      -6.551  -2.919 124.799  0.00  0.00    +0.319 C 
ATOM      3  C   LIG A   1      -7.701  -2.015 125.162  0.00  0.00    +0.125 C 
ATOM      4  C   LIG A   1      -7.826  -2.331 126.684  0.00  0.00    +0.029 C 
ATOM      5  C   LIG A   1      -9.092  -1.848 124.500  0.00  0.00    +0.183 C 
ATOM      6  C   LIG A   1      -9.145  -1.041 123.156  0.00  0.00    +0.066 C 
ATOM      7  C   LIG A   1      -8.615   0.432 123.374  0.00  0.00    +0.015 C 
ATOM      8  C   LIG A   1      -7.918   0.463 124.772  0.00  0.00    +0.005 C 
ATOM      9  C   LIG A   1      -9.145   0.218 125.712  0.00  0.00    +0.170 C 
ATOM     10  O   LIG A   1      -9.857  -0.996 125.390  0.00  0.00    -0.347 OA
ATOM     11  C   LIG A   1      -7.163   1.722 125.282  0.00  0.00    +0.005 C 
ATOM     12  C   LIG A   1      -7.462   3.003 124.495  0.00  0.00    +0.005 C 
ATOM     13  C   LIG A   1      -6.861   4.222 125.195  0.00  0.00    +0.004 C 
ATOM     14  C   LIG A   1      -5.371   4.057 125.475  0.00  0.00    +0.045 C 
ATOM     15  C   LIG A   1      -5.042   2.761 126.233  0.00  0.00    +0.180 C 
ATOM     16  C   LIG A   1      -5.623   1.550 125.473  0.00  0.00    +0.037 C 
ATOM     17  C   LIG A   1      -5.262   0.179 126.122  0.00  0.00    +0.052 C 
ATOM     18  C   LIG A   1      -5.575  -0.856 125.063  0.00  0.00    +0.182 C 
ATOM     19  O   LIG A   1      -5.388  -2.262 125.253  0.00  0.00    -0.461 OA
ATOM     20  C   LIG A   1      -7.005  -0.764 124.670  0.00  0.00    +0.060 C 
ENDROOT
BRANCH   5  21
ATOM     21  O   LIG A   1      -9.762  -3.079 124.400  0.00  0.00    -0.364 OA
ATOM     22  H   LIG A   1     -10.709  -2.875 124.457  0.00  0.00    +0.213 HD
ENDBRANCH   5  21
BRANCH  15  23
ATOM     23  O   LIG A   1      -3.610   2.611 126.291  0.00  0.00    -0.461 OA
BRANCH  23  24
ATOM     24  C   LIG A   1      -2.996   3.164 127.374  0.00  0.00    +0.304 C 
ATOM     25  C   LIG A   1      -3.757   2.838 128.622  0.00  0.00    +0.136 C 
ATOM     26  O   LIG A   1      -1.949   3.796 127.350  0.00  0.00    -0.251 OA
ENDBRANCH  23  24
ENDBRANCH  15  23
TORSDOF 3
ENDMDL
MODEL 4
REMARK VINA RESULT:      -7.4      2.403      3.890
REMARK  Name = NuBBE_2074
REMARK  5 active torsions:
REMARK  status: ('A' for Active; 'I' for Inactive)
REMARK    1  A    between atoms: C_3  and  C_4
REMARK    2  A    between atoms: C_5  and  O_6
REMARK    3  A    between atoms: C_16  and  O_18
REMARK    4  A    between atoms: O_18  and  C_19
REMARK    5  A    between atoms: C_19  and  C_20
REMARK                            x       y       z     vdW  Elec       q    Type
REMARK                         _______ _______ _______ _____ _____    ______ ____
ROOT
ATOM      1  O   LIG A   1      -9.637   0.777 122.866  0.00  0.00    -0.250 OA
ATOM      2  C   LIG A   1      -9.058   0.421 123.871  0.00  0.00    +0.319 C 
ATOM      3  C   LIG A   1      -8.165  -0.775 124.085  0.00  0.00    +0.125 C 
ATOM      4  C   LIG A   1      -6.771  -0.119 123.842  0.00  0.00    +0.029 C 
ATOM      5  C   LIG A   1      -8.236  -2.199 123.480  0.00  0.00    +0.183 C 
ATOM      6  C   LIG A   1      -9.326  -3.164 124.065  0.00  0.00    +0.066 C 
ATOM      7  C   LIG A   1      -9.096  -3.386 125.612  0.00  0.00    +0.015 C 
ATOM      8  C   LIG A   1      -8.065  -2.309 126.079  0.00  0.00    +0.005 C 
ATOM      9  C   LIG A   1      -6.789  -2.775 125.300  0.00  0.00    +0.170 C 
ATOM     10  O   LIG A   1      -7.009  -2.861 123.876  0.00  0.00    -0.347 OA
ATOM     11  C   LIG A   1      -7.681  -2.137 127.574  0.00  0.00    +0.005 C 
ATOM     12  C   LIG A   1      -8.098  -3.306 128.475  0.00  0.00    +0.005 C 
ATOM     13  C   LIG A   1      -7.490  -3.159 129.870  0.00  0.00    +0.004 C 
ATOM     14  C   LIG A   1      -7.806  -1.809 130.503  0.00  0.00    +0.045 C 
ATOM     15  C   LIG A   1      -7.429  -0.621 129.604  0.00  0.00    +0.180 C 
ATOM     16  C   LIG A   1      -8.098  -0.779 128.222  0.00  0.00    +0.037 C 
ATOM     17  C   LIG A   1      -7.845   0.428 127.269  0.00  0.00    +0.052 C 
ATOM     18  C   LIG A   1      -8.859   0.274 126.156  0.00  0.00    +0.182 C 
ATOM     19  O   LIG A   1      -8.969   1.182 125.056  0.00  0.00    -0.461 OA
ATOM     20  C   LIG A   1      -8.681  -1.038 125.483  0.00  0.00    +0.060 C 
ENDROOT
BRANCH   5  21
ATOM     21  O   LIG A   1      -8.270  -2.158 122.076  0.00  0.00    -0.364 OA
ATOM     22  H   LIG A   1      -7.345  -2.196 121.784  0.00  0.00    +0.213 HD
ENDBRANCH   5  21
BRANCH  15  23
ATOM     23  O   LIG A   1      -7.925   0.590 130.208  0.00  0.00    -0.461 OA
BRANCH  23  24
ATOM     24  C   LIG A   1      -7.037   1.280 130.978  0.00  0.00    +0.304 C 
ATOM     25  C   LIG A   1      -5.689   1.294 130.324  0.00  0.00    +0.136 C 
ATOM     26  O   LIG A   1      -7.300   1.849 132.027  0.00  0.00    -0.251 OA
ENDBRANCH  23  24
ENDBRANCH  15  23
TORSDOF 3
ENDMDL
MODEL 5
REMARK VINA RESULT:      -7.4      2.613      5.273
REMARK  Name = NuBBE_2074
REMARK  5 active torsions:
REMARK  status: ('A' for Active; 'I' for Inactive)
REMARK    1  A    between atoms: C_3  and  C_4
REMARK    2  A    between atoms: C_5  and  O_6
REMARK    3  A    between atoms: C_16  and  O_18
REMARK    4  A    between atoms: O_18  and  C_19
REMARK    5  A    between atoms: C_19  and  C_20
REMARK                            x       y       z     vdW  Elec       q    Type
REMARK                         _______ _______ _______ _____ _____    ______ ____
ROOT
ATOM      1  O   LIG A   1     -10.248  -0.404 122.481  0.00  0.00    -0.250 OA
ATOM      2  C   LIG A   1      -9.265  -0.343 123.192  0.00  0.00    +0.319 C 
ATOM      3  C   LIG A   1      -8.433  -1.460 123.767  0.00  0.00    +0.125 C 
ATOM      4  C   LIG A   1      -7.312  -1.548 122.687  0.00  0.00    +0.029 C 
ATOM      5  C   LIG A   1      -8.851  -2.865 124.269  0.00  0.00    +0.183 C 
ATOM      6  C   LIG A   1      -9.553  -2.938 125.669  0.00  0.00    +0.066 C 
ATOM      7  C   LIG A   1      -8.602  -2.368 126.795  0.00  0.00    +0.015 C 
ATOM      8  C   LIG A   1      -7.431  -1.629 126.071  0.00  0.00    +0.005 C 
ATOM      9  C   LIG A   1      -6.722  -2.834 125.366  0.00  0.00    +0.170 C 
ATOM     10  O   LIG A   1      -7.616  -3.583 124.516  0.00  0.00    -0.347 OA
ATOM     11  C   LIG A   1      -6.356  -0.831 126.859  0.00  0.00    +0.005 C 
ATOM     12  C   LIG A   1      -6.325  -1.121 128.363  0.00  0.00    +0.005 C 
ATOM     13  C   LIG A   1      -5.105  -0.472 129.017  0.00  0.00    +0.004 C 
ATOM     14  C   LIG A   1      -5.012   1.021 128.721  0.00  0.00    +0.045 C 
ATOM     15  C   LIG A   1      -5.077   1.341 127.219  0.00  0.00    +0.180 C 
ATOM     16  C   LIG A   1      -6.344   0.710 126.605  0.00  0.00    +0.037 C 
ATOM     17  C   LIG A   1      -6.541   1.058 125.098  0.00  0.00    +0.052 C 
ATOM     18  C   LIG A   1      -7.976   0.689 124.790  0.00  0.00    +0.182 C 
ATOM     19  O   LIG A   1      -8.574   0.848 123.500  0.00  0.00    -0.461 OA
ATOM     20  C   LIG A   1      -8.206  -0.749 125.084  0.00  0.00    +0.060 C 
ENDROOT
BRANCH   5  21
ATOM     21  O   LIG A   1      -9.568  -3.567 123.285  0.00  0.00    -0.364 OA
ATOM     22  H   LIG A   1     -10.165  -2.921 122.875  0.00  0.00    +0.213 HD
ENDBRANCH   5  21
BRANCH  15  23
ATOM     23  O   LIG A   1      -5.161   2.770 127.055  0.00  0.00    -0.461 OA
BRANCH  23  24
ATOM     24  C   LIG A   1      -4.227   3.334 126.238  0.00  0.00    +0.304 C 
ATOM     25  C   LIG A   1      -2.849   2.978 126.706  0.00  0.00    +0.136 C 
ATOM     26  O   LIG A   1      -4.466   3.995 125.238  0.00  0.00    -0.251 OA
ENDBRANCH  23  24
ENDBRANCH  15  23
TORSDOF 3
ENDMDL
MODEL 6
REMARK VINA RESULT:      -7.3      8.557     10.346
REMARK  Name = NuBBE_2074
REMARK  5 active torsions:
REMARK  status: ('A' for Active; 'I' for Inactive)
REMARK    1  A    between atoms: C_3  and  C_4
REMARK    2  A    between atoms: C_5  and  O_6
REMARK    3  A    between atoms: C_16  and  O_18
REMARK    4  A    between atoms: O_18  and  C_19
REMARK    5  A    between atoms: C_19  and  C_20
REMARK                            x       y       z     vdW  Elec       q    Type
REMARK                         _______ _______ _______ _____ _____    ______ ____
ROOT
ATOM      1  O   LIG A   1      -1.939   6.463 128.903  0.00  0.00    -0.250 OA
ATOM      2  C   LIG A   1      -2.816   6.473 129.742  0.00  0.00    +0.319 C 
ATOM      3  C   LIG A   1      -2.709   6.672 131.232  0.00  0.00    +0.125 C 
ATOM      4  C   LIG A   1      -2.979   8.205 131.323  0.00  0.00    +0.029 C 
ATOM      5  C   LIG A   1      -1.604   6.230 132.225  0.00  0.00    +0.183 C 
ATOM      6  C   LIG A   1      -1.579   4.714 132.629  0.00  0.00    +0.066 C 
ATOM      7  C   LIG A   1      -2.940   4.303 133.320  0.00  0.00    +0.015 C 
ATOM      8  C   LIG A   1      -3.952   5.464 133.059  0.00  0.00    +0.005 C 
ATOM      9  C   LIG A   1      -3.288   6.617 133.884  0.00  0.00    +0.170 C 
ATOM     10  O   LIG A   1      -1.924   6.870 133.486  0.00  0.00    -0.347 OA
ATOM     11  C   LIG A   1      -5.443   5.361 133.486  0.00  0.00    +0.005 C 
ATOM     12  C   LIG A   1      -5.743   4.229 134.475  0.00  0.00    +0.005 C 
ATOM     13  C   LIG A   1      -7.171   4.341 135.009  0.00  0.00    +0.004 C 
ATOM     14  C   LIG A   1      -8.206   4.414 133.893  0.00  0.00    +0.045 C 
ATOM     15  C   LIG A   1      -7.907   5.520 132.868  0.00  0.00    +0.180 C 
ATOM     16  C   LIG A   1      -6.476   5.347 132.316  0.00  0.00    +0.037 C 
ATOM     17  C   LIG A   1      -6.115   6.375 131.201  0.00  0.00    +0.052 C 
ATOM     18  C   LIG A   1      -4.870   5.821 130.541  0.00  0.00    +0.182 C 
ATOM     19  O   LIG A   1      -4.198   6.466 129.455  0.00  0.00    -0.461 OA
ATOM     20  C   LIG A   1      -3.789   5.660 131.548  0.00  0.00    +0.060 C 
ENDROOT
BRANCH   5  21
ATOM     21  O   LIG A   1      -0.339   6.686 131.819  0.00  0.00    -0.364 OA
ATOM     22  H   LIG A   1       0.128   6.941 132.630  0.00  0.00    +0.213 HD
ENDBRANCH   5  21
BRANCH  15  23
ATOM     23  O   LIG A   1      -8.832   5.393 131.770  0.00  0.00    -0.461 OA
BRANCH  23  24
ATOM     24  C   LIG A   1      -9.812   6.338 131.703  0.00  0.00    +0.304 C 
ATOM     25  C   LIG A   1      -9.732   7.072 130.400  0.00  0.00    +0.136 C 
ATOM     26  O   LIG A   1     -10.667   6.534 132.553  0.00  0.00    -0.251 OA
ENDBRANCH  23  24
ENDBRANCH  15  23
TORSDOF 3
ENDMDL
MODEL 7
REMARK VINA RESULT:      -7.2      2.958      4.677
REMARK  Name = NuBBE_2074
REMARK  5 active torsions:
REMARK  status: ('A' for Active; 'I' for Inactive)
REMARK    1  A    between atoms: C_3  and  C_4
REMARK    2  A    between atoms: C_5  and  O_6
REMARK    3  A    between atoms: C_16  and  O_18
REMARK    4  A    between atoms: O_18  and  C_19
REMARK    5  A    between atoms: C_19  and  C_20
REMARK                            x       y       z     vdW  Elec       q    Type
REMARK                         _______ _______ _______ _____ _____    ______ ____
ROOT
ATOM      1  O   LIG A   1      -5.979  -2.010 122.139  0.00  0.00    -0.250 OA
ATOM      2  C   LIG A   1      -6.143  -2.082 123.340  0.00  0.00    +0.319 C 
ATOM      3  C   LIG A   1      -7.427  -2.097 124.129  0.00  0.00    +0.125 C 
ATOM      4  C   LIG A   1      -7.634  -3.635 124.282  0.00  0.00    +0.029 C 
ATOM      5  C   LIG A   1      -8.769  -1.366 123.872  0.00  0.00    +0.183 C 
ATOM      6  C   LIG A   1      -8.817   0.165 124.208  0.00  0.00    +0.066 C 
ATOM      7  C   LIG A   1      -8.506   0.406 125.738  0.00  0.00    +0.015 C 
ATOM      8  C   LIG A   1      -7.935  -0.934 126.303  0.00  0.00    +0.005 C 
ATOM      9  C   LIG A   1      -9.192  -1.858 126.178  0.00  0.00    +0.170 C 
ATOM     10  O   LIG A   1      -9.709  -1.912 124.831  0.00  0.00    -0.347 OA
ATOM     11  C   LIG A   1      -7.397  -1.046 127.757  0.00  0.00    +0.005 C 
ATOM     12  C   LIG A   1      -7.796   0.117 128.672  0.00  0.00    +0.005 C 
ATOM     13  C   LIG A   1      -7.420  -0.182 130.123  0.00  0.00    +0.004 C 
ATOM     14  C   LIG A   1      -5.950  -0.553 130.279  0.00  0.00    +0.045 C 
ATOM     15  C   LIG A   1      -5.516  -1.694 129.345  0.00  0.00    +0.180 C 
ATOM     16  C   LIG A   1      -5.869  -1.337 127.886  0.00  0.00    +0.037 C 
ATOM     17  C   LIG A   1      -5.384  -2.400 126.853  0.00  0.00    +0.052 C 
ATOM     18  C   LIG A   1      -5.472  -1.713 125.507  0.00  0.00    +0.182 C 
ATOM     19  O   LIG A   1      -5.117  -2.345 124.273  0.00  0.00    -0.461 OA
ATOM     20  C   LIG A   1      -6.864  -1.260 125.256  0.00  0.00    +0.060 C 
ENDROOT
BRANCH   5  21
ATOM     21  O   LIG A   1      -9.261  -1.637 122.584  0.00  0.00    -0.364 OA
ATOM     22  H   LIG A   1      -9.281  -0.786 122.119  0.00  0.00    +0.213 HD
ENDBRANCH   5  21
BRANCH  15  23
ATOM     23  O   LIG A   1      -4.087  -1.849 129.438  0.00  0.00    -0.461 OA
BRANCH  23  24
ATOM     24  C   LIG A   1      -3.634  -3.122 129.619  0.00  0.00    +0.304 C 
ATOM     25  C   LIG A   1      -4.695  -3.960 130.262  0.00  0.00    +0.136 C 
ATOM     26  O   LIG A   1      -2.541  -3.543 129.267  0.00  0.00    -0.251 OA
ENDBRANCH  23  24
ENDBRANCH  15  23
TORSDOF 3
ENDMDL
MODEL 8
REMARK VINA RESULT:      -7.1      6.354      8.744
REMARK  Name = NuBBE_2074
REMARK  5 active torsions:
REMARK  status: ('A' for Active; 'I' for Inactive)
REMARK    1  A    between atoms: C_3  and  C_4
REMARK    2  A    between atoms: C_5  and  O_6
REMARK    3  A    between atoms: C_16  and  O_18
REMARK    4  A    between atoms: O_18  and  C_19
REMARK    5  A    between atoms: C_19  and  C_20
REMARK                            x       y       z     vdW  Elec       q    Type
REMARK                         _______ _______ _______ _____ _____    ______ ____
ROOT
ATOM      1  O   LIG A   1     -11.567   6.176 132.154  0.00  0.00    -0.250 OA
ATOM      2  C   LIG A   1     -10.419   6.001 131.799  0.00  0.00    +0.319 C 
ATOM      3  C   LIG A   1      -9.865   4.994 130.824  0.00  0.00    +0.125 C 
ATOM      4  C   LIG A   1      -9.847   5.857 129.525  0.00  0.00    +0.029 C 
ATOM      5  C   LIG A   1     -10.300   3.536 130.532  0.00  0.00    +0.183 C 
ATOM      6  C   LIG A   1      -9.881   2.448 131.581  0.00  0.00    +0.066 C 
ATOM      7  C   LIG A   1      -8.308   2.387 131.716  0.00  0.00    +0.015 C 
ATOM      8  C   LIG A   1      -7.740   3.656 131.004  0.00  0.00    +0.005 C 
ATOM      9  C   LIG A   1      -8.137   3.356 129.519  0.00  0.00    +0.170 C 
ATOM     10  O   LIG A   1      -9.553   3.125 129.360  0.00  0.00    -0.347 OA
ATOM     11  C   LIG A   1      -6.226   4.004 131.037  0.00  0.00    +0.005 C 
ATOM     12  C   LIG A   1      -5.320   2.854 131.491  0.00  0.00    +0.005 C 
ATOM     13  C   LIG A   1      -3.848   3.208 131.280  0.00  0.00    +0.004 C 
ATOM     14  C   LIG A   1      -3.466   4.529 131.938  0.00  0.00    +0.045 C 
ATOM     15  C   LIG A   1      -4.384   5.692 131.525  0.00  0.00    +0.180 C 
ATOM     16  C   LIG A   1      -5.856   5.317 131.796  0.00  0.00    +0.037 C 
ATOM     17  C   LIG A   1      -6.856   6.474 131.491  0.00  0.00    +0.052 C 
ATOM     18  C   LIG A   1      -8.151   6.065 132.160  0.00  0.00    +0.182 C 
ATOM     19  O   LIG A   1      -9.343   6.855 132.122  0.00  0.00    -0.461 OA
ATOM     20  C   LIG A   1      -8.606   4.755 131.629  0.00  0.00    +0.060 C 
ENDROOT
BRANCH   5  21
ATOM     21  O   LIG A   1     -11.668   3.464 130.219  0.00  0.00    -0.364 OA
ATOM     22  H   LIG A   1     -12.129   3.970 130.907  0.00  0.00    +0.213 HD
ENDBRANCH   5  21
BRANCH  15  23
ATOM     23  O   LIG A   1      -4.057   6.844 132.328  0.00  0.00    -0.461 OA
BRANCH  23  24
ATOM     24  C   LIG A   1      -3.275   7.786 131.730  0.00  0.00    +0.304 C 
ATOM     25  C   LIG A   1      -3.693   7.975 130.304  0.00  0.00    +0.136 C 
ATOM     26  O   LIG A   1      -2.389   8.425 132.278  0.00  0.00    -0.251 OA
ENDBRANCH  23  24
ENDBRANCH  15  23
TORSDOF 3
ENDMDL
MODEL 9
REMARK VINA RESULT:      -7.0      1.807      3.905
REMARK  Name = NuBBE_2074
REMARK  5 active torsions:
REMARK  status: ('A' for Active; 'I' for Inactive)
REMARK    1  A    between atoms: C_3  and  C_4
REMARK    2  A    between atoms: C_5  and  O_6
REMARK    3  A    between atoms: C_16  and  O_18
REMARK    4  A    between atoms: O_18  and  C_19
REMARK    5  A    between atoms: C_19  and  C_20
REMARK                            x       y       z     vdW  Elec       q    Type
REMARK                         _______ _______ _______ _____ _____    ______ ____
ROOT
ATOM      1  O   LIG A   1      -6.589   3.146 121.986  0.00  0.00    -0.250 OA
ATOM      2  C   LIG A   1      -6.839   2.573 123.027  0.00  0.00    +0.319 C 
ATOM      3  C   LIG A   1      -6.907   3.126 124.427  0.00  0.00    +0.125 C 
ATOM      4  C   LIG A   1      -8.436   3.411 124.533  0.00  0.00    +0.029 C 
ATOM      5  C   LIG A   1      -6.073   4.241 125.106  0.00  0.00    +0.183 C 
ATOM      6  C   LIG A   1      -4.612   3.869 125.541  0.00  0.00    +0.066 C 
ATOM      7  C   LIG A   1      -4.632   2.680 126.582  0.00  0.00    +0.015 C 
ATOM      8  C   LIG A   1      -6.072   2.077 126.559  0.00  0.00    +0.005 C 
ATOM      9  C   LIG A   1      -6.896   3.276 127.138  0.00  0.00    +0.170 C 
ATOM     10  O   LIG A   1      -6.710   4.493 126.384  0.00  0.00    -0.347 OA
ATOM     11  C   LIG A   1      -6.440   0.804 127.370  0.00  0.00    +0.005 C 
ATOM     12  C   LIG A   1      -5.415   0.416 128.441  0.00  0.00    +0.005 C 
ATOM     13  C   LIG A   1      -5.957  -0.702 129.332  0.00  0.00    +0.004 C 
ATOM     14  C   LIG A   1      -6.428  -1.909 128.529  0.00  0.00    +0.045 C 
ATOM     15  C   LIG A   1      -7.431  -1.541 127.423  0.00  0.00    +0.180 C 
ATOM     16  C   LIG A   1      -6.831  -0.445 126.518  0.00  0.00    +0.037 C 
ATOM     17  C   LIG A   1      -7.744  -0.069 125.311  0.00  0.00    +0.052 C 
ATOM     18  C   LIG A   1      -6.851   0.704 124.364  0.00  0.00    +0.182 C 
ATOM     19  O   LIG A   1      -7.300   1.243 123.117  0.00  0.00    -0.461 OA
ATOM     20  C   LIG A   1      -6.289   1.894 125.053  0.00  0.00    +0.060 C 
ENDROOT
BRANCH   5  21
ATOM     21  O   LIG A   1      -6.112   5.433 124.363  0.00  0.00    -0.364 OA
ATOM     22  H   LIG A   1      -6.030   5.172 123.432  0.00  0.00    +0.213 HD
ENDBRANCH   5  21
BRANCH  15  23
ATOM     23  O   LIG A   1      -7.676  -2.708 126.615  0.00  0.00    -0.461 OA
BRANCH  23  24
ATOM     24  C   LIG A   1      -8.951  -3.187 126.629  0.00  0.00    +0.304 C 
ATOM     25  C   LIG A   1      -9.167  -4.046 127.837  0.00  0.00    +0.136 C 
ATOM     26  O   LIG A   1      -9.817  -2.924 125.807  0.00  0.00    -0.251 OA
ENDBRANCH  23  24
ENDBRANCH  15  23
TORSDOF 3
ENDMDL
