MODEL 1
REMARK VINA RESULT:      -7.6      0.000      0.000
REMARK  Name = NuBBE_1128
REMARK  6 active torsions:
REMARK  status: ('A' for Active; 'I' for Inactive)
REMARK    1  A    between atoms: C_1  and  S_2
REMARK    2  A    between atoms: S_2  and  C_3
REMARK    3  A    between atoms: N_16  and  C_17
REMARK    4  A    between atoms: C_17  and  C_18
REMARK    5  A    between atoms: C_18  and  C_19
REMARK    6  A    between atoms: N_25  and  C_26
REMARK                            x       y       z     vdW  Elec       q    Type
REMARK                         _______ _______ _______ _____ _____    ______ ____
ROOT
ATOM      1  C   LIG A   1      -4.763   2.360 126.357  0.00  0.00    +0.040 A 
ATOM      2  C   LIG A   1      -5.454   3.167 125.468  0.00  0.00    +0.018 A 
ATOM      3  C   LIG A   1      -6.395   2.592 124.625  0.00  0.00    +0.018 A 
ATOM      4  C   LIG A   1      -5.015   0.976 126.386  0.00  0.00    +0.041 A 
ATOM      5  C   LIG A   1      -5.996   0.358 125.571  0.00  0.00    +0.049 A 
ATOM      6  C   LIG A   1      -6.671   1.209 124.673  0.00  0.00    +0.034 A 
ATOM      7  S   LIG A   1      -7.909   0.667 123.526  0.00  0.00    -0.086 S 
ATOM      8  C   LIG A   1      -8.077  -1.053 123.924  0.00  0.00    +0.034 A 
ATOM      9  C   LIG A   1      -9.081  -1.727 123.196  0.00  0.00    +0.017 A 
ATOM     10  C   LIG A   1      -9.326  -3.079 123.395  0.00  0.00    +0.001 A 
ATOM     11  C   LIG A   1      -8.553  -3.771 124.307  0.00  0.00    +0.002 A 
ATOM     12  C   LIG A   1      -7.547  -3.107 125.024  0.00  0.00    +0.024 A 
ATOM     13  C   LIG A   1      -7.289  -1.722 124.881  0.00  0.00    +0.048 A 
ATOM     14  N   LIG A   1      -6.300  -1.038 125.657  0.00  0.00    -0.298 N 
ENDROOT
BRANCH   1  16
ATOM     15  C   LIG A   1      -4.027   4.802 127.265  0.00  0.00    +0.127 C 
ATOM     16  S   LIG A   1      -3.546   3.067 127.493  0.00  0.00    +0.051 S 
ATOM     17  O   LIG A   1      -2.213   2.894 126.823  0.00  0.00    -0.252 OA
ENDBRANCH   1  16
BRANCH  14  18
ATOM     18  C   LIG A   1      -5.595  -1.825 126.703  0.00  0.00    +0.112 C 
BRANCH  18  19
ATOM     19  C   LIG A   1      -6.511  -2.089 127.911  0.00  0.00    +0.038 C 
BRANCH  19  20
ATOM     20  C   LIG A   1      -5.830  -1.723 129.251  0.00  0.00    +0.058 C 
ATOM     21  C   LIG A   1      -6.709  -2.106 130.462  0.00  0.00    +0.019 C 
ATOM     22  C   LIG A   1      -6.696  -3.600 130.770  0.00  0.00    +0.003 C 
ATOM     23  C   LIG A   1      -5.270  -4.126 130.855  0.00  0.00    +0.015 C 
ATOM     24  C   LIG A   1      -4.465  -3.734 129.616  0.00  0.00    +0.084 C 
ATOM     25  N   LIG A   1      -4.466  -2.290 129.327  0.00  0.00    -0.302 NA
ATOM     26  C   LIG A   1      -3.626  -1.555 130.277  0.00  0.00    +0.105 C 
ENDBRANCH  19  20
ENDBRANCH  18  19
ENDBRANCH  14  18
TORSDOF 4
ENDMDL
MODEL 2
REMARK VINA RESULT:      -7.4      3.265      4.155
REMARK  Name = NuBBE_1128
REMARK  6 active torsions:
REMARK  status: ('A' for Active; 'I' for Inactive)
REMARK    1  A    between atoms: C_1  and  S_2
REMARK    2  A    between atoms: S_2  and  C_3
REMARK    3  A    between atoms: N_16  and  C_17
REMARK    4  A    between atoms: C_17  and  C_18
REMARK    5  A    between atoms: C_18  and  C_19
REMARK    6  A    between atoms: N_25  and  C_26
REMARK                            x       y       z     vdW  Elec       q    Type
REMARK                         _______ _______ _______ _____ _____    ______ ____
ROOT
ATOM      1  C   LIG A   1      -6.353   2.462 124.601  0.00  0.00    +0.040 A 
ATOM      2  C   LIG A   1      -6.852   1.856 123.460  0.00  0.00    +0.018 A 
ATOM      3  C   LIG A   1      -7.400   0.584 123.554  0.00  0.00    +0.018 A 
ATOM      4  C   LIG A   1      -6.398   1.779 125.831  0.00  0.00    +0.041 A 
ATOM      5  C   LIG A   1      -6.985   0.498 125.976  0.00  0.00    +0.049 A 
ATOM      6  C   LIG A   1      -7.472  -0.091 124.791  0.00  0.00    +0.034 A 
ATOM      7  S   LIG A   1      -8.213  -1.699 124.709  0.00  0.00    -0.086 S 
ATOM      8  C   LIG A   1      -8.240  -2.198 126.410  0.00  0.00    +0.034 A 
ATOM      9  C   LIG A   1      -8.867  -3.442 126.645  0.00  0.00    +0.017 A 
ATOM     10  C   LIG A   1      -8.962  -3.966 127.927  0.00  0.00    +0.001 A 
ATOM     11  C   LIG A   1      -8.409  -3.262 128.980  0.00  0.00    +0.002 A 
ATOM     12  C   LIG A   1      -7.775  -2.032 128.748  0.00  0.00    +0.024 A 
ATOM     13  C   LIG A   1      -7.690  -1.442 127.464  0.00  0.00    +0.048 A 
ATOM     14  N   LIG A   1      -7.094  -0.160 127.243  0.00  0.00    -0.298 N 
ENDROOT
BRANCH   1  16
ATOM     15  C   LIG A   1      -7.020   4.966 125.385  0.00  0.00    +0.127 C 
ATOM     16  S   LIG A   1      -5.654   4.129 124.532  0.00  0.00    +0.051 S 
ATOM     17  O   LIG A   1      -5.724   4.541 123.090  0.00  0.00    -0.252 OA
ENDBRANCH   1  16
BRANCH  14  18
ATOM     18  C   LIG A   1      -6.632   0.589 128.440  0.00  0.00    +0.112 C 
BRANCH  18  19
ATOM     19  C   LIG A   1      -7.705   1.581 128.923  0.00  0.00    +0.038 C 
BRANCH  19  20
ATOM     20  C   LIG A   1      -7.474   2.025 130.387  0.00  0.00    +0.058 C 
ATOM     21  C   LIG A   1      -8.405   3.191 130.784  0.00  0.00    +0.019 C 
ATOM     22  C   LIG A   1      -9.840   2.751 131.059  0.00  0.00    +0.003 C 
ATOM     23  C   LIG A   1      -9.874   1.578 132.029  0.00  0.00    +0.015 C 
ATOM     24  C   LIG A   1      -8.950   0.453 131.563  0.00  0.00    +0.084 C 
ATOM     25  N   LIG A   1      -7.562   0.875 131.312  0.00  0.00    -0.302 NA
ATOM     26  C   LIG A   1      -6.847   1.131 132.565  0.00  0.00    +0.105 C 
ENDBRANCH  19  20
ENDBRANCH  18  19
ENDBRANCH  14  18
TORSDOF 4
ENDMDL
MODEL 3
REMARK VINA RESULT:      -7.2      2.708      5.496
REMARK  Name = NuBBE_1128
REMARK  6 active torsions:
REMARK  status: ('A' for Active; 'I' for Inactive)
REMARK    1  A    between atoms: C_1  and  S_2
REMARK    2  A    between atoms: S_2  and  C_3
REMARK    3  A    between atoms: N_16  and  C_17
REMARK    4  A    between atoms: C_17  and  C_18
REMARK    5  A    between atoms: C_18  and  C_19
REMARK    6  A    between atoms: N_25  and  C_26
REMARK                            x       y       z     vdW  Elec       q    Type
REMARK                         _______ _______ _______ _____ _____    ______ ____
ROOT
ATOM      1  C   LIG A   1      -6.200  -1.926 130.114  0.00  0.00    +0.040 A 
ATOM      2  C   LIG A   1      -7.230  -2.810 130.388  0.00  0.00    +0.018 A 
ATOM      3  C   LIG A   1      -8.054  -3.230 129.352  0.00  0.00    +0.018 A 
ATOM      4  C   LIG A   1      -6.010  -1.460 128.799  0.00  0.00    +0.041 A 
ATOM      5  C   LIG A   1      -6.803  -1.896 127.709  0.00  0.00    +0.049 A 
ATOM      6  C   LIG A   1      -7.847  -2.787 128.028  0.00  0.00    +0.034 A 
ATOM      7  S   LIG A   1      -8.995  -3.441 126.847  0.00  0.00    -0.086 S 
ATOM      8  C   LIG A   1      -8.391  -2.781 125.316  0.00  0.00    +0.034 A 
ATOM      9  C   LIG A   1      -9.093  -3.219 124.172  0.00  0.00    +0.017 A 
ATOM     10  C   LIG A   1      -8.739  -2.784 122.902  0.00  0.00    +0.001 A 
ATOM     11  C   LIG A   1      -7.695  -1.888 122.770  0.00  0.00    +0.002 A 
ATOM     12  C   LIG A   1      -7.003  -1.442 123.906  0.00  0.00    +0.024 A 
ATOM     13  C   LIG A   1      -7.305  -1.889 125.215  0.00  0.00    +0.048 A 
ATOM     14  N   LIG A   1      -6.558  -1.475 126.363  0.00  0.00    -0.298 N 
ENDROOT
BRANCH   1  16
ATOM     15  C   LIG A   1      -3.535  -1.758 130.564  0.00  0.00    +0.127 C 
ATOM     16  S   LIG A   1      -5.085  -1.372 131.425  0.00  0.00    +0.051 S 
ATOM     17  O   LIG A   1      -5.228  -2.375 132.534  0.00  0.00    -0.252 OA
ENDBRANCH   1  16
BRANCH  14  18
ATOM     18  C   LIG A   1      -5.375  -0.607 126.126  0.00  0.00    +0.112 C 
BRANCH  18  19
ATOM     19  C   LIG A   1      -5.765   0.881 126.144  0.00  0.00    +0.038 C 
BRANCH  19  20
ATOM     20  C   LIG A   1      -4.963   1.683 127.196  0.00  0.00    +0.058 C 
ATOM     21  C   LIG A   1      -3.826   2.502 126.546  0.00  0.00    +0.019 C 
ATOM     22  C   LIG A   1      -4.317   3.763 125.842  0.00  0.00    +0.003 C 
ATOM     23  C   LIG A   1      -5.220   4.581 126.755  0.00  0.00    +0.015 C 
ATOM     24  C   LIG A   1      -6.334   3.716 127.343  0.00  0.00    +0.084 C 
ATOM     25  N   LIG A   1      -5.860   2.507 128.035  0.00  0.00    -0.302 NA
ATOM     26  C   LIG A   1      -5.246   2.836 129.324  0.00  0.00    +0.105 C 
ENDBRANCH  19  20
ENDBRANCH  18  19
ENDBRANCH  14  18
TORSDOF 4
ENDMDL
MODEL 4
REMARK VINA RESULT:      -7.1      2.443      5.712
REMARK  Name = NuBBE_1128
REMARK  6 active torsions:
REMARK  status: ('A' for Active; 'I' for Inactive)
REMARK    1  A    between atoms: C_1  and  S_2
REMARK    2  A    between atoms: S_2  and  C_3
REMARK    3  A    between atoms: N_16  and  C_17
REMARK    4  A    between atoms: C_17  and  C_18
REMARK    5  A    between atoms: C_18  and  C_19
REMARK    6  A    between atoms: N_25  and  C_26
REMARK                            x       y       z     vdW  Elec       q    Type
REMARK                         _______ _______ _______ _____ _____    ______ ____
ROOT
ATOM      1  C   LIG A   1      -4.145   2.519 128.636  0.00  0.00    +0.040 A 
ATOM      2  C   LIG A   1      -4.095   2.209 129.985  0.00  0.00    +0.018 A 
ATOM      3  C   LIG A   1      -4.848   1.146 130.464  0.00  0.00    +0.018 A 
ATOM      4  C   LIG A   1      -4.964   1.763 127.776  0.00  0.00    +0.041 A 
ATOM      5  C   LIG A   1      -5.715   0.646 128.217  0.00  0.00    +0.049 A 
ATOM      6  C   LIG A   1      -5.646   0.368 129.597  0.00  0.00    +0.034 A 
ATOM      7  S   LIG A   1      -6.525  -0.948 130.394  0.00  0.00    -0.086 S 
ATOM      8  C   LIG A   1      -7.316  -1.763 129.032  0.00  0.00    +0.034 A 
ATOM      9  C   LIG A   1      -8.037  -2.926 129.383  0.00  0.00    +0.017 A 
ATOM     10  C   LIG A   1      -8.713  -3.668 128.424  0.00  0.00    +0.001 A 
ATOM     11  C   LIG A   1      -8.692  -3.239 127.110  0.00  0.00    +0.002 A 
ATOM     12  C   LIG A   1      -7.987  -2.078 126.760  0.00  0.00    +0.024 A 
ATOM     13  C   LIG A   1      -7.252  -1.314 127.698  0.00  0.00    +0.048 A 
ATOM     14  N   LIG A   1      -6.487  -0.163 127.324  0.00  0.00    -0.298 N 
ENDROOT
BRANCH   1  16
ATOM     15  C   LIG A   1      -4.308   4.331 126.631  0.00  0.00    +0.127 C 
ATOM     16  S   LIG A   1      -3.161   3.879 127.962  0.00  0.00    +0.051 S 
ATOM     17  O   LIG A   1      -1.970   3.237 127.311  0.00  0.00    -0.252 OA
ENDBRANCH   1  16
BRANCH  14  18
ATOM     18  C   LIG A   1      -6.416   0.163 125.876  0.00  0.00    +0.112 C 
BRANCH  18  19
ATOM     19  C   LIG A   1      -7.461   1.227 125.494  0.00  0.00    +0.038 C 
BRANCH  19  20
ATOM     20  C   LIG A   1      -7.523   1.463 123.967  0.00  0.00    +0.058 C 
ATOM     21  C   LIG A   1      -7.495   0.134 123.181  0.00  0.00    +0.019 C 
ATOM     22  C   LIG A   1      -8.827  -0.608 123.202  0.00  0.00    +0.003 C 
ATOM     23  C   LIG A   1      -9.972   0.315 122.808  0.00  0.00    +0.015 C 
ATOM     24  C   LIG A   1      -9.954   1.597 123.639  0.00  0.00    +0.084 C 
ATOM     25  N   LIG A   1      -8.673   2.321 123.608  0.00  0.00    -0.302 NA
ATOM     26  C   LIG A   1      -8.469   2.989 122.319  0.00  0.00    +0.105 C 
ENDBRANCH  19  20
ENDBRANCH  18  19
ENDBRANCH  14  18
TORSDOF 4
ENDMDL
MODEL 5
REMARK VINA RESULT:      -6.9      5.760      8.268
REMARK  Name = NuBBE_1128
REMARK  6 active torsions:
REMARK  status: ('A' for Active; 'I' for Inactive)
REMARK    1  A    between atoms: C_1  and  S_2
REMARK    2  A    between atoms: S_2  and  C_3
REMARK    3  A    between atoms: N_16  and  C_17
REMARK    4  A    between atoms: C_17  and  C_18
REMARK    5  A    between atoms: C_18  and  C_19
REMARK    6  A    between atoms: N_25  and  C_26
REMARK                            x       y       z     vdW  Elec       q    Type
REMARK                         _______ _______ _______ _____ _____    ______ ____
ROOT
ATOM      1  C   LIG A   1     -10.338   6.713 128.919  0.00  0.00    +0.040 A 
ATOM      2  C   LIG A   1     -10.844   7.225 130.102  0.00  0.00    +0.018 A 
ATOM      3  C   LIG A   1     -10.497   6.622 131.304  0.00  0.00    +0.018 A 
ATOM      4  C   LIG A   1      -9.494   5.587 128.950  0.00  0.00    +0.041 A 
ATOM      5  C   LIG A   1      -9.085   4.968 130.156  0.00  0.00    +0.049 A 
ATOM      6  C   LIG A   1      -9.628   5.511 131.338  0.00  0.00    +0.034 A 
ATOM      7  S   LIG A   1      -9.299   4.887 132.964  0.00  0.00    -0.086 S 
ATOM      8  C   LIG A   1      -8.119   3.601 132.652  0.00  0.00    +0.034 A 
ATOM      9  C   LIG A   1      -7.615   2.974 133.813  0.00  0.00    +0.017 A 
ATOM     10  C   LIG A   1      -6.686   1.945 133.728  0.00  0.00    +0.001 A 
ATOM     11  C   LIG A   1      -6.273   1.520 132.479  0.00  0.00    +0.002 A 
ATOM     12  C   LIG A   1      -6.781   2.133 131.323  0.00  0.00    +0.024 A 
ATOM     13  C   LIG A   1      -7.698   3.210 131.365  0.00  0.00    +0.048 A 
ATOM     14  N   LIG A   1      -8.168   3.869 130.185  0.00  0.00    -0.298 N 
ENDROOT
BRANCH   1  16
ATOM     15  C   LIG A   1     -12.533   7.213 127.415  0.00  0.00    +0.127 C 
ATOM     16  S   LIG A   1     -10.740   7.482 127.332  0.00  0.00    +0.051 S 
ATOM     17  O   LIG A   1     -10.208   6.551 126.281  0.00  0.00    -0.252 OA
ENDBRANCH   1  16
BRANCH  14  18
ATOM     18  C   LIG A   1      -7.585   3.435 128.889  0.00  0.00    +0.112 C 
BRANCH  18  19
ATOM     19  C   LIG A   1      -8.396   2.279 128.275  0.00  0.00    +0.038 C 
BRANCH  19  20
ATOM     20  C   LIG A   1      -7.647   1.596 127.106  0.00  0.00    +0.058 C 
ATOM     21  C   LIG A   1      -8.426   0.381 126.560  0.00  0.00    +0.019 C 
ATOM     22  C   LIG A   1      -9.611   0.769 125.679  0.00  0.00    +0.003 C 
ATOM     23  C   LIG A   1      -9.189   1.763 124.606  0.00  0.00    +0.015 C 
ATOM     24  C   LIG A   1      -8.446   2.950 125.218  0.00  0.00    +0.084 C 
ATOM     25  N   LIG A   1      -7.294   2.576 126.055  0.00  0.00    -0.302 NA
ATOM     26  C   LIG A   1      -6.169   2.114 125.238  0.00  0.00    +0.105 C 
ENDBRANCH  19  20
ENDBRANCH  18  19
ENDBRANCH  14  18
TORSDOF 4
ENDMDL
MODEL 6
REMARK VINA RESULT:      -6.9      5.272      9.014
REMARK  Name = NuBBE_1128
REMARK  6 active torsions:
REMARK  status: ('A' for Active; 'I' for Inactive)
REMARK    1  A    between atoms: C_1  and  S_2
REMARK    2  A    between atoms: S_2  and  C_3
REMARK    3  A    between atoms: N_16  and  C_17
REMARK    4  A    between atoms: C_17  and  C_18
REMARK    5  A    between atoms: C_18  and  C_19
REMARK    6  A    between atoms: N_25  and  C_26
REMARK                            x       y       z     vdW  Elec       q    Type
REMARK                         _______ _______ _______ _____ _____    ______ ____
ROOT
ATOM      1  C   LIG A   1      -7.075   2.426 126.200  0.00  0.00    +0.040 A 
ATOM      2  C   LIG A   1      -5.898   2.632 125.498  0.00  0.00    +0.018 A 
ATOM      3  C   LIG A   1      -4.945   3.498 126.015  0.00  0.00    +0.018 A 
ATOM      4  C   LIG A   1      -7.290   3.104 127.414  0.00  0.00    +0.041 A 
ATOM      5  C   LIG A   1      -6.326   3.964 127.995  0.00  0.00    +0.049 A 
ATOM      6  C   LIG A   1      -5.147   4.156 127.247  0.00  0.00    +0.034 A 
ATOM      7  S   LIG A   1      -3.814   5.213 127.742  0.00  0.00    -0.086 S 
ATOM      8  C   LIG A   1      -4.340   5.775 129.339  0.00  0.00    +0.034 A 
ATOM      9  C   LIG A   1      -3.404   6.591 130.012  0.00  0.00    +0.017 A 
ATOM     10  C   LIG A   1      -3.677   7.110 131.270  0.00  0.00    +0.001 A 
ATOM     11  C   LIG A   1      -4.899   6.837 131.854  0.00  0.00    +0.002 A 
ATOM     12  C   LIG A   1      -5.836   6.037 131.185  0.00  0.00    +0.024 A 
ATOM     13  C   LIG A   1      -5.584   5.455 129.919  0.00  0.00    +0.048 A 
ATOM     14  N   LIG A   1      -6.521   4.592 129.266  0.00  0.00    -0.298 N 
ENDROOT
BRANCH   1  16
ATOM     15  C   LIG A   1      -7.357   0.619 124.204  0.00  0.00    +0.127 C 
ATOM     16  S   LIG A   1      -8.334   1.286 125.579  0.00  0.00    +0.051 S 
ATOM     17  O   LIG A   1      -9.404   2.150 124.975  0.00  0.00    -0.252 OA
ENDBRANCH   1  16
BRANCH  14  18
ATOM     18  C   LIG A   1      -7.760   4.248 130.012  0.00  0.00    +0.112 C 
BRANCH  18  19
ATOM     19  C   LIG A   1      -8.971   5.026 129.465  0.00  0.00    +0.038 C 
BRANCH  19  20
ATOM     20  C   LIG A   1      -9.490   6.081 130.471  0.00  0.00    +0.058 C 
ATOM     21  C   LIG A   1      -9.235   7.519 129.972  0.00  0.00    +0.019 C 
ATOM     22  C   LIG A   1     -10.206   7.963 128.882  0.00  0.00    +0.003 C 
ATOM     23  C   LIG A   1     -11.647   7.702 129.297  0.00  0.00    +0.015 C 
ATOM     24  C   LIG A   1     -11.834   6.256 129.755  0.00  0.00    +0.084 C 
ATOM     25  N   LIG A   1     -10.907   5.833 130.817  0.00  0.00    -0.302 NA
ATOM     26  C   LIG A   1     -11.263   6.433 132.106  0.00  0.00    +0.105 C 
ENDBRANCH  19  20
ENDBRANCH  18  19
ENDBRANCH  14  18
TORSDOF 4
ENDMDL
MODEL 7
REMARK VINA RESULT:      -6.9      4.431      6.883
REMARK  Name = NuBBE_1128
REMARK  6 active torsions:
REMARK  status: ('A' for Active; 'I' for Inactive)
REMARK    1  A    between atoms: C_1  and  S_2
REMARK    2  A    between atoms: S_2  and  C_3
REMARK    3  A    between atoms: N_16  and  C_17
REMARK    4  A    between atoms: C_17  and  C_18
REMARK    5  A    between atoms: C_18  and  C_19
REMARK    6  A    between atoms: N_25  and  C_26
REMARK                            x       y       z     vdW  Elec       q    Type
REMARK                         _______ _______ _______ _____ _____    ______ ____
ROOT
ATOM      1  C   LIG A   1      -9.476   3.850 130.593  0.00  0.00    +0.040 A 
ATOM      2  C   LIG A   1      -9.776   3.350 131.850  0.00  0.00    +0.018 A 
ATOM      3  C   LIG A   1      -9.504   2.018 132.130  0.00  0.00    +0.018 A 
ATOM      4  C   LIG A   1      -8.913   3.003 129.621  0.00  0.00    +0.041 A 
ATOM      5  C   LIG A   1      -8.583   1.650 129.880  0.00  0.00    +0.049 A 
ATOM      6  C   LIG A   1      -8.913   1.175 131.165  0.00  0.00    +0.034 A 
ATOM      7  S   LIG A   1      -8.636  -0.487 131.715  0.00  0.00    -0.086 S 
ATOM      8  C   LIG A   1      -7.804  -1.218 130.329  0.00  0.00    +0.034 A 
ATOM      9  C   LIG A   1      -7.387  -2.551 130.533  0.00  0.00    +0.017 A 
ATOM     10  C   LIG A   1      -6.726  -3.257 129.536  0.00  0.00    +0.001 A 
ATOM     11  C   LIG A   1      -6.500  -2.641 128.320  0.00  0.00    +0.002 A 
ATOM     12  C   LIG A   1      -6.924  -1.320 128.110  0.00  0.00    +0.024 A 
ATOM     13  C   LIG A   1      -7.565  -0.551 129.111  0.00  0.00    +0.048 A 
ATOM     14  N   LIG A   1      -7.943   0.814 128.910  0.00  0.00    -0.298 N 
ENDROOT
BRANCH   1  16
ATOM     15  C   LIG A   1     -10.376   6.082 131.834  0.00  0.00    +0.127 C 
ATOM     16  S   LIG A   1      -9.788   5.585 130.190  0.00  0.00    +0.051 S 
ATOM     17  O   LIG A   1     -10.985   5.584 129.282  0.00  0.00    -0.252 OA
ENDBRANCH   1  16
BRANCH  14  18
ATOM     18  C   LIG A   1      -7.557   1.442 127.620  0.00  0.00    +0.112 C 
BRANCH  18  19
ATOM     19  C   LIG A   1      -8.599   1.148 126.525  0.00  0.00    +0.038 C 
BRANCH  19  20
ATOM     20  C   LIG A   1      -8.131   1.625 125.130  0.00  0.00    +0.058 C 
ATOM     21  C   LIG A   1      -6.783   0.986 124.730  0.00  0.00    +0.019 C 
ATOM     22  C   LIG A   1      -6.912  -0.465 124.280  0.00  0.00    +0.003 C 
ATOM     23  C   LIG A   1      -8.000  -0.614 123.226  0.00  0.00    +0.015 C 
ATOM     24  C   LIG A   1      -9.310   0.016 123.696  0.00  0.00    +0.084 C 
ATOM     25  N   LIG A   1      -9.188   1.422 124.116  0.00  0.00    -0.302 NA
ATOM     26  C   LIG A   1      -9.012   2.310 122.964  0.00  0.00    +0.105 C 
ENDBRANCH  19  20
ENDBRANCH  18  19
ENDBRANCH  14  18
TORSDOF 4
ENDMDL
MODEL 8
REMARK VINA RESULT:      -6.8      3.027      7.194
REMARK  Name = NuBBE_1128
REMARK  6 active torsions:
REMARK  status: ('A' for Active; 'I' for Inactive)
REMARK    1  A    between atoms: C_1  and  S_2
REMARK    2  A    between atoms: S_2  and  C_3
REMARK    3  A    between atoms: N_16  and  C_17
REMARK    4  A    between atoms: C_17  and  C_18
REMARK    5  A    between atoms: C_18  and  C_19
REMARK    6  A    between atoms: N_25  and  C_26
REMARK                            x       y       z     vdW  Elec       q    Type
REMARK                         _______ _______ _______ _____ _____    ______ ____
ROOT
ATOM      1  C   LIG A   1      -8.362  -2.684 125.357  0.00  0.00    +0.040 A 
ATOM      2  C   LIG A   1      -9.035  -3.496 126.255  0.00  0.00    +0.018 A 
ATOM      3  C   LIG A   1      -8.709  -3.431 127.603  0.00  0.00    +0.018 A 
ATOM      4  C   LIG A   1      -7.355  -1.817 125.820  0.00  0.00    +0.041 A 
ATOM      5  C   LIG A   1      -7.021  -1.691 127.191  0.00  0.00    +0.049 A 
ATOM      6  C   LIG A   1      -7.719  -2.540 128.072  0.00  0.00    +0.034 A 
ATOM      7  S   LIG A   1      -7.453  -2.597 129.823  0.00  0.00    -0.086 S 
ATOM      8  C   LIG A   1      -6.258  -1.310 130.073  0.00  0.00    +0.034 A 
ATOM      9  C   LIG A   1      -5.918  -1.081 131.424  0.00  0.00    +0.017 A 
ATOM     10  C   LIG A   1      -4.993  -0.108 131.776  0.00  0.00    +0.001 A 
ATOM     11  C   LIG A   1      -4.383   0.627 130.777  0.00  0.00    +0.002 A 
ATOM     12  C   LIG A   1      -4.710   0.394 129.433  0.00  0.00    +0.024 A 
ATOM     13  C   LIG A   1      -5.676  -0.561 129.032  0.00  0.00    +0.048 A 
ATOM     14  N   LIG A   1      -6.047  -0.754 127.663  0.00  0.00    -0.298 N 
ENDROOT
BRANCH   1  16
ATOM     15  C   LIG A   1      -7.183  -2.071 122.999  0.00  0.00    +0.127 C 
ATOM     16  S   LIG A   1      -8.771  -2.715 123.596  0.00  0.00    +0.051 S 
ATOM     17  O   LIG A   1      -9.786  -1.627 123.393  0.00  0.00    -0.252 OA
ENDBRANCH   1  16
BRANCH  14  18
ATOM     18  C   LIG A   1      -5.437   0.157 126.660  0.00  0.00    +0.112 C 
BRANCH  18  19
ATOM     19  C   LIG A   1      -6.147   1.523 126.647  0.00  0.00    +0.038 C 
BRANCH  19  20
ATOM     20  C   LIG A   1      -6.052   2.218 125.268  0.00  0.00    +0.058 C 
ATOM     21  C   LIG A   1      -6.738   1.387 124.161  0.00  0.00    +0.019 C 
ATOM     22  C   LIG A   1      -8.260   1.479 124.193  0.00  0.00    +0.003 C 
ATOM     23  C   LIG A   1      -8.718   2.930 124.246  0.00  0.00    +0.015 C 
ATOM     24  C   LIG A   1      -8.020   3.685 125.376  0.00  0.00    +0.084 C 
ATOM     25  N   LIG A   1      -6.550   3.609 125.337  0.00  0.00    -0.302 NA
ATOM     26  C   LIG A   1      -6.001   4.436 124.258  0.00  0.00    +0.105 C 
ENDBRANCH  19  20
ENDBRANCH  18  19
ENDBRANCH  14  18
TORSDOF 4
ENDMDL
MODEL 9
REMARK VINA RESULT:      -6.8      3.103      5.553
REMARK  Name = NuBBE_1128
REMARK  6 active torsions:
REMARK  status: ('A' for Active; 'I' for Inactive)
REMARK    1  A    between atoms: C_1  and  S_2
REMARK    2  A    between atoms: S_2  and  C_3
REMARK    3  A    between atoms: N_16  and  C_17
REMARK    4  A    between atoms: C_17  and  C_18
REMARK    5  A    between atoms: C_18  and  C_19
REMARK    6  A    between atoms: N_25  and  C_26
REMARK                            x       y       z     vdW  Elec       q    Type
REMARK                         _______ _______ _______ _____ _____    ______ ____
ROOT
ATOM      1  C   LIG A   1      -7.304  -1.177 130.506  0.00  0.00    +0.040 A 
ATOM      2  C   LIG A   1      -7.411  -2.555 130.593  0.00  0.00    +0.018 A 
ATOM      3  C   LIG A   1      -7.807  -3.275 129.473  0.00  0.00    +0.018 A 
ATOM      4  C   LIG A   1      -7.608  -0.528 129.295  0.00  0.00    +0.041 A 
ATOM      5  C   LIG A   1      -7.976  -1.228 128.120  0.00  0.00    +0.049 A 
ATOM      6  C   LIG A   1      -8.084  -2.627 128.250  0.00  0.00    +0.034 A 
ATOM      7  S   LIG A   1      -8.565  -3.716 126.936  0.00  0.00    -0.086 S 
ATOM      8  C   LIG A   1      -8.724  -2.610 125.559  0.00  0.00    +0.034 A 
ATOM      9  C   LIG A   1      -9.030  -3.242 124.333  0.00  0.00    +0.017 A 
ATOM     10  C   LIG A   1      -9.190  -2.506 123.167  0.00  0.00    +0.001 A 
ATOM     11  C   LIG A   1      -9.068  -1.131 123.223  0.00  0.00    +0.002 A 
ATOM     12  C   LIG A   1      -8.776  -0.499 124.441  0.00  0.00    +0.024 A 
ATOM     13  C   LIG A   1      -8.566  -1.213 125.645  0.00  0.00    +0.048 A 
ATOM     14  N   LIG A   1      -8.212  -0.567 126.872  0.00  0.00    -0.298 N 
ENDROOT
BRANCH   1  16
ATOM     15  C   LIG A   1      -5.839  -1.524 132.756  0.00  0.00    +0.127 C 
ATOM     16  S   LIG A   1      -6.767  -0.201 131.931  0.00  0.00    +0.051 S 
ATOM     17  O   LIG A   1      -8.003   0.040 132.750  0.00  0.00    -0.252 OA
ENDBRANCH   1  16
BRANCH  14  18
ATOM     18  C   LIG A   1      -7.981   0.900 126.825  0.00  0.00    +0.112 C 
BRANCH  18  19
ATOM     19  C   LIG A   1      -6.496   1.220 126.576  0.00  0.00    +0.038 C 
BRANCH  19  20
ATOM     20  C   LIG A   1      -6.117   2.643 127.051  0.00  0.00    +0.058 C 
ATOM     21  C   LIG A   1      -5.780   2.671 128.558  0.00  0.00    +0.019 C 
ATOM     22  C   LIG A   1      -4.399   2.109 128.879  0.00  0.00    +0.003 C 
ATOM     23  C   LIG A   1      -3.333   2.746 127.998  0.00  0.00    +0.015 C 
ATOM     24  C   LIG A   1      -3.718   2.661 126.522  0.00  0.00    +0.084 C 
ATOM     25  N   LIG A   1      -5.045   3.217 126.210  0.00  0.00    -0.302 NA
ATOM     26  C   LIG A   1      -5.036   4.681 126.267  0.00  0.00    +0.105 C 
ENDBRANCH  19  20
ENDBRANCH  18  19
ENDBRANCH  14  18
TORSDOF 4
ENDMDL
