MODEL 1
REMARK VINA RESULT:      -8.0      0.000      0.000
REMARK  Name = NuBBE_2493
REMARK  6 active torsions:
REMARK  status: ('A' for Active; 'I' for Inactive)
REMARK    1  A    between atoms: C_2  and  C_3
REMARK    2  A    between atoms: C_3  and  C_4
REMARK    3  A    between atoms: C_8  and  C_9
REMARK    4  A    between atoms: C_14  and  C_15
REMARK    5  A    between atoms: C_14  and  C_16
REMARK    6  A    between atoms: C_20  and  O_21
REMARK                            x       y       z     vdW  Elec       q    Type
REMARK                         _______ _______ _______ _____ _____    ______ ____
ROOT
ATOM      1  C   LIG A   1      -7.891  -2.545 125.142  0.00  0.00    -0.012 C 
ATOM      2  C   LIG A   1      -8.346  -1.085 124.937  0.00  0.00    +0.015 C 
ATOM      3  C   LIG A   1      -6.347  -2.627 125.164  0.00  0.00    +0.011 C 
ATOM      4  C   LIG A   1      -5.709  -2.056 126.434  0.00  0.00    +0.007 C 
ATOM      5  C   LIG A   1      -6.255  -2.747 127.701  0.00  0.00    +0.027 C 
ATOM      6  C   LIG A   1      -5.519  -2.345 129.052  0.00  0.00    -0.022 C 
ATOM      7  C   LIG A   1      -5.618  -0.822 129.307  0.00  0.00    +0.012 C 
ATOM      8  C   LIG A   1      -4.017  -2.727 128.949  0.00  0.00    +0.015 C 
ATOM      9  C   LIG A   1      -3.252  -2.593 130.258  0.00  0.00    +0.075 C 
ATOM     10  C   LIG A   1      -3.903  -3.366 131.378  0.00  0.00    +0.139 C 
ATOM     11  O   LIG A   1      -3.198  -4.000 132.165  0.00  0.00    -0.297 OA
ATOM     12  C   LIG A   1      -5.419  -3.205 131.587  0.00  0.00    +0.027 C 
ATOM     13  C   LIG A   1      -5.663  -1.948 132.434  0.00  0.00    +0.019 C 
ATOM     14  C   LIG A   1      -5.896  -4.418 132.431  0.00  0.00    +0.019 C 
ATOM     15  C   LIG A   1      -6.148  -3.225 130.199  0.00  0.00    +0.008 C 
ATOM     16  C   LIG A   1      -7.675  -3.010 130.287  0.00  0.00    +0.008 C 
ATOM     17  C   LIG A   1      -8.366  -3.371 128.971  0.00  0.00    +0.035 C 
ATOM     18  C   LIG A   1      -7.801  -2.603 127.764  0.00  0.00    +0.070 C 
ATOM     19  C   LIG A   1      -8.453  -3.134 126.466  0.00  0.00    +0.045 C 
ENDROOT
BRANCH   1  21
ATOM     20  C   LIG A   1      -9.608  -3.350 123.384  0.00  0.00    +0.004 C 
ATOM     21  C   LIG A   1      -8.373  -3.307 123.902  0.00  0.00    -0.028 C 
ENDBRANCH   1  21
BRANCH  18  22
ATOM     22  O   LIG A   1      -8.157  -1.232 127.925  0.00  0.00    -0.388 OA
ATOM     23  H   LIG A   1      -8.170  -1.029 128.877  0.00  0.00    +0.210 HD
ENDBRANCH  18  22
TORSDOF 2
ENDMDL
MODEL 2
REMARK VINA RESULT:      -7.8      4.090      6.633
REMARK  Name = NuBBE_2493
REMARK  6 active torsions:
REMARK  status: ('A' for Active; 'I' for Inactive)
REMARK    1  A    between atoms: C_2  and  C_3
REMARK    2  A    between atoms: C_3  and  C_4
REMARK    3  A    between atoms: C_8  and  C_9
REMARK    4  A    between atoms: C_14  and  C_15
REMARK    5  A    between atoms: C_14  and  C_16
REMARK    6  A    between atoms: C_20  and  O_21
REMARK                            x       y       z     vdW  Elec       q    Type
REMARK                         _______ _______ _______ _____ _____    ______ ____
ROOT
ATOM      1  C   LIG A   1      -6.257  -3.235 124.292  0.00  0.00    -0.012 C 
ATOM      2  C   LIG A   1      -7.631  -3.836 124.656  0.00  0.00    +0.015 C 
ATOM      3  C   LIG A   1      -6.377  -2.352 123.028  0.00  0.00    +0.011 C 
ATOM      4  C   LIG A   1      -7.101  -1.023 123.262  0.00  0.00    +0.007 C 
ATOM      5  C   LIG A   1      -6.423  -0.197 124.375  0.00  0.00    +0.027 C 
ATOM      6  C   LIG A   1      -6.999   1.274 124.560  0.00  0.00    -0.022 C 
ATOM      7  C   LIG A   1      -8.508   1.242 124.896  0.00  0.00    +0.012 C 
ATOM      8  C   LIG A   1      -6.808   2.068 123.239  0.00  0.00    +0.015 C 
ATOM      9  C   LIG A   1      -7.119   3.552 123.358  0.00  0.00    +0.075 C 
ATOM     10  C   LIG A   1      -6.338   4.209 124.469  0.00  0.00    +0.139 C 
ATOM     11  O   LIG A   1      -5.849   5.326 124.287  0.00  0.00    -0.297 OA
ATOM     12  C   LIG A   1      -6.314   3.522 125.846  0.00  0.00    +0.027 C 
ATOM     13  C   LIG A   1      -7.579   3.931 126.615  0.00  0.00    +0.019 C 
ATOM     14  C   LIG A   1      -5.104   4.102 126.626  0.00  0.00    +0.019 C 
ATOM     15  C   LIG A   1      -6.116   1.978 125.661  0.00  0.00    +0.008 C 
ATOM     16  C   LIG A   1      -6.137   1.179 126.982  0.00  0.00    +0.008 C 
ATOM     17  C   LIG A   1      -5.611  -0.244 126.782  0.00  0.00    +0.035 C 
ATOM     18  C   LIG A   1      -6.370  -1.019 125.692  0.00  0.00    +0.070 C 
ATOM     19  C   LIG A   1      -5.681  -2.384 125.458  0.00  0.00    +0.045 C 
ENDROOT
BRANCH   1  21
ATOM     20  C   LIG A   1      -4.072  -4.422 123.582  0.00  0.00    +0.004 C 
ATOM     21  C   LIG A   1      -5.365  -4.429 123.934  0.00  0.00    -0.028 C 
ENDBRANCH   1  21
BRANCH  18  22
ATOM     22  O   LIG A   1      -7.692  -1.252 126.176  0.00  0.00    -0.388 OA
ATOM     23  H   LIG A   1      -8.192  -0.420 126.112  0.00  0.00    +0.210 HD
ENDBRANCH  18  22
TORSDOF 2
ENDMDL
MODEL 3
REMARK VINA RESULT:      -7.7      7.880      9.157
REMARK  Name = NuBBE_2493
REMARK  6 active torsions:
REMARK  status: ('A' for Active; 'I' for Inactive)
REMARK    1  A    between atoms: C_2  and  C_3
REMARK    2  A    between atoms: C_3  and  C_4
REMARK    3  A    between atoms: C_8  and  C_9
REMARK    4  A    between atoms: C_14  and  C_15
REMARK    5  A    between atoms: C_14  and  C_16
REMARK    6  A    between atoms: C_20  and  O_21
REMARK                            x       y       z     vdW  Elec       q    Type
REMARK                         _______ _______ _______ _____ _____    ______ ____
ROOT
ATOM      1  C   LIG A   1     -12.041   7.539 129.311  0.00  0.00    -0.012 C 
ATOM      2  C   LIG A   1     -12.685   8.222 130.536  0.00  0.00    +0.015 C 
ATOM      3  C   LIG A   1     -10.562   7.968 129.174  0.00  0.00    +0.011 C 
ATOM      4  C   LIG A   1      -9.635   7.360 130.230  0.00  0.00    +0.007 C 
ATOM      5  C   LIG A   1      -9.702   5.819 130.220  0.00  0.00    +0.027 C 
ATOM      6  C   LIG A   1      -8.639   5.098 131.160  0.00  0.00    -0.022 C 
ATOM      7  C   LIG A   1      -8.814   5.535 132.633  0.00  0.00    +0.012 C 
ATOM      8  C   LIG A   1      -7.207   5.484 130.701  0.00  0.00    +0.015 C 
ATOM      9  C   LIG A   1      -6.103   4.688 131.381  0.00  0.00    +0.075 C 
ATOM     10  C   LIG A   1      -6.304   3.200 131.238  0.00  0.00    +0.139 C 
ATOM     11  O   LIG A   1      -5.334   2.477 131.000  0.00  0.00    -0.297 OA
ATOM     12  C   LIG A   1      -7.696   2.621 131.548  0.00  0.00    +0.027 C 
ATOM     13  C   LIG A   1      -7.802   2.398 133.064  0.00  0.00    +0.019 C 
ATOM     14  C   LIG A   1      -7.770   1.222 130.879  0.00  0.00    +0.019 C 
ATOM     15  C   LIG A   1      -8.801   3.546 130.932  0.00  0.00    +0.008 C 
ATOM     16  C   LIG A   1     -10.245   3.090 131.236  0.00  0.00    +0.008 C 
ATOM     17  C   LIG A   1     -11.258   3.814 130.348  0.00  0.00    +0.035 C 
ATOM     18  C   LIG A   1     -11.163   5.345 130.452  0.00  0.00    +0.070 C 
ATOM     19  C   LIG A   1     -12.116   5.990 129.418  0.00  0.00    +0.045 C 
ENDROOT
BRANCH   1  21
ATOM     20  C   LIG A   1     -13.887   7.587 127.500  0.00  0.00    +0.004 C 
ATOM     21  C   LIG A   1     -12.792   8.085 128.090  0.00  0.00    -0.028 C 
ENDBRANCH   1  21
BRANCH  18  22
ATOM     22  O   LIG A   1     -11.594   5.712 131.761  0.00  0.00    -0.388 OA
ATOM     23  H   LIG A   1     -12.538   5.488 131.845  0.00  0.00    +0.210 HD
ENDBRANCH  18  22
TORSDOF 2
ENDMDL
MODEL 4
REMARK VINA RESULT:      -7.6      8.777     10.341
REMARK  Name = NuBBE_2493
REMARK  6 active torsions:
REMARK  status: ('A' for Active; 'I' for Inactive)
REMARK    1  A    between atoms: C_2  and  C_3
REMARK    2  A    between atoms: C_3  and  C_4
REMARK    3  A    between atoms: C_8  and  C_9
REMARK    4  A    between atoms: C_14  and  C_15
REMARK    5  A    between atoms: C_14  and  C_16
REMARK    6  A    between atoms: C_20  and  O_21
REMARK                            x       y       z     vdW  Elec       q    Type
REMARK                         _______ _______ _______ _____ _____    ______ ____
ROOT
ATOM      1  C   LIG A   1     -12.069   7.804 129.326  0.00  0.00    -0.012 C 
ATOM      2  C   LIG A   1     -12.329   6.939 128.075  0.00  0.00    +0.015 C 
ATOM      3  C   LIG A   1     -12.570   7.076 130.594  0.00  0.00    +0.011 C 
ATOM      4  C   LIG A   1     -11.704   5.884 131.013  0.00  0.00    +0.007 C 
ATOM      5  C   LIG A   1     -10.236   6.302 131.236  0.00  0.00    +0.027 C 
ATOM      6  C   LIG A   1      -9.303   5.168 131.847  0.00  0.00    -0.022 C 
ATOM      7  C   LIG A   1      -9.270   3.923 130.930  0.00  0.00    +0.012 C 
ATOM      8  C   LIG A   1      -9.859   4.741 133.232  0.00  0.00    +0.015 C 
ATOM      9  C   LIG A   1      -8.934   3.820 134.014  0.00  0.00    +0.075 C 
ATOM     10  C   LIG A   1      -7.552   4.404 134.173  0.00  0.00    +0.139 C 
ATOM     11  O   LIG A   1      -6.969   4.295 135.253  0.00  0.00    -0.297 OA
ATOM     12  C   LIG A   1      -6.859   4.981 132.926  0.00  0.00    +0.027 C 
ATOM     13  C   LIG A   1      -6.186   3.829 132.167  0.00  0.00    +0.019 C 
ATOM     14  C   LIG A   1      -5.725   5.917 133.424  0.00  0.00    +0.019 C 
ATOM     15  C   LIG A   1      -7.888   5.818 132.090  0.00  0.00    +0.008 C 
ATOM     16  C   LIG A   1      -7.311   6.397 130.780  0.00  0.00    +0.008 C 
ATOM     17  C   LIG A   1      -8.234   7.463 130.187  0.00  0.00    +0.035 C 
ATOM     18  C   LIG A   1      -9.665   6.954 129.947  0.00  0.00    +0.070 C 
ATOM     19  C   LIG A   1     -10.559   8.131 129.488  0.00  0.00    +0.045 C 
ENDROOT
BRANCH   1  21
ATOM     20  C   LIG A   1     -13.133  10.057 130.018  0.00  0.00    +0.004 C 
ATOM     21  C   LIG A   1     -12.931   9.059 129.147  0.00  0.00    -0.028 C 
ENDBRANCH   1  21
BRANCH  18  22
ATOM     22  O   LIG A   1      -9.606   5.991 128.897  0.00  0.00    -0.388 OA
ATOM     23  H   LIG A   1      -9.540   5.106 129.298  0.00  0.00    +0.210 HD
ENDBRANCH  18  22
TORSDOF 2
ENDMDL
MODEL 5
REMARK VINA RESULT:      -7.2      2.283      6.861
REMARK  Name = NuBBE_2493
REMARK  6 active torsions:
REMARK  status: ('A' for Active; 'I' for Inactive)
REMARK    1  A    between atoms: C_2  and  C_3
REMARK    2  A    between atoms: C_3  and  C_4
REMARK    3  A    between atoms: C_8  and  C_9
REMARK    4  A    between atoms: C_14  and  C_15
REMARK    5  A    between atoms: C_14  and  C_16
REMARK    6  A    between atoms: C_20  and  O_21
REMARK                            x       y       z     vdW  Elec       q    Type
REMARK                         _______ _______ _______ _____ _____    ______ ____
ROOT
ATOM      1  C   LIG A   1      -7.462  -0.955 130.563  0.00  0.00    -0.012 C 
ATOM      2  C   LIG A   1      -5.936  -0.882 130.782  0.00  0.00    +0.015 C 
ATOM      3  C   LIG A   1      -7.965   0.331 129.868  0.00  0.00    +0.011 C 
ATOM      4  C   LIG A   1      -7.573   0.436 128.391  0.00  0.00    +0.007 C 
ATOM      5  C   LIG A   1      -8.069  -0.783 127.586  0.00  0.00    +0.027 C 
ATOM      6  C   LIG A   1      -7.865  -0.672 126.012  0.00  0.00    -0.022 C 
ATOM      7  C   LIG A   1      -6.371  -0.492 125.657  0.00  0.00    +0.012 C 
ATOM      8  C   LIG A   1      -8.647   0.559 125.481  0.00  0.00    +0.015 C 
ATOM      9  C   LIG A   1      -8.710   0.646 123.963  0.00  0.00    +0.075 C 
ATOM     10  C   LIG A   1      -9.257  -0.616 123.344  0.00  0.00    +0.139 C 
ATOM     11  O   LIG A   1     -10.049  -0.534 122.403  0.00  0.00    -0.297 OA
ATOM     12  C   LIG A   1      -8.683  -1.964 123.812  0.00  0.00    +0.027 C 
ATOM     13  C   LIG A   1      -7.395  -2.244 123.025  0.00  0.00    +0.019 C 
ATOM     14  C   LIG A   1      -9.705  -3.062 123.412  0.00  0.00    +0.019 C 
ATOM     15  C   LIG A   1      -8.521  -1.955 125.372  0.00  0.00    +0.008 C 
ATOM     16  C   LIG A   1      -7.894  -3.244 125.947  0.00  0.00    +0.008 C 
ATOM     17  C   LIG A   1      -8.070  -3.321 127.465  0.00  0.00    +0.035 C 
ATOM     18  C   LIG A   1      -7.505  -2.094 128.199  0.00  0.00    +0.070 C 
ATOM     19  C   LIG A   1      -7.855  -2.188 129.703  0.00  0.00    +0.045 C 
ENDROOT
BRANCH   1  21
ATOM     20  C   LIG A   1      -7.844  -1.863 132.954  0.00  0.00    +0.004 C 
ATOM     21  C   LIG A   1      -8.080  -0.990 131.966  0.00  0.00    -0.028 C 
ENDBRANCH   1  21
BRANCH  18  22
ATOM     22  O   LIG A   1      -6.086  -2.127 128.059  0.00  0.00    -0.388 OA
ATOM     23  H   LIG A   1      -5.795  -3.054 128.123  0.00  0.00    +0.210 HD
ENDBRANCH  18  22
TORSDOF 2
ENDMDL
MODEL 6
REMARK VINA RESULT:      -7.2      1.880      6.718
REMARK  Name = NuBBE_2493
REMARK  6 active torsions:
REMARK  status: ('A' for Active; 'I' for Inactive)
REMARK    1  A    between atoms: C_2  and  C_3
REMARK    2  A    between atoms: C_3  and  C_4
REMARK    3  A    between atoms: C_8  and  C_9
REMARK    4  A    between atoms: C_14  and  C_15
REMARK    5  A    between atoms: C_14  and  C_16
REMARK    6  A    between atoms: C_20  and  O_21
REMARK                            x       y       z     vdW  Elec       q    Type
REMARK                         _______ _______ _______ _____ _____    ______ ____
ROOT
ATOM      1  C   LIG A   1      -6.497  -2.967 130.192  0.00  0.00    -0.012 C 
ATOM      2  C   LIG A   1      -7.173  -1.882 131.056  0.00  0.00    +0.015 C 
ATOM      3  C   LIG A   1      -7.567  -3.860 129.521  0.00  0.00    +0.011 C 
ATOM      4  C   LIG A   1      -8.332  -3.173 128.386  0.00  0.00    +0.007 C 
ATOM      5  C   LIG A   1      -7.374  -2.650 127.295  0.00  0.00    +0.027 C 
ATOM      6  C   LIG A   1      -8.091  -2.082 125.993  0.00  0.00    -0.022 C 
ATOM      7  C   LIG A   1      -9.037  -0.910 126.345  0.00  0.00    +0.012 C 
ATOM      8  C   LIG A   1      -8.934  -3.212 125.340  0.00  0.00    +0.015 C 
ATOM      9  C   LIG A   1      -9.492  -2.856 123.970  0.00  0.00    +0.075 C 
ATOM     10  C   LIG A   1      -8.413  -2.405 123.017  0.00  0.00    +0.139 C 
ATOM     11  O   LIG A   1      -8.441  -2.788 121.846  0.00  0.00    -0.297 OA
ATOM     12  C   LIG A   1      -7.401  -1.355 123.509  0.00  0.00    +0.027 C 
ATOM     13  C   LIG A   1      -8.020   0.039 123.326  0.00  0.00    +0.019 C 
ATOM     14  C   LIG A   1      -6.169  -1.430 122.567  0.00  0.00    +0.019 C 
ATOM     15  C   LIG A   1      -6.953  -1.698 124.971  0.00  0.00    +0.008 C 
ATOM     16  C   LIG A   1      -5.979  -0.671 125.588  0.00  0.00    +0.008 C 
ATOM     17  C   LIG A   1      -5.322  -1.218 126.857  0.00  0.00    +0.035 C 
ATOM     18  C   LIG A   1      -6.341  -1.670 127.916  0.00  0.00    +0.070 C 
ATOM     19  C   LIG A   1      -5.594  -2.340 129.094  0.00  0.00    +0.045 C 
ENDROOT
BRANCH   1  21
ATOM     20  C   LIG A   1      -5.502  -5.170 131.110  0.00  0.00    +0.004 C 
ATOM     21  C   LIG A   1      -5.714  -3.848 131.172  0.00  0.00    -0.028 C 
ENDBRANCH   1  21
BRANCH  18  22
ATOM     22  O   LIG A   1      -7.002  -0.503 128.399  0.00  0.00    -0.388 OA
ATOM     23  H   LIG A   1      -6.440  -0.094 129.081  0.00  0.00    +0.210 HD
ENDBRANCH  18  22
TORSDOF 2
ENDMDL
MODEL 7
REMARK VINA RESULT:      -7.1      8.880     11.687
REMARK  Name = NuBBE_2493
REMARK  6 active torsions:
REMARK  status: ('A' for Active; 'I' for Inactive)
REMARK    1  A    between atoms: C_2  and  C_3
REMARK    2  A    between atoms: C_3  and  C_4
REMARK    3  A    between atoms: C_8  and  C_9
REMARK    4  A    between atoms: C_14  and  C_15
REMARK    5  A    between atoms: C_14  and  C_16
REMARK    6  A    between atoms: C_20  and  O_21
REMARK                            x       y       z     vdW  Elec       q    Type
REMARK                         _______ _______ _______ _____ _____    ______ ____
ROOT
ATOM      1  C   LIG A   1      -5.694   5.783 132.571  0.00  0.00    -0.012 C 
ATOM      2  C   LIG A   1      -5.264   4.419 131.991  0.00  0.00    +0.015 C 
ATOM      3  C   LIG A   1      -5.673   6.865 131.467  0.00  0.00    +0.011 C 
ATOM      4  C   LIG A   1      -6.806   6.736 130.444  0.00  0.00    +0.007 C 
ATOM      5  C   LIG A   1      -8.189   6.759 131.127  0.00  0.00    +0.027 C 
ATOM      6  C   LIG A   1      -9.427   6.812 130.129  0.00  0.00    -0.022 C 
ATOM      7  C   LIG A   1      -9.427   5.591 129.180  0.00  0.00    +0.012 C 
ATOM      8  C   LIG A   1      -9.334   8.101 129.268  0.00  0.00    +0.015 C 
ATOM      9  C   LIG A   1     -10.573   8.376 128.430  0.00  0.00    +0.075 C 
ATOM     10  C   LIG A   1     -11.830   8.405 129.264  0.00  0.00    +0.139 C 
ATOM     11  O   LIG A   1     -12.686   9.263 129.040  0.00  0.00    -0.297 OA
ATOM     12  C   LIG A   1     -12.064   7.260 130.265  0.00  0.00    +0.027 C 
ATOM     13  C   LIG A   1     -12.698   6.080 129.513  0.00  0.00    +0.019 C 
ATOM     14  C   LIG A   1     -13.115   7.758 131.293  0.00  0.00    +0.019 C 
ATOM     15  C   LIG A   1     -10.727   6.931 131.013  0.00  0.00    +0.008 C 
ATOM     16  C   LIG A   1     -10.833   5.752 132.004  0.00  0.00    +0.008 C 
ATOM     17  C   LIG A   1      -9.621   5.694 132.936  0.00  0.00    +0.035 C 
ATOM     18  C   LIG A   1      -8.284   5.621 132.181  0.00  0.00    +0.070 C 
ATOM     19  C   LIG A   1      -7.117   5.714 133.192  0.00  0.00    +0.045 C 
ENDROOT
BRANCH   1  21
ATOM     20  C   LIG A   1      -4.698   6.115 134.934  0.00  0.00    +0.004 C 
ATOM     21  C   LIG A   1      -4.617   6.154 133.597  0.00  0.00    -0.028 C 
ENDBRANCH   1  21
BRANCH  18  22
ATOM     22  O   LIG A   1      -8.227   4.351 131.534  0.00  0.00    -0.388 OA
ATOM     23  H   LIG A   1      -7.430   4.328 130.976  0.00  0.00    +0.210 HD
ENDBRANCH  18  22
TORSDOF 2
ENDMDL
MODEL 8
REMARK VINA RESULT:      -7.0      3.112      7.187
REMARK  Name = NuBBE_2493
REMARK  6 active torsions:
REMARK  status: ('A' for Active; 'I' for Inactive)
REMARK    1  A    between atoms: C_2  and  C_3
REMARK    2  A    between atoms: C_3  and  C_4
REMARK    3  A    between atoms: C_8  and  C_9
REMARK    4  A    between atoms: C_14  and  C_15
REMARK    5  A    between atoms: C_14  and  C_16
REMARK    6  A    between atoms: C_20  and  O_21
REMARK                            x       y       z     vdW  Elec       q    Type
REMARK                         _______ _______ _______ _____ _____    ______ ____
ROOT
ATOM      1  C   LIG A   1      -7.719   0.806 130.257  0.00  0.00    -0.012 C 
ATOM      2  C   LIG A   1      -6.264   1.290 130.433  0.00  0.00    +0.015 C 
ATOM      3  C   LIG A   1      -8.517   1.811 129.394  0.00  0.00    +0.011 C 
ATOM      4  C   LIG A   1      -8.138   1.796 127.909  0.00  0.00    +0.007 C 
ATOM      5  C   LIG A   1      -8.299   0.389 127.299  0.00  0.00    +0.027 C 
ATOM      6  C   LIG A   1      -8.102   0.318 125.722  0.00  0.00    -0.022 C 
ATOM      7  C   LIG A   1      -6.695   0.814 125.315  0.00  0.00    +0.012 C 
ATOM      8  C   LIG A   1      -9.159   1.224 125.034  0.00  0.00    +0.015 C 
ATOM      9  C   LIG A   1      -9.216   1.072 123.521  0.00  0.00    +0.075 C 
ATOM     10  C   LIG A   1      -9.418  -0.363 123.101  0.00  0.00    +0.139 C 
ATOM     11  O   LIG A   1     -10.189  -0.619 122.174  0.00  0.00    -0.297 OA
ATOM     12  C   LIG A   1      -8.532  -1.442 123.748  0.00  0.00    +0.027 C 
ATOM     13  C   LIG A   1      -7.202  -1.500 122.983  0.00  0.00    +0.019 C 
ATOM     14  C   LIG A   1      -9.239  -2.806 123.530  0.00  0.00    +0.019 C 
ATOM     15  C   LIG A   1      -8.405  -1.167 125.286  0.00  0.00    +0.008 C 
ATOM     16  C   LIG A   1      -7.484  -2.160 126.028  0.00  0.00    +0.008 C 
ATOM     17  C   LIG A   1      -7.661  -2.058 127.545  0.00  0.00    +0.035 C 
ATOM     18  C   LIG A   1      -7.434  -0.636 128.083  0.00  0.00    +0.070 C 
ATOM     19  C   LIG A   1      -7.775  -0.597 129.592  0.00  0.00    +0.045 C 
ENDROOT
BRANCH   1  21
ATOM     20  C   LIG A   1      -9.548   1.248 132.031  0.00  0.00    +0.004 C 
ATOM     21  C   LIG A   1      -8.332   0.821 131.662  0.00  0.00    -0.028 C 
ENDBRANCH   1  21
BRANCH  18  22
ATOM     22  O   LIG A   1      -6.050  -0.333 127.921  0.00  0.00    -0.388 OA
ATOM     23  H   LIG A   1      -5.745  -0.736 127.089  0.00  0.00    +0.210 HD
ENDBRANCH  18  22
TORSDOF 2
ENDMDL
MODEL 9
REMARK VINA RESULT:      -7.0      1.979      2.391
REMARK  Name = NuBBE_2493
REMARK  6 active torsions:
REMARK  status: ('A' for Active; 'I' for Inactive)
REMARK    1  A    between atoms: C_2  and  C_3
REMARK    2  A    between atoms: C_3  and  C_4
REMARK    3  A    between atoms: C_8  and  C_9
REMARK    4  A    between atoms: C_14  and  C_15
REMARK    5  A    between atoms: C_14  and  C_16
REMARK    6  A    between atoms: C_20  and  O_21
REMARK                            x       y       z     vdW  Elec       q    Type
REMARK                         _______ _______ _______ _____ _____    ______ ____
ROOT
ATOM      1  C   LIG A   1      -6.319  -1.932 124.587  0.00  0.00    -0.012 C 
ATOM      2  C   LIG A   1      -7.291  -0.926 123.935  0.00  0.00    +0.015 C 
ATOM      3  C   LIG A   1      -5.152  -1.183 125.270  0.00  0.00    +0.011 C 
ATOM      4  C   LIG A   1      -5.547  -0.451 126.556  0.00  0.00    +0.007 C 
ATOM      5  C   LIG A   1      -6.180  -1.413 127.582  0.00  0.00    +0.027 C 
ATOM      6  C   LIG A   1      -6.456  -0.776 129.014  0.00  0.00    -0.022 C 
ATOM      7  C   LIG A   1      -7.407   0.439 128.908  0.00  0.00    +0.012 C 
ATOM      8  C   LIG A   1      -5.112  -0.294 129.626  0.00  0.00    +0.015 C 
ATOM      9  C   LIG A   1      -5.213   0.133 131.083  0.00  0.00    +0.075 C 
ATOM     10  C   LIG A   1      -5.816  -0.943 131.951  0.00  0.00    +0.139 C 
ATOM     11  O   LIG A   1      -5.339  -1.159 133.067  0.00  0.00    -0.297 OA
ATOM     12  C   LIG A   1      -7.107  -1.627 131.469  0.00  0.00    +0.027 C 
ATOM     13  C   LIG A   1      -8.302  -0.754 131.879  0.00  0.00    +0.019 C 
ATOM     14  C   LIG A   1      -7.236  -2.963 132.249  0.00  0.00    +0.019 C 
ATOM     15  C   LIG A   1      -7.001  -1.934 129.935  0.00  0.00    +0.008 C 
ATOM     16  C   LIG A   1      -8.272  -2.570 129.331  0.00  0.00    +0.008 C 
ATOM     17  C   LIG A   1      -8.000  -3.149 127.942  0.00  0.00    +0.035 C 
ATOM     18  C   LIG A   1      -7.419  -2.116 126.962  0.00  0.00    +0.070 C 
ATOM     19  C   LIG A   1      -7.041  -2.821 125.638  0.00  0.00    +0.045 C 
ENDROOT
BRANCH   1  21
ATOM     20  C   LIG A   1      -4.583  -3.443 123.407  0.00  0.00    +0.004 C 
ATOM     21  C   LIG A   1      -5.727  -2.745 123.430  0.00  0.00    -0.028 C 
ENDBRANCH   1  21
BRANCH  18  22
ATOM     22  O   LIG A   1      -8.441  -1.159 126.694  0.00  0.00    -0.388 OA
ATOM     23  H   LIG A   1      -8.588  -1.131 125.732  0.00  0.00    +0.210 HD
ENDBRANCH  18  22
TORSDOF 2
ENDMDL
