MODEL 1
REMARK VINA RESULT:      -9.4      0.000      0.000
REMARK  Name = NuBBE_1523
REMARK  10 active torsions:
REMARK  status: ('A' for Active; 'I' for Inactive)
REMARK    1  A    between atoms: C_1  and  C_2
REMARK    2  A    between atoms: C_7  and  C_8
REMARK    3  A    between atoms: C_12  and  C_13
REMARK    4  A    between atoms: C_12  and  C_14
REMARK    5  A    between atoms: C_19  and  C_36
REMARK    6  A    between atoms: C_20  and  C_22
REMARK    7  A    between atoms: C_25  and  C_26
REMARK    8  A    between atoms: C_27  and  C_28
REMARK    9  A    between atoms: C_27  and  C_29
REMARK   10  A    between atoms: C_32  and  O_33
REMARK                            x       y       z     vdW  Elec       q    Type
REMARK                         _______ _______ _______ _____ _____    ______ ____
ROOT
ATOM      1  C   LIG A   1      -4.491  -3.282 128.945  0.00  0.00    +0.016 C 
ATOM      2  C   LIG A   1      -5.476  -2.090 128.987  0.00  0.00    -0.005 C 
ATOM      3  C   LIG A   1      -5.982  -1.862 127.535  0.00  0.00    -0.063 C 
ATOM      4  C   LIG A   1      -5.166  -1.426 126.551  0.00  0.00    -0.026 C 
ATOM      5  C   LIG A   1      -5.567  -1.206 125.122  0.00  0.00    +0.032 C 
ATOM      6  C   LIG A   1      -7.091  -1.232 124.905  0.00  0.00    +0.012 C 
ATOM      7  C   LIG A   1      -7.733  -2.438 125.677  0.00  0.00    -0.021 C 
ATOM      8  C   LIG A   1      -7.192  -3.817 125.229  0.00  0.00    +0.012 C 
ATOM      9  C   LIG A   1      -9.269  -2.392 125.462  0.00  0.00    +0.015 C 
ATOM     10  C   LIG A   1      -9.681  -2.350 124.001  0.00  0.00    +0.075 C 
ATOM     11  C   LIG A   1      -9.049  -1.171 123.301  0.00  0.00    +0.139 C 
ATOM     12  C   LIG A   1      -7.523  -1.019 123.410  0.00  0.00    +0.027 C 
ATOM     13  C   LIG A   1      -7.150   0.422 122.978  0.00  0.00    +0.019 C 
ATOM     14  C   LIG A   1      -6.890  -1.967 122.378  0.00  0.00    +0.019 C 
ATOM     15  O   LIG A   1      -9.735  -0.438 122.589  0.00  0.00    -0.297 OA
ATOM     16  C   LIG A   1      -7.426  -2.221 127.219  0.00  0.00    +0.021 C 
ATOM     17  C   LIG A   1      -7.832  -3.412 128.092  0.00  0.00    +0.009 C 
ATOM     18  C   LIG A   1      -7.888  -2.992 129.552  0.00  0.00    +0.008 C 
ATOM     19  C   LIG A   1      -6.639  -2.239 130.080  0.00  0.00    -0.020 C 
ATOM     20  C   LIG A   1      -6.889  -0.756 130.635  0.00  0.00    +0.004 C 
ATOM     21  C   LIG A   1      -5.841   0.110 129.901  0.00  0.00    +0.005 C 
ATOM     22  C   LIG A   1      -4.728  -0.845 129.512  0.00  0.00    +0.012 C 
ATOM     23  C   LIG A   1      -6.130  -3.061 131.307  0.00  0.00    +0.012 C 
ENDROOT
BRANCH  20  24
ATOM     24  C   LIG A   1      -8.291  -0.089 130.568  0.00  0.00    +0.051 C 
ATOM     25  C   LIG A   1      -8.239   1.412 130.248  0.00  0.00    +0.043 C 
ATOM     26  C   LIG A   1      -8.664   2.114 131.527  0.00  0.00    +0.153 C 
ATOM     27  O   LIG A   1      -9.590   1.211 132.135  0.00  0.00    -0.345 OA
ATOM     28  C   LIG A   1      -9.191  -0.120 131.817  0.00  0.00    +0.251 C 
BRANCH  26  29
ATOM     29  C   LIG A   1      -7.514   2.449 132.444  0.00  0.00    +0.179 C 
ATOM     30  C   LIG A   1      -7.665   3.364 133.657  0.00  0.00    +0.093 C 
ATOM     31  C   LIG A   1      -6.458   4.074 134.188  0.00  0.00    +0.044 C 
ATOM     32  C   LIG A   1      -8.993   3.950 134.028  0.00  0.00    +0.044 C 
ATOM     33  O   LIG A   1      -7.585   1.938 133.785  0.00  0.00    -0.363 OA
ENDBRANCH  26  29
BRANCH  28  34
ATOM     34  O   LIG A   1      -8.582  -0.686 132.952  0.00  0.00    -0.367 OA
ATOM     35  H   LIG A   1      -8.159   0.069 133.404  0.00  0.00    +0.212 HD
ENDBRANCH  28  34
ENDBRANCH  20  24
TORSDOF 3
ENDMDL
MODEL 2
REMARK VINA RESULT:      -9.1      1.544      1.659
REMARK  Name = NuBBE_1523
REMARK  10 active torsions:
REMARK  status: ('A' for Active; 'I' for Inactive)
REMARK    1  A    between atoms: C_1  and  C_2
REMARK    2  A    between atoms: C_7  and  C_8
REMARK    3  A    between atoms: C_12  and  C_13
REMARK    4  A    between atoms: C_12  and  C_14
REMARK    5  A    between atoms: C_19  and  C_36
REMARK    6  A    between atoms: C_20  and  C_22
REMARK    7  A    between atoms: C_25  and  C_26
REMARK    8  A    between atoms: C_27  and  C_28
REMARK    9  A    between atoms: C_27  and  C_29
REMARK   10  A    between atoms: C_32  and  O_33
REMARK                            x       y       z     vdW  Elec       q    Type
REMARK                         _______ _______ _______ _____ _____    ______ ____
ROOT
ATOM      1  C   LIG A   1      -4.462  -1.878 129.527  0.00  0.00    +0.016 C 
ATOM      2  C   LIG A   1      -5.572  -0.813 129.362  0.00  0.00    -0.005 C 
ATOM      3  C   LIG A   1      -6.046  -0.871 127.882  0.00  0.00    -0.063 C 
ATOM      4  C   LIG A   1      -5.246  -0.503 126.858  0.00  0.00    -0.026 C 
ATOM      5  C   LIG A   1      -5.616  -0.553 125.404  0.00  0.00    +0.032 C 
ATOM      6  C   LIG A   1      -7.119  -0.785 125.165  0.00  0.00    +0.012 C 
ATOM      7  C   LIG A   1      -7.654  -1.922 126.105  0.00  0.00    -0.021 C 
ATOM      8  C   LIG A   1      -6.950  -3.283 125.890  0.00  0.00    +0.012 C 
ATOM      9  C   LIG A   1      -9.177  -2.084 125.856  0.00  0.00    +0.015 C 
ATOM     10  C   LIG A   1      -9.537  -2.315 124.399  0.00  0.00    +0.075 C 
ATOM     11  C   LIG A   1      -9.012  -1.195 123.534  0.00  0.00    +0.139 C 
ATOM     12  C   LIG A   1      -7.517  -0.856 123.647  0.00  0.00    +0.027 C 
ATOM     13  C   LIG A   1      -7.287   0.534 123.001  0.00  0.00    +0.019 C 
ATOM     14  C   LIG A   1      -6.747  -1.874 122.790  0.00  0.00    +0.019 C 
ATOM     15  O   LIG A   1      -9.747  -0.663 122.703  0.00  0.00    -0.297 OA
ATOM     16  C   LIG A   1      -7.430  -1.436 127.600  0.00  0.00    +0.021 C 
ATOM     17  C   LIG A   1      -7.735  -2.516 128.641  0.00  0.00    +0.009 C 
ATOM     18  C   LIG A   1      -7.890  -1.884 130.015  0.00  0.00    +0.008 C 
ATOM     19  C   LIG A   1      -6.751  -0.923 130.442  0.00  0.00    -0.020 C 
ATOM     20  C   LIG A   1      -7.181   0.590 130.751  0.00  0.00    +0.004 C 
ATOM     21  C   LIG A   1      -6.207   1.445 129.911  0.00  0.00    +0.005 C 
ATOM     22  C   LIG A   1      -4.983   0.575 129.699  0.00  0.00    +0.012 C 
ATOM     23  C   LIG A   1      -6.201  -1.482 131.793  0.00  0.00    +0.012 C 
ENDROOT
BRANCH  20  24
ATOM     24  C   LIG A   1      -8.644   1.076 130.553  0.00  0.00    +0.051 C 
ATOM     25  C   LIG A   1      -8.766   2.276 129.603  0.00  0.00    +0.043 C 
ATOM     26  C   LIG A   1      -9.164   3.450 130.482  0.00  0.00    +0.153 C 
ATOM     27  O   LIG A   1      -9.947   2.863 131.522  0.00  0.00    -0.345 OA
ATOM     28  C   LIG A   1      -9.442   1.555 131.779  0.00  0.00    +0.251 C 
BRANCH  26  29
ATOM     29  C   LIG A   1      -7.990   4.224 131.025  0.00  0.00    +0.179 C 
ATOM     30  C   LIG A   1      -8.079   5.700 131.407  0.00  0.00    +0.093 C 
ATOM     31  C   LIG A   1      -6.829   6.526 131.417  0.00  0.00    +0.044 C 
ATOM     32  C   LIG A   1      -9.369   6.454 131.299  0.00  0.00    +0.044 C 
ATOM     33  O   LIG A   1      -8.076   4.658 132.393  0.00  0.00    -0.363 OA
ENDBRANCH  26  29
BRANCH  28  34
ATOM     34  O   LIG A   1      -8.698   1.592 132.973  0.00  0.00    -0.367 OA
ATOM     35  H   LIG A   1      -8.149   0.785 132.943  0.00  0.00    +0.212 HD
ENDBRANCH  28  34
ENDBRANCH  20  24
TORSDOF 3
ENDMDL
MODEL 3
REMARK VINA RESULT:      -9.0      2.851      3.948
REMARK  Name = NuBBE_1523
REMARK  10 active torsions:
REMARK  status: ('A' for Active; 'I' for Inactive)
REMARK    1  A    between atoms: C_1  and  C_2
REMARK    2  A    between atoms: C_7  and  C_8
REMARK    3  A    between atoms: C_12  and  C_13
REMARK    4  A    between atoms: C_12  and  C_14
REMARK    5  A    between atoms: C_19  and  C_36
REMARK    6  A    between atoms: C_20  and  C_22
REMARK    7  A    between atoms: C_25  and  C_26
REMARK    8  A    between atoms: C_27  and  C_28
REMARK    9  A    between atoms: C_27  and  C_29
REMARK   10  A    between atoms: C_32  and  O_33
REMARK                            x       y       z     vdW  Elec       q    Type
REMARK                         _______ _______ _______ _____ _____    ______ ____
ROOT
ATOM      1  C   LIG A   1      -3.744   2.724 126.637  0.00  0.00    +0.016 C 
ATOM      2  C   LIG A   1      -5.202   2.626 127.146  0.00  0.00    -0.005 C 
ATOM      3  C   LIG A   1      -5.938   1.602 126.237  0.00  0.00    -0.063 C 
ATOM      4  C   LIG A   1      -6.187   1.850 124.933  0.00  0.00    -0.026 C 
ATOM      5  C   LIG A   1      -6.867   0.909 123.983  0.00  0.00    +0.032 C 
ATOM      6  C   LIG A   1      -7.543  -0.283 124.685  0.00  0.00    +0.012 C 
ATOM      7  C   LIG A   1      -6.591  -0.890 125.774  0.00  0.00    -0.021 C 
ATOM      8  C   LIG A   1      -5.249  -1.408 125.203  0.00  0.00    +0.012 C 
ATOM      9  C   LIG A   1      -7.336  -2.055 126.479  0.00  0.00    +0.015 C 
ATOM     10  C   LIG A   1      -7.871  -3.106 125.522  0.00  0.00    +0.075 C 
ATOM     11  C   LIG A   1      -8.788  -2.481 124.499  0.00  0.00    +0.139 C 
ATOM     12  C   LIG A   1      -8.244  -1.286 123.699  0.00  0.00    +0.027 C 
ATOM     13  C   LIG A   1      -9.443  -0.573 123.023  0.00  0.00    +0.019 C 
ATOM     14  C   LIG A   1      -7.370  -1.849 122.566  0.00  0.00    +0.019 C 
ATOM     15  O   LIG A   1      -9.881  -2.993 124.258  0.00  0.00    -0.297 OA
ATOM     16  C   LIG A   1      -6.311   0.255 126.838  0.00  0.00    +0.021 C 
ATOM     17  C   LIG A   1      -5.248  -0.125 127.872  0.00  0.00    +0.009 C 
ATOM     18  C   LIG A   1      -5.319   0.818 129.061  0.00  0.00    +0.008 C 
ATOM     19  C   LIG A   1      -5.327   2.330 128.717  0.00  0.00    -0.020 C 
ATOM     20  C   LIG A   1      -6.612   3.158 129.200  0.00  0.00    +0.004 C 
ATOM     21  C   LIG A   1      -7.084   3.907 127.934  0.00  0.00    +0.005 C 
ATOM     22  C   LIG A   1      -5.857   4.021 127.050  0.00  0.00    +0.012 C 
ATOM     23  C   LIG A   1      -4.119   2.953 129.487  0.00  0.00    +0.012 C 
ENDROOT
BRANCH  20  24
ATOM     24  C   LIG A   1      -7.812   2.461 129.901  0.00  0.00    +0.051 C 
ATOM     25  C   LIG A   1      -9.179   2.923 129.375  0.00  0.00    +0.043 C 
ATOM     26  C   LIG A   1      -9.799   3.724 130.507  0.00  0.00    +0.153 C 
ATOM     27  O   LIG A   1      -9.294   3.110 131.694  0.00  0.00    -0.345 OA
ATOM     28  C   LIG A   1      -7.982   2.623 131.423  0.00  0.00    +0.251 C 
BRANCH  26  29
ATOM     29  C   LIG A   1      -9.478   5.197 130.452  0.00  0.00    +0.179 C 
ATOM     30  C   LIG A   1     -10.526   6.260 130.130  0.00  0.00    +0.093 C 
ATOM     31  C   LIG A   1     -10.081   7.576 129.572  0.00  0.00    +0.044 C 
ATOM     32  C   LIG A   1     -11.958   5.891 129.891  0.00  0.00    +0.044 C 
ATOM     33  O   LIG A   1     -10.065   6.027 131.469  0.00  0.00    -0.363 OA
ENDBRANCH  26  29
BRANCH  28  34
ATOM     34  O   LIG A   1      -7.051   3.497 132.017  0.00  0.00    -0.367 OA
ATOM     35  H   LIG A   1      -6.213   2.996 132.016  0.00  0.00    +0.212 HD
ENDBRANCH  28  34
ENDBRANCH  20  24
TORSDOF 3
ENDMDL
MODEL 4
REMARK VINA RESULT:      -8.9      2.062      7.937
REMARK  Name = NuBBE_1523
REMARK  10 active torsions:
REMARK  status: ('A' for Active; 'I' for Inactive)
REMARK    1  A    between atoms: C_1  and  C_2
REMARK    2  A    between atoms: C_7  and  C_8
REMARK    3  A    between atoms: C_12  and  C_13
REMARK    4  A    between atoms: C_12  and  C_14
REMARK    5  A    between atoms: C_19  and  C_36
REMARK    6  A    between atoms: C_20  and  C_22
REMARK    7  A    between atoms: C_25  and  C_26
REMARK    8  A    between atoms: C_27  and  C_28
REMARK    9  A    between atoms: C_27  and  C_29
REMARK   10  A    between atoms: C_32  and  O_33
REMARK                            x       y       z     vdW  Elec       q    Type
REMARK                         _______ _______ _______ _____ _____    ______ ____
ROOT
ATOM      1  C   LIG A   1      -6.785  -3.036 131.841  0.00  0.00    +0.016 C 
ATOM      2  C   LIG A   1      -6.976  -2.236 130.530  0.00  0.00    -0.005 C 
ATOM      3  C   LIG A   1      -7.470  -0.816 130.927  0.00  0.00    -0.063 C 
ATOM      4  C   LIG A   1      -8.685  -0.608 131.479  0.00  0.00    -0.026 C 
ATOM      5  C   LIG A   1      -9.227   0.722 131.913  0.00  0.00    +0.032 C 
ATOM      6  C   LIG A   1      -8.395   1.915 131.405  0.00  0.00    +0.012 C 
ATOM      7  C   LIG A   1      -6.863   1.638 131.604  0.00  0.00    -0.021 C 
ATOM      8  C   LIG A   1      -6.463   1.409 133.081  0.00  0.00    +0.012 C 
ATOM      9  C   LIG A   1      -6.072   2.847 131.036  0.00  0.00    +0.015 C 
ATOM     10  C   LIG A   1      -6.502   4.184 131.614  0.00  0.00    +0.075 C 
ATOM     11  C   LIG A   1      -7.978   4.412 131.393  0.00  0.00    +0.139 C 
ATOM     12  C   LIG A   1      -8.942   3.313 131.867  0.00  0.00    +0.027 C 
ATOM     13  C   LIG A   1     -10.320   3.560 131.201  0.00  0.00    +0.019 C 
ATOM     14  C   LIG A   1      -9.143   3.498 133.380  0.00  0.00    +0.019 C 
ATOM     15  O   LIG A   1      -8.374   5.489 130.947  0.00  0.00    -0.297 OA
ATOM     16  C   LIG A   1      -6.508   0.348 130.748  0.00  0.00    +0.021 C 
ATOM     17  C   LIG A   1      -5.083  -0.160 130.982  0.00  0.00    +0.009 C 
ATOM     18  C   LIG A   1      -4.683  -1.116 129.870  0.00  0.00    +0.008 C 
ATOM     19  C   LIG A   1      -5.697  -2.248 129.564  0.00  0.00    -0.020 C 
ATOM     20  C   LIG A   1      -6.293  -2.280 128.076  0.00  0.00    +0.004 C 
ATOM     21  C   LIG A   1      -7.824  -2.353 128.278  0.00  0.00    +0.005 C 
ATOM     22  C   LIG A   1      -8.022  -2.959 129.654  0.00  0.00    +0.012 C 
ATOM     23  C   LIG A   1      -4.908  -3.587 129.723  0.00  0.00    +0.012 C 
ENDROOT
BRANCH  20  24
ATOM     24  C   LIG A   1      -5.933  -1.187 127.032  0.00  0.00    +0.051 C 
ATOM     25  C   LIG A   1      -7.156  -0.434 126.487  0.00  0.00    +0.043 C 
ATOM     26  C   LIG A   1      -7.293  -0.876 125.041  0.00  0.00    +0.153 C 
ATOM     27  O   LIG A   1      -5.951  -1.125 124.617  0.00  0.00    -0.345 OA
ATOM     28  C   LIG A   1      -5.210  -1.604 125.737  0.00  0.00    +0.251 C 
BRANCH  26  29
ATOM     29  C   LIG A   1      -8.177  -2.084 124.858  0.00  0.00    +0.179 C 
ATOM     30  C   LIG A   1      -8.578  -2.615 123.485  0.00  0.00    +0.093 C 
ATOM     31  C   LIG A   1      -9.829  -3.429 123.354  0.00  0.00    +0.044 C 
ATOM     32  C   LIG A   1      -8.070  -1.979 122.227  0.00  0.00    +0.044 C 
ATOM     33  O   LIG A   1      -7.569  -3.252 124.281  0.00  0.00    -0.363 OA
ENDBRANCH  26  29
BRANCH  28  34
ATOM     34  O   LIG A   1      -5.037  -2.994 125.595  0.00  0.00    -0.367 OA
ATOM     35  H   LIG A   1      -5.335  -3.364 126.448  0.00  0.00    +0.212 HD
ENDBRANCH  28  34
ENDBRANCH  20  24
TORSDOF 3
ENDMDL
MODEL 5
REMARK VINA RESULT:      -8.9      3.848      6.641
REMARK  Name = NuBBE_1523
REMARK  10 active torsions:
REMARK  status: ('A' for Active; 'I' for Inactive)
REMARK    1  A    between atoms: C_1  and  C_2
REMARK    2  A    between atoms: C_7  and  C_8
REMARK    3  A    between atoms: C_12  and  C_13
REMARK    4  A    between atoms: C_12  and  C_14
REMARK    5  A    between atoms: C_19  and  C_36
REMARK    6  A    between atoms: C_20  and  C_22
REMARK    7  A    between atoms: C_25  and  C_26
REMARK    8  A    between atoms: C_27  and  C_28
REMARK    9  A    between atoms: C_27  and  C_29
REMARK   10  A    between atoms: C_32  and  O_33
REMARK                            x       y       z     vdW  Elec       q    Type
REMARK                         _______ _______ _______ _____ _____    ______ ____
ROOT
ATOM      1  C   LIG A   1      -3.699   2.757 127.497  0.00  0.00    +0.016 C 
ATOM      2  C   LIG A   1      -5.064   2.883 128.213  0.00  0.00    -0.005 C 
ATOM      3  C   LIG A   1      -5.431   1.472 128.752  0.00  0.00    -0.063 C 
ATOM      4  C   LIG A   1      -5.721   0.442 127.928  0.00  0.00    -0.026 C 
ATOM      5  C   LIG A   1      -6.058  -0.953 128.365  0.00  0.00    +0.032 C 
ATOM      6  C   LIG A   1      -6.346  -1.067 129.873  0.00  0.00    +0.012 C 
ATOM      7  C   LIG A   1      -5.274  -0.272 130.697  0.00  0.00    -0.021 C 
ATOM      8  C   LIG A   1      -3.827  -0.776 130.478  0.00  0.00    +0.012 C 
ATOM      9  C   LIG A   1      -5.636  -0.382 132.202  0.00  0.00    +0.015 C 
ATOM     10  C   LIG A   1      -5.802  -1.812 132.688  0.00  0.00    +0.075 C 
ATOM     11  C   LIG A   1      -6.848  -2.535 131.875  0.00  0.00    +0.139 C 
ATOM     12  C   LIG A   1      -6.685  -2.526 130.346  0.00  0.00    +0.027 C 
ATOM     13  C   LIG A   1      -8.033  -2.961 129.715  0.00  0.00    +0.019 C 
ATOM     14  C   LIG A   1      -5.658  -3.613 129.986  0.00  0.00    +0.019 C 
ATOM     15  O   LIG A   1      -7.725  -3.187 132.441  0.00  0.00    -0.297 OA
ATOM     16  C   LIG A   1      -5.381   1.249 130.257  0.00  0.00    +0.021 C 
ATOM     17  C   LIG A   1      -4.272   2.129 130.840  0.00  0.00    +0.009 C 
ATOM     18  C   LIG A   1      -4.653   3.595 130.718  0.00  0.00    +0.008 C 
ATOM     19  C   LIG A   1      -5.121   4.050 129.311  0.00  0.00    -0.020 C 
ATOM     20  C   LIG A   1      -6.608   4.643 129.219  0.00  0.00    +0.004 C 
ATOM     21  C   LIG A   1      -7.265   3.853 128.064  0.00  0.00    +0.005 C 
ATOM     22  C   LIG A   1      -6.117   3.376 127.196  0.00  0.00    +0.012 C 
ATOM     23  C   LIG A   1      -4.180   5.228 128.904  0.00  0.00    +0.012 C 
ENDROOT
BRANCH  20  24
ATOM     24  C   LIG A   1      -7.547   4.680 130.457  0.00  0.00    +0.051 C 
ATOM     25  C   LIG A   1      -9.019   4.404 130.117  0.00  0.00    +0.043 C 
ATOM     26  C   LIG A   1      -9.738   5.726 130.322  0.00  0.00    +0.153 C 
ATOM     27  O   LIG A   1      -9.016   6.362 131.378  0.00  0.00    -0.345 OA
ATOM     28  C   LIG A   1      -7.646   5.980 131.277  0.00  0.00    +0.251 C 
BRANCH  26  29
ATOM     29  C   LIG A   1      -9.795   6.582 129.081  0.00  0.00    +0.179 C 
ATOM     30  C   LIG A   1     -10.877   7.634 128.853  0.00  0.00    +0.093 C 
ATOM     31  C   LIG A   1     -11.206   8.050 127.452  0.00  0.00    +0.044 C 
ATOM     32  C   LIG A   1     -11.929   7.905 129.886  0.00  0.00    +0.044 C 
ATOM     33  O   LIG A   1      -9.545   7.987 129.251  0.00  0.00    -0.363 OA
ENDBRANCH  26  29
BRANCH  28  34
ATOM     34  O   LIG A   1      -6.921   7.059 130.737  0.00  0.00    -0.367 OA
ATOM     35  H   LIG A   1      -7.207   7.831 131.262  0.00  0.00    +0.212 HD
ENDBRANCH  28  34
ENDBRANCH  20  24
TORSDOF 3
ENDMDL
MODEL 6
REMARK VINA RESULT:      -8.8      3.356      4.607
REMARK  Name = NuBBE_1523
REMARK  10 active torsions:
REMARK  status: ('A' for Active; 'I' for Inactive)
REMARK    1  A    between atoms: C_1  and  C_2
REMARK    2  A    between atoms: C_7  and  C_8
REMARK    3  A    between atoms: C_12  and  C_13
REMARK    4  A    between atoms: C_12  and  C_14
REMARK    5  A    between atoms: C_19  and  C_36
REMARK    6  A    between atoms: C_20  and  C_22
REMARK    7  A    between atoms: C_25  and  C_26
REMARK    8  A    between atoms: C_27  and  C_28
REMARK    9  A    between atoms: C_27  and  C_29
REMARK   10  A    between atoms: C_32  and  O_33
REMARK                            x       y       z     vdW  Elec       q    Type
REMARK                         _______ _______ _______ _____ _____    ______ ____
ROOT
ATOM      1  C   LIG A   1      -8.545  -0.413 130.499  0.00  0.00    +0.016 C 
ATOM      2  C   LIG A   1      -7.339   0.220 129.766  0.00  0.00    -0.005 C 
ATOM      3  C   LIG A   1      -7.178  -0.530 128.414  0.00  0.00    -0.063 C 
ATOM      4  C   LIG A   1      -6.805  -1.827 128.352  0.00  0.00    -0.026 C 
ATOM      5  C   LIG A   1      -6.653  -2.630 127.094  0.00  0.00    +0.032 C 
ATOM      6  C   LIG A   1      -6.670  -1.770 125.816  0.00  0.00    +0.012 C 
ATOM      7  C   LIG A   1      -7.826  -0.711 125.884  0.00  0.00    -0.021 C 
ATOM      8  C   LIG A   1      -9.233  -1.339 126.020  0.00  0.00    +0.012 C 
ATOM      9  C   LIG A   1      -7.769   0.155 124.597  0.00  0.00    +0.015 C 
ATOM     10  C   LIG A   1      -7.797  -0.656 123.314  0.00  0.00    +0.075 C 
ATOM     11  C   LIG A   1      -6.665  -1.654 123.287  0.00  0.00    +0.139 C 
ATOM     12  C   LIG A   1      -6.528  -2.600 124.490  0.00  0.00    +0.027 C 
ATOM     13  C   LIG A   1      -5.116  -3.239 124.444  0.00  0.00    +0.019 C 
ATOM     14  C   LIG A   1      -7.537  -3.744 124.294  0.00  0.00    +0.019 C 
ATOM     15  O   LIG A   1      -5.959  -1.758 122.283  0.00  0.00    -0.297 OA
ATOM     16  C   LIG A   1      -7.533   0.219 127.138  0.00  0.00    +0.021 C 
ATOM     17  C   LIG A   1      -8.672   1.194 127.448  0.00  0.00    +0.009 C 
ATOM     18  C   LIG A   1      -8.177   2.294 128.372  0.00  0.00    +0.008 C 
ATOM     19  C   LIG A   1      -7.416   1.815 129.636  0.00  0.00    -0.020 C 
ATOM     20  C   LIG A   1      -5.903   2.324 129.785  0.00  0.00    +0.004 C 
ATOM     21  C   LIG A   1      -5.090   1.037 130.053  0.00  0.00    +0.005 C 
ATOM     22  C   LIG A   1      -6.079   0.050 130.643  0.00  0.00    +0.012 C 
ATOM     23  C   LIG A   1      -8.180   2.425 130.854  0.00  0.00    +0.012 C 
ENDROOT
BRANCH  20  24
ATOM     24  C   LIG A   1      -5.220   3.180 128.681  0.00  0.00    +0.051 C 
ATOM     25  C   LIG A   1      -3.688   3.080 128.690  0.00  0.00    +0.043 C 
ATOM     26  C   LIG A   1      -3.195   4.437 129.161  0.00  0.00    +0.153 C 
ATOM     27  O   LIG A   1      -4.175   5.357 128.676  0.00  0.00    -0.345 OA
ATOM     28  C   LIG A   1      -5.442   4.704 128.678  0.00  0.00    +0.251 C 
BRANCH  26  29
ATOM     29  C   LIG A   1      -3.021   4.532 130.657  0.00  0.00    +0.179 C 
ATOM     30  C   LIG A   1      -2.121   5.571 131.319  0.00  0.00    +0.093 C 
ATOM     31  C   LIG A   1      -1.573   5.296 132.686  0.00  0.00    +0.044 C 
ATOM     32  C   LIG A   1      -1.386   6.594 130.507  0.00  0.00    +0.044 C 
ATOM     33  O   LIG A   1      -3.549   5.706 131.297  0.00  0.00    -0.363 OA
ENDBRANCH  26  29
BRANCH  28  34
ATOM     34  O   LIG A   1      -6.188   5.180 129.772  0.00  0.00    -0.367 OA
ATOM     35  H   LIG A   1      -7.098   5.261 129.430  0.00  0.00    +0.212 HD
ENDBRANCH  28  34
ENDBRANCH  20  24
TORSDOF 3
ENDMDL
MODEL 7
REMARK VINA RESULT:      -8.5      3.854      6.286
REMARK  Name = NuBBE_1523
REMARK  10 active torsions:
REMARK  status: ('A' for Active; 'I' for Inactive)
REMARK    1  A    between atoms: C_1  and  C_2
REMARK    2  A    between atoms: C_7  and  C_8
REMARK    3  A    between atoms: C_12  and  C_13
REMARK    4  A    between atoms: C_12  and  C_14
REMARK    5  A    between atoms: C_19  and  C_36
REMARK    6  A    between atoms: C_20  and  C_22
REMARK    7  A    between atoms: C_25  and  C_26
REMARK    8  A    between atoms: C_27  and  C_28
REMARK    9  A    between atoms: C_27  and  C_29
REMARK   10  A    between atoms: C_32  and  O_33
REMARK                            x       y       z     vdW  Elec       q    Type
REMARK                         _______ _______ _______ _____ _____    ______ ____
ROOT
ATOM      1  C   LIG A   1      -9.688   1.012 131.847  0.00  0.00    +0.016 C 
ATOM      2  C   LIG A   1      -8.217   1.437 131.627  0.00  0.00    -0.005 C 
ATOM      3  C   LIG A   1      -7.400   0.141 131.367  0.00  0.00    -0.063 C 
ATOM      4  C   LIG A   1      -7.208  -0.792 132.325  0.00  0.00    -0.026 C 
ATOM      5  C   LIG A   1      -6.457  -2.078 132.149  0.00  0.00    +0.032 C 
ATOM      6  C   LIG A   1      -5.643  -2.136 130.843  0.00  0.00    +0.012 C 
ATOM      7  C   LIG A   1      -6.501  -1.609 129.640  0.00  0.00    -0.021 C 
ATOM      8  C   LIG A   1      -7.794  -2.425 129.399  0.00  0.00    +0.012 C 
ATOM      9  C   LIG A   1      -5.622  -1.647 128.362  0.00  0.00    +0.015 C 
ATOM     10  C   LIG A   1      -5.003  -3.006 128.085  0.00  0.00    +0.075 C 
ATOM     11  C   LIG A   1      -4.181  -3.468 129.263  0.00  0.00    +0.139 C 
ATOM     12  C   LIG A   1      -4.864  -3.485 130.639  0.00  0.00    +0.027 C 
ATOM     13  C   LIG A   1      -3.762  -3.600 131.724  0.00  0.00    +0.019 C 
ATOM     14  C   LIG A   1      -5.702  -4.772 130.723  0.00  0.00    +0.019 C 
ATOM     15  O   LIG A   1      -3.046  -3.911 129.085  0.00  0.00    -0.297 OA
ATOM     16  C   LIG A   1      -6.874  -0.099 129.959  0.00  0.00    +0.021 C 
ATOM     17  C   LIG A   1      -7.867   0.504 128.962  0.00  0.00    +0.009 C 
ATOM     18  C   LIG A   1      -7.868   2.019 129.080  0.00  0.00    +0.008 C 
ATOM     19  C   LIG A   1      -8.025   2.578 130.518  0.00  0.00    -0.020 C 
ATOM     20  C   LIG A   1      -6.822   3.491 131.056  0.00  0.00    +0.004 C 
ATOM     21  C   LIG A   1      -6.461   2.878 132.428  0.00  0.00    +0.005 C 
ATOM     22  C   LIG A   1      -7.713   2.162 132.894  0.00  0.00    +0.012 C 
ATOM     23  C   LIG A   1      -9.273   3.516 130.480  0.00  0.00    +0.012 C 
ENDROOT
BRANCH  20  24
ATOM     24  C   LIG A   1      -5.540   3.729 130.211  0.00  0.00    +0.051 C 
ATOM     25  C   LIG A   1      -4.240   3.493 130.992  0.00  0.00    +0.043 C 
ATOM     26  C   LIG A   1      -3.616   4.867 131.167  0.00  0.00    +0.153 C 
ATOM     27  O   LIG A   1      -4.011   5.587 129.999  0.00  0.00    -0.345 OA
ATOM     28  C   LIG A   1      -5.299   5.123 129.601  0.00  0.00    +0.251 C 
BRANCH  26  29
ATOM     29  C   LIG A   1      -4.041   5.566 132.434  0.00  0.00    +0.179 C 
ATOM     30  C   LIG A   1      -3.241   6.707 133.057  0.00  0.00    +0.093 C 
ATOM     31  C   LIG A   1      -3.388   6.986 134.521  0.00  0.00    +0.044 C 
ATOM     32  C   LIG A   1      -1.994   7.226 132.408  0.00  0.00    +0.044 C 
ATOM     33  O   LIG A   1      -4.443   6.941 132.311  0.00  0.00    -0.363 OA
ENDBRANCH  26  29
BRANCH  28  34
ATOM     34  O   LIG A   1      -6.254   6.088 129.972  0.00  0.00    -0.367 OA
ATOM     35  H   LIG A   1      -7.101   5.733 129.639  0.00  0.00    +0.212 HD
ENDBRANCH  28  34
ENDBRANCH  20  24
TORSDOF 3
ENDMDL
MODEL 8
REMARK VINA RESULT:      -8.4      2.684      4.605
REMARK  Name = NuBBE_1523
REMARK  10 active torsions:
REMARK  status: ('A' for Active; 'I' for Inactive)
REMARK    1  A    between atoms: C_1  and  C_2
REMARK    2  A    between atoms: C_7  and  C_8
REMARK    3  A    between atoms: C_12  and  C_13
REMARK    4  A    between atoms: C_12  and  C_14
REMARK    5  A    between atoms: C_19  and  C_36
REMARK    6  A    between atoms: C_20  and  C_22
REMARK    7  A    between atoms: C_25  and  C_26
REMARK    8  A    between atoms: C_27  and  C_28
REMARK    9  A    between atoms: C_27  and  C_29
REMARK   10  A    between atoms: C_32  and  O_33
REMARK                            x       y       z     vdW  Elec       q    Type
REMARK                         _______ _______ _______ _____ _____    ______ ____
ROOT
ATOM      1  C   LIG A   1      -7.559   4.152 125.854  0.00  0.00    +0.016 C 
ATOM      2  C   LIG A   1      -7.231   3.064 126.904  0.00  0.00    -0.005 C 
ATOM      3  C   LIG A   1      -7.593   1.691 126.270  0.00  0.00    -0.063 C 
ATOM      4  C   LIG A   1      -8.869   1.341 125.996  0.00  0.00    -0.026 C 
ATOM      5  C   LIG A   1      -9.300   0.051 125.363  0.00  0.00    +0.032 C 
ATOM      6  C   LIG A   1      -8.181  -1.006 125.309  0.00  0.00    +0.012 C 
ATOM      7  C   LIG A   1      -6.837  -0.356 124.826  0.00  0.00    -0.021 C 
ATOM      8  C   LIG A   1      -6.927   0.273 123.415  0.00  0.00    +0.012 C 
ATOM      9  C   LIG A   1      -5.737  -1.451 124.833  0.00  0.00    +0.015 C 
ATOM     10  C   LIG A   1      -6.105  -2.692 124.038  0.00  0.00    +0.075 C 
ATOM     11  C   LIG A   1      -7.396  -3.287 124.542  0.00  0.00    +0.139 C 
ATOM     12  C   LIG A   1      -8.616  -2.356 124.634  0.00  0.00    +0.027 C 
ATOM     13  C   LIG A   1      -9.683  -3.044 125.523  0.00  0.00    +0.019 C 
ATOM     14  C   LIG A   1      -9.220  -2.247 123.224  0.00  0.00    +0.019 C 
ATOM     15  O   LIG A   1      -7.473  -4.496 124.761  0.00  0.00    -0.297 OA
ATOM     16  C   LIG A   1      -6.452   0.761 125.885  0.00  0.00    +0.021 C 
ATOM     17  C   LIG A   1      -5.255   1.615 125.458  0.00  0.00    +0.009 C 
ATOM     18  C   LIG A   1      -4.701   2.370 126.655  0.00  0.00    +0.008 C 
ATOM     19  C   LIG A   1      -5.744   3.151 127.494  0.00  0.00    -0.020 C 
ATOM     20  C   LIG A   1      -5.875   2.724 129.034  0.00  0.00    +0.004 C 
ATOM     21  C   LIG A   1      -7.390   2.495 129.240  0.00  0.00    +0.005 C 
ATOM     22  C   LIG A   1      -8.074   3.326 128.171  0.00  0.00    +0.012 C 
ATOM     23  C   LIG A   1      -5.253   4.634 127.517  0.00  0.00    +0.012 C 
ENDROOT
BRANCH  20  24
ATOM     24  C   LIG A   1      -5.060   1.539 129.622  0.00  0.00    +0.051 C 
ATOM     25  C   LIG A   1      -5.937   0.440 130.240  0.00  0.00    +0.043 C 
ATOM     26  C   LIG A   1      -5.695   0.523 131.737  0.00  0.00    +0.153 C 
ATOM     27  O   LIG A   1      -4.341   0.961 131.854  0.00  0.00    -0.345 OA
ATOM     28  C   LIG A   1      -4.051   1.817 130.751  0.00  0.00    +0.251 C 
BRANCH  26  29
ATOM     29  C   LIG A   1      -6.652   1.443 132.454  0.00  0.00    +0.179 C 
ATOM     30  C   LIG A   1      -8.152   1.173 132.537  0.00  0.00    +0.093 C 
ATOM     31  C   LIG A   1      -9.088   2.321 132.763  0.00  0.00    +0.044 C 
ATOM     32  C   LIG A   1      -8.754  -0.062 131.937  0.00  0.00    +0.044 C 
ATOM     33  O   LIG A   1      -7.274   0.931 133.644  0.00  0.00    -0.363 OA
ENDBRANCH  26  29
BRANCH  28  34
ATOM     34  O   LIG A   1      -4.050   3.148 131.208  0.00  0.00    -0.367 OA
ATOM     35  H   LIG A   1      -4.985   3.332 131.422  0.00  0.00    +0.212 HD
ENDBRANCH  28  34
ENDBRANCH  20  24
TORSDOF 3
ENDMDL
MODEL 9
REMARK VINA RESULT:      -8.4      2.749      3.644
REMARK  Name = NuBBE_1523
REMARK  10 active torsions:
REMARK  status: ('A' for Active; 'I' for Inactive)
REMARK    1  A    between atoms: C_1  and  C_2
REMARK    2  A    between atoms: C_7  and  C_8
REMARK    3  A    between atoms: C_12  and  C_13
REMARK    4  A    between atoms: C_12  and  C_14
REMARK    5  A    between atoms: C_19  and  C_36
REMARK    6  A    between atoms: C_20  and  C_22
REMARK    7  A    between atoms: C_25  and  C_26
REMARK    8  A    between atoms: C_27  and  C_28
REMARK    9  A    between atoms: C_27  and  C_29
REMARK   10  A    between atoms: C_32  and  O_33
REMARK                            x       y       z     vdW  Elec       q    Type
REMARK                         _______ _______ _______ _____ _____    ______ ____
ROOT
ATOM      1  C   LIG A   1      -5.827  -2.541 131.389  0.00  0.00    +0.016 C 
ATOM      2  C   LIG A   1      -5.533  -1.262 130.571  0.00  0.00    -0.005 C 
ATOM      3  C   LIG A   1      -5.849  -1.585 129.084  0.00  0.00    -0.063 C 
ATOM      4  C   LIG A   1      -5.115  -2.465 128.369  0.00  0.00    -0.026 C 
ATOM      5  C   LIG A   1      -5.368  -2.852 126.942  0.00  0.00    +0.032 C 
ATOM      6  C   LIG A   1      -6.379  -1.933 126.230  0.00  0.00    +0.012 C 
ATOM      7  C   LIG A   1      -7.617  -1.662 127.155  0.00  0.00    -0.021 C 
ATOM      8  C   LIG A   1      -8.383  -2.946 127.555  0.00  0.00    +0.012 C 
ATOM      9  C   LIG A   1      -8.579  -0.699 126.411  0.00  0.00    +0.015 C 
ATOM     10  C   LIG A   1      -8.979  -1.182 125.028  0.00  0.00    +0.075 C 
ATOM     11  C   LIG A   1      -7.760  -1.421 124.171  0.00  0.00    +0.139 C 
ATOM     12  C   LIG A   1      -6.665  -2.337 124.740  0.00  0.00    +0.027 C 
ATOM     13  C   LIG A   1      -5.377  -2.126 123.904  0.00  0.00    +0.019 C 
ATOM     14  C   LIG A   1      -7.111  -3.790 124.503  0.00  0.00    +0.019 C 
ATOM     15  O   LIG A   1      -7.717  -0.975 123.024  0.00  0.00    -0.297 OA
ATOM     16  C   LIG A   1      -7.076  -0.936 128.459  0.00  0.00    +0.021 C 
ATOM     17  C   LIG A   1      -8.141  -0.766 129.545  0.00  0.00    +0.009 C 
ATOM     18  C   LIG A   1      -7.683   0.263 130.566  0.00  0.00    +0.008 C 
ATOM     19  C   LIG A   1      -6.255   0.054 131.133  0.00  0.00    -0.020 C 
ATOM     20  C   LIG A   1      -5.214   1.247 130.881  0.00  0.00    +0.004 C 
ATOM     21  C   LIG A   1      -3.974   0.551 130.276  0.00  0.00    +0.005 C 
ATOM     22  C   LIG A   1      -4.045  -0.888 130.750  0.00  0.00    +0.012 C 
ATOM     23  C   LIG A   1      -6.418  -0.033 132.684  0.00  0.00    +0.012 C 
ENDROOT
BRANCH  20  24
ATOM     24  C   LIG A   1      -5.598   2.500 130.046  0.00  0.00    +0.051 C 
ATOM     25  C   LIG A   1      -4.403   3.150 129.334  0.00  0.00    +0.043 C 
ATOM     26  C   LIG A   1      -4.179   4.474 130.044  0.00  0.00    +0.153 C 
ATOM     27  O   LIG A   1      -5.484   4.876 130.465  0.00  0.00    -0.345 OA
ATOM     28  C   LIG A   1      -6.240   3.703 130.761  0.00  0.00    +0.251 C 
BRANCH  26  29
ATOM     29  C   LIG A   1      -3.215   4.384 131.201  0.00  0.00    +0.179 C 
ATOM     30  C   LIG A   1      -2.402   5.578 131.694  0.00  0.00    +0.093 C 
ATOM     31  C   LIG A   1      -1.125   5.334 132.437  0.00  0.00    +0.044 C 
ATOM     32  C   LIG A   1      -2.556   6.933 131.072  0.00  0.00    +0.044 C 
ATOM     33  O   LIG A   1      -3.563   5.108 132.393  0.00  0.00    -0.363 OA
ENDBRANCH  26  29
BRANCH  28  34
ATOM     34  O   LIG A   1      -6.320   3.567 132.159  0.00  0.00    -0.367 OA
ATOM     35  H   LIG A   1      -6.572   2.634 132.299  0.00  0.00    +0.212 HD
ENDBRANCH  28  34
ENDBRANCH  20  24
TORSDOF 3
ENDMDL
