MODEL 1
REMARK VINA RESULT:      -7.1      0.000      0.000
REMARK  Name = NuBBE_6
REMARK  12 active torsions:
REMARK  status: ('A' for Active; 'I' for Inactive)
REMARK    1  A    between atoms: O_1  and  C_2
REMARK    2  A    between atoms: C_5  and  O_6
REMARK    3  A    between atoms: C_5  and  C_7
REMARK    4  A    between atoms: C_7  and  O_8
REMARK    5  A    between atoms: O_8  and  C_9
REMARK    6  A    between atoms: C_12  and  O_14
REMARK    7  A    between atoms: C_15  and  O_17
REMARK    8  A    between atoms: O_17  and  C_18
REMARK    9  A    between atoms: C_18  and  C_19
REMARK   10  A    between atoms: C_20  and  C_21
REMARK   11  A    between atoms: C_23  and  O_24
REMARK   12  A    between atoms: C_25  and  O_26
REMARK                            x       y       z     vdW  Elec       q    Type
REMARK                         _______ _______ _______ _____ _____    ______ ____
ROOT
ATOM      1  C   LIG A   1      -6.603  -0.594 126.048  0.00  0.00    +0.161 C 
ATOM      2  C   LIG A   1      -5.920  -1.081 124.769  0.00  0.00    +0.081 C 
ATOM      3  C   LIG A   1      -6.903  -1.371 123.627  0.00  0.00    +0.167 C 
ATOM      4  C   LIG A   1      -7.908  -0.224 123.414  0.00  0.00    +0.081 C 
ATOM      5  C   LIG A   1      -8.580   0.245 124.704  0.00  0.00    +0.161 C 
ATOM      6  C   LIG A   1      -7.561   0.581 125.804  0.00  0.00    +0.234 C 
ENDROOT
BRANCH   1   7
ATOM      7  O   LIG A   1      -5.586  -0.208 126.981  0.00  0.00    -0.388 OA
ATOM      8  H   LIG A   1      -4.798  -0.747 126.782  0.00  0.00    +0.210 HD
ENDBRANCH   1   7
BRANCH   3   9
ATOM      9  O   LIG A   1      -6.115  -1.463 122.421  0.00  0.00    -0.377 OA
ATOM     10  H   LIG A   1      -6.403  -2.266 121.947  0.00  0.00    +0.211 HD
ENDBRANCH   3   9
BRANCH   3  11
ATOM     11  C   LIG A   1      -7.650  -2.717 123.781  0.00  0.00    +0.339 C 
ATOM     12  O   LIG A   1      -7.318  -3.572 124.598  0.00  0.00    -0.248 OA
BRANCH  11  13
ATOM     13  O   LIG A   1      -8.721  -2.804 122.953  0.00  0.00    -0.466 OA
ATOM     14  C   LIG A   1      -9.804  -3.614 123.401  0.00  0.00    +0.280 C 
ENDBRANCH  11  13
ENDBRANCH   3  11
BRANCH   5  15
ATOM     15  O   LIG A   1      -9.467  -0.772 125.161  0.00  0.00    -0.388 OA
ATOM     16  H   LIG A   1      -9.946  -1.116 124.384  0.00  0.00    +0.210 HD
ENDBRANCH   5  15
BRANCH   6  17
ATOM     17  O   LIG A   1      -6.767   1.723 125.421  0.00  0.00    -0.453 OA
BRANCH  17  18
ATOM     18  C   LIG A   1      -7.454   2.880 125.320  0.00  0.00    +0.332 C 
ATOM     19  O   LIG A   1      -8.264   3.321 126.133  0.00  0.00    -0.246 OA
BRANCH  18  20
ATOM     20  C   LIG A   1      -7.172   3.573 124.058  0.00  0.00    +0.092 C 
ATOM     21  C   LIG A   1      -6.398   3.085 123.077  0.00  0.00    +0.015 C 
BRANCH  21  22
ATOM     22  C   LIG A   1      -6.212   3.792 121.805  0.00  0.00    -0.021 A 
ATOM     23  C   LIG A   1      -7.189   3.736 120.798  0.00  0.00    +0.057 A 
ATOM     24  C   LIG A   1      -6.997   4.426 119.610  0.00  0.00    +0.159 A 
ATOM     25  C   LIG A   1      -5.829   5.148 119.400  0.00  0.00    +0.158 A 
ATOM     26  C   LIG A   1      -4.833   5.185 120.365  0.00  0.00    +0.050 A 
ATOM     27  C   LIG A   1      -5.023   4.502 121.570  0.00  0.00    +0.012 A 
BRANCH  24  28
ATOM     28  O   LIG A   1      -7.941   4.423 118.620  0.00  0.00    -0.503 OA
ATOM     29  H   LIG A   1      -8.730   4.886 118.951  0.00  0.00    +0.292 HD
ENDBRANCH  24  28
BRANCH  25  30
ATOM     30  O   LIG A   1      -5.657   5.830 118.231  0.00  0.00    -0.503 OA
ATOM     31  H   LIG A   1      -4.803   5.504 117.884  0.00  0.00    +0.292 HD
ENDBRANCH  25  30
ENDBRANCH  21  22
ENDBRANCH  18  20
ENDBRANCH  17  18
ENDBRANCH   6  17
TORSDOF 11
ENDMDL
MODEL 2
REMARK VINA RESULT:      -6.8      1.429      2.194
REMARK  Name = NuBBE_6
REMARK  12 active torsions:
REMARK  status: ('A' for Active; 'I' for Inactive)
REMARK    1  A    between atoms: O_1  and  C_2
REMARK    2  A    between atoms: C_5  and  O_6
REMARK    3  A    between atoms: C_5  and  C_7
REMARK    4  A    between atoms: C_7  and  O_8
REMARK    5  A    between atoms: O_8  and  C_9
REMARK    6  A    between atoms: C_12  and  O_14
REMARK    7  A    between atoms: C_15  and  O_17
REMARK    8  A    between atoms: O_17  and  C_18
REMARK    9  A    between atoms: C_18  and  C_19
REMARK   10  A    between atoms: C_20  and  C_21
REMARK   11  A    between atoms: C_23  and  O_24
REMARK   12  A    between atoms: C_25  and  O_26
REMARK                            x       y       z     vdW  Elec       q    Type
REMARK                         _______ _______ _______ _____ _____    ______ ____
ROOT
ATOM      1  C   LIG A   1      -6.999  -0.197 125.161  0.00  0.00    +0.161 C 
ATOM      2  C   LIG A   1      -6.344  -0.762 123.899  0.00  0.00    +0.081 C 
ATOM      3  C   LIG A   1      -7.003  -2.054 123.399  0.00  0.00    +0.167 C 
ATOM      4  C   LIG A   1      -8.536  -1.937 123.322  0.00  0.00    +0.081 C 
ATOM      5  C   LIG A   1      -9.170  -1.373 124.592  0.00  0.00    +0.161 C 
ATOM      6  C   LIG A   1      -8.522  -0.050 125.029  0.00  0.00    +0.234 C 
ENDROOT
BRANCH   1   7
ATOM      7  O   LIG A   1      -6.408   1.079 125.439  0.00  0.00    -0.388 OA
ATOM      8  H   LIG A   1      -6.490   1.228 126.399  0.00  0.00    +0.210 HD
ENDBRANCH   1   7
BRANCH   3   9
ATOM      9  O   LIG A   1      -6.533  -2.258 122.049  0.00  0.00    -0.377 OA
ATOM     10  H   LIG A   1      -6.877  -3.122 121.750  0.00  0.00    +0.211 HD
ENDBRANCH   3   9
BRANCH   3  11
ATOM     11  C   LIG A   1      -6.601  -3.308 124.212  0.00  0.00    +0.339 C 
ATOM     12  O   LIG A   1      -7.391  -4.210 124.477  0.00  0.00    -0.248 OA
BRANCH  11  13
ATOM     13  O   LIG A   1      -5.285  -3.303 124.541  0.00  0.00    -0.466 OA
ATOM     14  C   LIG A   1      -4.462  -4.257 123.877  0.00  0.00    +0.280 C 
ENDBRANCH  11  13
ENDBRANCH   3  11
BRANCH   5  15
ATOM     15  O   LIG A   1      -9.053  -2.335 125.636  0.00  0.00    -0.388 OA
ATOM     16  H   LIG A   1      -9.540  -1.993 126.409  0.00  0.00    +0.210 HD
ENDBRANCH   5  15
BRANCH   6  17
ATOM     17  O   LIG A   1      -8.781   0.982 124.055  0.00  0.00    -0.453 OA
BRANCH  17  18
ATOM     18  C   LIG A   1      -8.626   2.242 124.512  0.00  0.00    +0.332 C 
ATOM     19  O   LIG A   1      -8.975   2.667 125.611  0.00  0.00    -0.246 OA
BRANCH  18  20
ATOM     20  C   LIG A   1      -8.022   3.118 123.502  0.00  0.00    +0.092 C 
ATOM     21  C   LIG A   1      -7.228   2.697 122.505  0.00  0.00    +0.015 C 
BRANCH  21  22
ATOM     22  C   LIG A   1      -6.712   3.612 121.480  0.00  0.00    -0.021 A 
ATOM     23  C   LIG A   1      -5.579   4.405 121.724  0.00  0.00    +0.057 A 
ATOM     24  C   LIG A   1      -5.102   5.251 120.734  0.00  0.00    +0.159 A 
ATOM     25  C   LIG A   1      -5.757   5.339 119.512  0.00  0.00    +0.158 A 
ATOM     26  C   LIG A   1      -6.900   4.595 119.264  0.00  0.00    +0.050 A 
ATOM     27  C   LIG A   1      -7.382   3.731 120.252  0.00  0.00    +0.012 A 
BRANCH  24  28
ATOM     28  O   LIG A   1      -3.981   6.013 120.923  0.00  0.00    -0.503 OA
ATOM     29  H   LIG A   1      -3.671   6.317 120.053  0.00  0.00    +0.292 HD
ENDBRANCH  24  28
BRANCH  25  30
ATOM     30  O   LIG A   1      -5.271   6.167 118.543  0.00  0.00    -0.503 OA
ATOM     31  H   LIG A   1      -6.013   6.265 117.913  0.00  0.00    +0.292 HD
ENDBRANCH  25  30
ENDBRANCH  21  22
ENDBRANCH  18  20
ENDBRANCH  17  18
ENDBRANCH   6  17
TORSDOF 11
ENDMDL
MODEL 3
REMARK VINA RESULT:      -6.6      3.181      8.288
REMARK  Name = NuBBE_6
REMARK  12 active torsions:
REMARK  status: ('A' for Active; 'I' for Inactive)
REMARK    1  A    between atoms: O_1  and  C_2
REMARK    2  A    between atoms: C_5  and  O_6
REMARK    3  A    between atoms: C_5  and  C_7
REMARK    4  A    between atoms: C_7  and  O_8
REMARK    5  A    between atoms: O_8  and  C_9
REMARK    6  A    between atoms: C_12  and  O_14
REMARK    7  A    between atoms: C_15  and  O_17
REMARK    8  A    between atoms: O_17  and  C_18
REMARK    9  A    between atoms: C_18  and  C_19
REMARK   10  A    between atoms: C_20  and  C_21
REMARK   11  A    between atoms: C_23  and  O_24
REMARK   12  A    between atoms: C_25  and  O_26
REMARK                            x       y       z     vdW  Elec       q    Type
REMARK                         _______ _______ _______ _____ _____    ______ ____
ROOT
ATOM      1  C   LIG A   1      -7.304  -0.019 123.597  0.00  0.00    +0.161 C 
ATOM      2  C   LIG A   1      -6.849   1.340 124.131  0.00  0.00    +0.081 C 
ATOM      3  C   LIG A   1      -7.880   2.456 123.912  0.00  0.00    +0.167 C 
ATOM      4  C   LIG A   1      -9.295   2.040 124.353  0.00  0.00    +0.081 C 
ATOM      5  C   LIG A   1      -9.730   0.681 123.808  0.00  0.00    +0.161 C 
ATOM      6  C   LIG A   1      -8.699  -0.422 124.097  0.00  0.00    +0.234 C 
ENDROOT
BRANCH   1   7
ATOM      7  O   LIG A   1      -6.341  -1.002 123.996  0.00  0.00    -0.388 OA
ATOM      8  H   LIG A   1      -6.437  -1.758 123.389  0.00  0.00    +0.210 HD
ENDBRANCH   1   7
BRANCH   3   9
ATOM      9  O   LIG A   1      -7.484   3.553 124.763  0.00  0.00    -0.377 OA
ATOM     10  H   LIG A   1      -6.508   3.574 124.772  0.00  0.00    +0.211 HD
ENDBRANCH   3   9
BRANCH   3  11
ATOM     11  C   LIG A   1      -7.907   2.995 122.462  0.00  0.00    +0.339 C 
ATOM     12  O   LIG A   1      -8.931   3.415 121.928  0.00  0.00    -0.248 OA
BRANCH  11  13
ATOM     13  O   LIG A   1      -6.677   2.990 121.892  0.00  0.00    -0.466 OA
ATOM     14  C   LIG A   1      -6.506   3.819 120.746  0.00  0.00    +0.280 C 
ENDBRANCH  11  13
ENDBRANCH   3  11
BRANCH   5  15
ATOM     15  O   LIG A   1      -9.937   0.790 122.403  0.00  0.00    -0.388 OA
ATOM     16  H   LIG A   1      -9.383   0.115 121.969  0.00  0.00    +0.210 HD
ENDBRANCH   5  15
BRANCH   6  17
ATOM     17  O   LIG A   1      -8.605  -0.661 125.517  0.00  0.00    -0.453 OA
BRANCH  17  18
ATOM     18  C   LIG A   1      -8.999  -1.890 125.910  0.00  0.00    +0.332 C 
ATOM     19  O   LIG A   1      -9.998  -2.493 125.525  0.00  0.00    -0.246 OA
BRANCH  18  20
ATOM     20  C   LIG A   1      -8.108  -2.446 126.934  0.00  0.00    +0.092 C 
ATOM     21  C   LIG A   1      -6.958  -1.880 127.333  0.00  0.00    +0.015 C 
BRANCH  21  22
ATOM     22  C   LIG A   1      -6.145  -2.446 128.415  0.00  0.00    -0.021 A 
ATOM     23  C   LIG A   1      -4.758  -2.232 128.464  0.00  0.00    +0.057 A 
ATOM     24  C   LIG A   1      -4.013  -2.765 129.505  0.00  0.00    +0.159 A 
ATOM     25  C   LIG A   1      -4.628  -3.536 130.484  0.00  0.00    +0.158 A 
ATOM     26  C   LIG A   1      -5.989  -3.794 130.434  0.00  0.00    +0.050 A 
ATOM     27  C   LIG A   1      -6.750  -3.251 129.393  0.00  0.00    +0.012 A 
BRANCH  24  28
ATOM     28  O   LIG A   1      -2.666  -2.548 129.606  0.00  0.00    -0.503 OA
ATOM     29  H   LIG A   1      -2.480  -1.646 129.293  0.00  0.00    +0.292 HD
ENDBRANCH  24  28
BRANCH  25  30
ATOM     30  O   LIG A   1      -3.885  -4.045 131.509  0.00  0.00    -0.503 OA
ATOM     31  H   LIG A   1      -4.339  -4.879 131.745  0.00  0.00    +0.292 HD
ENDBRANCH  25  30
ENDBRANCH  21  22
ENDBRANCH  18  20
ENDBRANCH  17  18
ENDBRANCH   6  17
TORSDOF 11
ENDMDL
MODEL 4
REMARK VINA RESULT:      -6.4      3.680      8.857
REMARK  Name = NuBBE_6
REMARK  12 active torsions:
REMARK  status: ('A' for Active; 'I' for Inactive)
REMARK    1  A    between atoms: O_1  and  C_2
REMARK    2  A    between atoms: C_5  and  O_6
REMARK    3  A    between atoms: C_5  and  C_7
REMARK    4  A    between atoms: C_7  and  O_8
REMARK    5  A    between atoms: O_8  and  C_9
REMARK    6  A    between atoms: C_12  and  O_14
REMARK    7  A    between atoms: C_15  and  O_17
REMARK    8  A    between atoms: O_17  and  C_18
REMARK    9  A    between atoms: C_18  and  C_19
REMARK   10  A    between atoms: C_20  and  C_21
REMARK   11  A    between atoms: C_23  and  O_24
REMARK   12  A    between atoms: C_25  and  O_26
REMARK                            x       y       z     vdW  Elec       q    Type
REMARK                         _______ _______ _______ _____ _____    ______ ____
ROOT
ATOM      1  C   LIG A   1      -7.970  -0.279 123.653  0.00  0.00    +0.161 C 
ATOM      2  C   LIG A   1      -6.899   0.617 124.279  0.00  0.00    +0.081 C 
ATOM      3  C   LIG A   1      -7.475   1.703 125.197  0.00  0.00    +0.167 C 
ATOM      4  C   LIG A   1      -8.498   1.140 126.200  0.00  0.00    +0.081 C 
ATOM      5  C   LIG A   1      -9.560   0.250 125.555  0.00  0.00    +0.161 C 
ATOM      6  C   LIG A   1      -8.943  -0.860 124.690  0.00  0.00    +0.234 C 
ENDROOT
BRANCH   1   7
ATOM      7  O   LIG A   1      -7.312  -1.342 122.952  0.00  0.00    -0.388 OA
ATOM      8  H   LIG A   1      -7.914  -1.629 122.242  0.00  0.00    +0.210 HD
ENDBRANCH   1   7
BRANCH   3   9
ATOM      9  O   LIG A   1      -6.369   2.213 125.972  0.00  0.00    -0.377 OA
ATOM     10  H   LIG A   1      -5.578   1.698 125.722  0.00  0.00    +0.211 HD
ENDBRANCH   3   9
BRANCH   3  11
ATOM     11  C   LIG A   1      -8.080   2.903 124.430  0.00  0.00    +0.339 C 
ATOM     12  O   LIG A   1      -8.892   3.674 124.936  0.00  0.00    -0.248 OA
BRANCH  11  13
ATOM     13  O   LIG A   1      -7.573   3.017 123.178  0.00  0.00    -0.466 OA
ATOM     14  C   LIG A   1      -8.519   3.141 122.120  0.00  0.00    +0.280 C 
ENDBRANCH  11  13
ENDBRANCH   3  11
BRANCH   5  15
ATOM     15  O   LIG A   1     -10.421   1.059 124.759  0.00  0.00    -0.388 OA
ATOM     16  H   LIG A   1     -10.466   1.940 125.176  0.00  0.00    +0.210 HD
ENDBRANCH   5  15
BRANCH   6  17
ATOM     17  O   LIG A   1      -8.205  -1.787 125.514  0.00  0.00    -0.453 OA
BRANCH  17  18
ATOM     18  C   LIG A   1      -8.963  -2.706 126.148  0.00  0.00    +0.332 C 
ATOM     19  O   LIG A   1      -9.999  -3.213 125.726  0.00  0.00    -0.246 OA
BRANCH  18  20
ATOM     20  C   LIG A   1      -8.436  -3.020 127.481  0.00  0.00    +0.092 C 
ATOM     21  C   LIG A   1      -7.893  -2.122 128.317  0.00  0.00    +0.015 C 
BRANCH  21  22
ATOM     22  C   LIG A   1      -7.451  -2.483 129.669  0.00  0.00    -0.021 A 
ATOM     23  C   LIG A   1      -7.834  -1.718 130.783  0.00  0.00    +0.057 A 
ATOM     24  C   LIG A   1      -7.415  -2.088 132.052  0.00  0.00    +0.159 A 
ATOM     25  C   LIG A   1      -6.594  -3.195 132.224  0.00  0.00    +0.158 A 
ATOM     26  C   LIG A   1      -6.171  -3.942 131.135  0.00  0.00    +0.050 A 
ATOM     27  C   LIG A   1      -6.598  -3.582 129.852  0.00  0.00    +0.012 A 
BRANCH  24  28
ATOM     28  O   LIG A   1      -7.797  -1.387 133.164  0.00  0.00    -0.503 OA
ATOM     29  H   LIG A   1      -7.968  -0.467 132.899  0.00  0.00    +0.292 HD
ENDBRANCH  24  28
BRANCH  25  30
ATOM     30  O   LIG A   1      -6.198  -3.554 133.479  0.00  0.00    -0.503 OA
ATOM     31  H   LIG A   1      -5.241  -3.738 133.388  0.00  0.00    +0.292 HD
ENDBRANCH  25  30
ENDBRANCH  21  22
ENDBRANCH  18  20
ENDBRANCH  17  18
ENDBRANCH   6  17
TORSDOF 11
ENDMDL
MODEL 5
REMARK VINA RESULT:      -6.4      7.412     11.026
REMARK  Name = NuBBE_6
REMARK  12 active torsions:
REMARK  status: ('A' for Active; 'I' for Inactive)
REMARK    1  A    between atoms: O_1  and  C_2
REMARK    2  A    between atoms: C_5  and  O_6
REMARK    3  A    between atoms: C_5  and  C_7
REMARK    4  A    between atoms: C_7  and  O_8
REMARK    5  A    between atoms: O_8  and  C_9
REMARK    6  A    between atoms: C_12  and  O_14
REMARK    7  A    between atoms: C_15  and  O_17
REMARK    8  A    between atoms: O_17  and  C_18
REMARK    9  A    between atoms: C_18  and  C_19
REMARK   10  A    between atoms: C_20  and  C_21
REMARK   11  A    between atoms: C_23  and  O_24
REMARK   12  A    between atoms: C_25  and  O_26
REMARK                            x       y       z     vdW  Elec       q    Type
REMARK                         _______ _______ _______ _____ _____    ______ ____
ROOT
ATOM      1  C   LIG A   1      -9.388   6.197 132.106  0.00  0.00    +0.161 C 
ATOM      2  C   LIG A   1     -10.749   6.022 131.429  0.00  0.00    +0.081 C 
ATOM      3  C   LIG A   1     -10.647   5.558 129.971  0.00  0.00    +0.167 C 
ATOM      4  C   LIG A   1      -9.695   4.359 129.803  0.00  0.00    +0.081 C 
ATOM      5  C   LIG A   1      -8.341   4.555 130.485  0.00  0.00    +0.161 C 
ATOM      6  C   LIG A   1      -8.484   4.963 131.959  0.00  0.00    +0.234 C 
ENDROOT
BRANCH   1   7
ATOM      7  O   LIG A   1      -9.610   6.475 133.495  0.00  0.00    -0.388 OA
ATOM      8  H   LIG A   1      -9.911   5.645 133.907  0.00  0.00    +0.210 HD
ENDBRANCH   1   7
BRANCH   3   9
ATOM      9  O   LIG A   1     -11.963   5.099 129.594  0.00  0.00    -0.377 OA
ATOM     10  H   LIG A   1     -12.185   5.525 128.744  0.00  0.00    +0.211 HD
ENDBRANCH   3   9
BRANCH   3  11
ATOM     11  C   LIG A   1     -10.264   6.689 128.987  0.00  0.00    +0.339 C 
ATOM     12  O   LIG A   1      -9.705   6.476 127.914  0.00  0.00    -0.248 OA
BRANCH  11  13
ATOM     13  O   LIG A   1     -10.660   7.907 129.431  0.00  0.00    -0.466 OA
ATOM     14  C   LIG A   1     -11.610   8.597 128.625  0.00  0.00    +0.280 C 
ENDBRANCH  11  13
ENDBRANCH   3  11
BRANCH   5  15
ATOM     15  O   LIG A   1      -7.606   5.549 129.778  0.00  0.00    -0.388 OA
ATOM     16  H   LIG A   1      -8.250   6.154 129.365  0.00  0.00    +0.210 HD
ENDBRANCH   5  15
BRANCH   6  17
ATOM     17  O   LIG A   1      -9.076   3.891 132.722  0.00  0.00    -0.453 OA
BRANCH  17  18
ATOM     18  C   LIG A   1      -8.224   3.247 133.546  0.00  0.00    +0.332 C 
ATOM     19  O   LIG A   1      -7.740   3.689 134.585  0.00  0.00    -0.246 OA
BRANCH  18  20
ATOM     20  C   LIG A   1      -7.866   1.921 133.031  0.00  0.00    +0.092 C 
ATOM     21  C   LIG A   1      -8.655   1.169 132.248  0.00  0.00    +0.015 C 
BRANCH  21  22
ATOM     22  C   LIG A   1      -8.212  -0.120 131.703  0.00  0.00    -0.021 A 
ATOM     23  C   LIG A   1      -7.851  -1.178 132.553  0.00  0.00    +0.057 A 
ATOM     24  C   LIG A   1      -7.450  -2.391 132.014  0.00  0.00    +0.159 A 
ATOM     25  C   LIG A   1      -7.374  -2.555 130.636  0.00  0.00    +0.158 A 
ATOM     26  C   LIG A   1      -7.688  -1.511 129.779  0.00  0.00    +0.050 A 
ATOM     27  C   LIG A   1      -8.104  -0.288 130.313  0.00  0.00    +0.012 A 
BRANCH  24  28
ATOM     28  O   LIG A   1      -7.124  -3.455 132.810  0.00  0.00    -0.503 OA
ATOM     29  H   LIG A   1      -6.969  -4.226 132.238  0.00  0.00    +0.292 HD
ENDBRANCH  24  28
BRANCH  25  30
ATOM     30  O   LIG A   1      -6.988  -3.757 130.119  0.00  0.00    -0.503 OA
ATOM     31  H   LIG A   1      -6.961  -4.355 130.892  0.00  0.00    +0.292 HD
ENDBRANCH  25  30
ENDBRANCH  21  22
ENDBRANCH  18  20
ENDBRANCH  17  18
ENDBRANCH   6  17
TORSDOF 11
ENDMDL
MODEL 6
REMARK VINA RESULT:      -6.4      6.744      9.482
REMARK  Name = NuBBE_6
REMARK  12 active torsions:
REMARK  status: ('A' for Active; 'I' for Inactive)
REMARK    1  A    between atoms: O_1  and  C_2
REMARK    2  A    between atoms: C_5  and  O_6
REMARK    3  A    between atoms: C_5  and  C_7
REMARK    4  A    between atoms: C_7  and  O_8
REMARK    5  A    between atoms: O_8  and  C_9
REMARK    6  A    between atoms: C_12  and  O_14
REMARK    7  A    between atoms: C_15  and  O_17
REMARK    8  A    between atoms: O_17  and  C_18
REMARK    9  A    between atoms: C_18  and  C_19
REMARK   10  A    between atoms: C_20  and  C_21
REMARK   11  A    between atoms: C_23  and  O_24
REMARK   12  A    between atoms: C_25  and  O_26
REMARK                            x       y       z     vdW  Elec       q    Type
REMARK                         _______ _______ _______ _____ _____    ______ ____
ROOT
ATOM      1  C   LIG A   1      -9.315   6.193 132.682  0.00  0.00    +0.161 C 
ATOM      2  C   LIG A   1     -10.177   4.962 132.401  0.00  0.00    +0.081 C 
ATOM      3  C   LIG A   1     -10.479   4.757 130.910  0.00  0.00    +0.167 C 
ATOM      4  C   LIG A   1      -9.215   4.861 130.038  0.00  0.00    +0.081 C 
ATOM      5  C   LIG A   1      -8.369   6.099 130.333  0.00  0.00    +0.161 C 
ATOM      6  C   LIG A   1      -8.039   6.237 131.827  0.00  0.00    +0.234 C 
ENDROOT
BRANCH   1   7
ATOM      7  O   LIG A   1      -8.969   6.191 134.073  0.00  0.00    -0.388 OA
ATOM      8  H   LIG A   1      -9.744   5.852 134.558  0.00  0.00    +0.210 HD
ENDBRANCH   1   7
BRANCH   3   9
ATOM      9  O   LIG A   1     -10.970   3.407 130.773  0.00  0.00    -0.377 OA
ATOM     10  H   LIG A   1     -11.544   3.387 129.983  0.00  0.00    +0.211 HD
ENDBRANCH   3   9
BRANCH   3  11
ATOM     11  C   LIG A   1     -11.583   5.697 130.369  0.00  0.00    +0.339 C 
ATOM     12  O   LIG A   1     -11.748   5.907 129.170  0.00  0.00    -0.248 OA
BRANCH  11  13
ATOM     13  O   LIG A   1     -12.353   6.205 131.363  0.00  0.00    -0.466 OA
ATOM     14  C   LIG A   1     -12.840   7.531 131.172  0.00  0.00    +0.280 C 
ENDBRANCH  11  13
ENDBRANCH   3  11
BRANCH   5  15
ATOM     15  O   LIG A   1      -9.068   7.255 129.884  0.00  0.00    -0.388 OA
ATOM     16  H   LIG A   1      -8.405   7.890 129.551  0.00  0.00    +0.210 HD
ENDBRANCH   5  15
BRANCH   6  17
ATOM     17  O   LIG A   1      -7.186   5.155 132.255  0.00  0.00    -0.453 OA
BRANCH  17  18
ATOM     18  C   LIG A   1      -5.917   5.516 132.541  0.00  0.00    +0.332 C 
ATOM     19  O   LIG A   1      -5.522   6.030 133.584  0.00  0.00    -0.246 OA
BRANCH  18  20
ATOM     20  C   LIG A   1      -5.015   5.275 131.409  0.00  0.00    +0.092 C 
ATOM     21  C   LIG A   1      -5.090   4.218 130.586  0.00  0.00    +0.015 C 
BRANCH  21  22
ATOM     22  C   LIG A   1      -4.205   4.069 129.425  0.00  0.00    -0.021 A 
ATOM     23  C   LIG A   1      -4.329   2.971 128.558  0.00  0.00    +0.057 A 
ATOM     24  C   LIG A   1      -3.491   2.860 127.459  0.00  0.00    +0.159 A 
ATOM     25  C   LIG A   1      -2.507   3.814 127.229  0.00  0.00    +0.158 A 
ATOM     26  C   LIG A   1      -2.340   4.885 128.094  0.00  0.00    +0.050 A 
ATOM     27  C   LIG A   1      -3.189   5.010 129.198  0.00  0.00    +0.012 A 
BRANCH  24  28
ATOM     28  O   LIG A   1      -3.606   1.824 126.573  0.00  0.00    -0.503 OA
ATOM     29  H   LIG A   1      -4.544   1.730 126.336  0.00  0.00    +0.292 HD
ENDBRANCH  24  28
BRANCH  25  30
ATOM     30  O   LIG A   1      -1.696   3.699 126.138  0.00  0.00    -0.503 OA
ATOM     31  H   LIG A   1      -1.421   2.760 126.139  0.00  0.00    +0.292 HD
ENDBRANCH  25  30
ENDBRANCH  21  22
ENDBRANCH  18  20
ENDBRANCH  17  18
ENDBRANCH   6  17
TORSDOF 11
ENDMDL
MODEL 7
REMARK VINA RESULT:      -6.3      2.871      8.322
REMARK  Name = NuBBE_6
REMARK  12 active torsions:
REMARK  status: ('A' for Active; 'I' for Inactive)
REMARK    1  A    between atoms: O_1  and  C_2
REMARK    2  A    between atoms: C_5  and  O_6
REMARK    3  A    between atoms: C_5  and  C_7
REMARK    4  A    between atoms: C_7  and  O_8
REMARK    5  A    between atoms: O_8  and  C_9
REMARK    6  A    between atoms: C_12  and  O_14
REMARK    7  A    between atoms: C_15  and  O_17
REMARK    8  A    between atoms: O_17  and  C_18
REMARK    9  A    between atoms: C_18  and  C_19
REMARK   10  A    between atoms: C_20  and  C_21
REMARK   11  A    between atoms: C_23  and  O_24
REMARK   12  A    between atoms: C_25  and  O_26
REMARK                            x       y       z     vdW  Elec       q    Type
REMARK                         _______ _______ _______ _____ _____    ______ ____
ROOT
ATOM      1  C   LIG A   1      -9.377   0.944 125.371  0.00  0.00    +0.161 C 
ATOM      2  C   LIG A   1      -9.708   1.807 124.153  0.00  0.00    +0.081 C 
ATOM      3  C   LIG A   1      -8.477   2.483 123.535  0.00  0.00    +0.167 C 
ATOM      4  C   LIG A   1      -7.315   1.497 123.318  0.00  0.00    +0.081 C 
ATOM      5  C   LIG A   1      -7.000   0.646 124.547  0.00  0.00    +0.161 C 
ATOM      6  C   LIG A   1      -8.246  -0.060 125.103  0.00  0.00    +0.234 C 
ENDROOT
BRANCH   1   7
ATOM      7  O   LIG A   1     -10.566   0.245 125.762  0.00  0.00    -0.388 OA
ATOM      8  H   LIG A   1     -10.319  -0.689 125.889  0.00  0.00    +0.210 HD
ENDBRANCH   1   7
BRANCH   3   9
ATOM      9  O   LIG A   1      -8.878   2.948 122.228  0.00  0.00    -0.377 OA
ATOM     10  H   LIG A   1      -8.380   2.426 121.570  0.00  0.00    +0.211 HD
ENDBRANCH   3   9
BRANCH   3  11
ATOM     11  C   LIG A   1      -7.990   3.722 124.324  0.00  0.00    +0.339 C 
ATOM     12  O   LIG A   1      -8.686   4.296 125.157  0.00  0.00    -0.248 OA
BRANCH  11  13
ATOM     13  O   LIG A   1      -6.710   4.050 124.019  0.00  0.00    -0.466 OA
ATOM     14  C   LIG A   1      -6.072   4.985 124.884  0.00  0.00    +0.280 C 
ENDBRANCH  11  13
ENDBRANCH   3  11
BRANCH   5  15
ATOM     15  O   LIG A   1      -6.427   1.477 125.552  0.00  0.00    -0.388 OA
ATOM     16  H   LIG A   1      -5.887   2.154 125.103  0.00  0.00    +0.210 HD
ENDBRANCH   5  15
BRANCH   6  17
ATOM     17  O   LIG A   1      -8.737  -1.032 124.156  0.00  0.00    -0.453 OA
BRANCH  17  18
ATOM     18  C   LIG A   1      -8.846  -2.287 124.640  0.00  0.00    +0.332 C 
ATOM     19  O   LIG A   1      -9.645  -3.144 124.271  0.00  0.00    -0.246 OA
BRANCH  18  20
ATOM     20  C   LIG A   1      -7.910  -2.529 125.744  0.00  0.00    +0.092 C 
ATOM     21  C   LIG A   1      -8.226  -2.438 127.045  0.00  0.00    +0.015 C 
BRANCH  21  22
ATOM     22  C   LIG A   1      -7.265  -2.763 128.105  0.00  0.00    -0.021 A 
ATOM     23  C   LIG A   1      -5.930  -2.335 128.026  0.00  0.00    +0.057 A 
ATOM     24  C   LIG A   1      -5.044  -2.642 129.048  0.00  0.00    +0.159 A 
ATOM     25  C   LIG A   1      -5.463  -3.399 130.135  0.00  0.00    +0.158 A 
ATOM     26  C   LIG A   1      -6.767  -3.866 130.215  0.00  0.00    +0.050 A 
ATOM     27  C   LIG A   1      -7.670  -3.551 129.194  0.00  0.00    +0.012 A 
BRANCH  24  28
ATOM     28  O   LIG A   1      -3.746  -2.212 129.023  0.00  0.00    -0.503 OA
ATOM     29  H   LIG A   1      -3.167  -2.987 129.126  0.00  0.00    +0.292 HD
ENDBRANCH  24  28
BRANCH  25  30
ATOM     30  O   LIG A   1      -4.585  -3.685 131.139  0.00  0.00    -0.503 OA
ATOM     31  H   LIG A   1      -3.733  -3.319 130.827  0.00  0.00    +0.292 HD
ENDBRANCH  25  30
ENDBRANCH  21  22
ENDBRANCH  18  20
ENDBRANCH  17  18
ENDBRANCH   6  17
TORSDOF 11
ENDMDL
MODEL 8
REMARK VINA RESULT:      -6.2     10.267     13.578
REMARK  Name = NuBBE_6
REMARK  12 active torsions:
REMARK  status: ('A' for Active; 'I' for Inactive)
REMARK    1  A    between atoms: O_1  and  C_2
REMARK    2  A    between atoms: C_5  and  O_6
REMARK    3  A    between atoms: C_5  and  C_7
REMARK    4  A    between atoms: C_7  and  O_8
REMARK    5  A    between atoms: O_8  and  C_9
REMARK    6  A    between atoms: C_12  and  O_14
REMARK    7  A    between atoms: C_15  and  O_17
REMARK    8  A    between atoms: O_17  and  C_18
REMARK    9  A    between atoms: C_18  and  C_19
REMARK   10  A    between atoms: C_20  and  C_21
REMARK   11  A    between atoms: C_23  and  O_24
REMARK   12  A    between atoms: C_25  and  O_26
REMARK                            x       y       z     vdW  Elec       q    Type
REMARK                         _______ _______ _______ _____ _____    ______ ____
ROOT
ATOM      1  C   LIG A   1      -8.869   3.489 132.544  0.00  0.00    +0.161 C 
ATOM      2  C   LIG A   1      -8.320   3.785 131.147  0.00  0.00    +0.081 C 
ATOM      3  C   LIG A   1      -8.911   5.053 130.517  0.00  0.00    +0.167 C 
ATOM      4  C   LIG A   1      -8.880   6.254 131.480  0.00  0.00    +0.081 C 
ATOM      5  C   LIG A   1      -9.434   5.938 132.869  0.00  0.00    +0.161 C 
ATOM      6  C   LIG A   1      -8.777   4.695 133.490  0.00  0.00    +0.234 C 
ENDROOT
BRANCH   1   7
ATOM      7  O   LIG A   1      -8.135   2.385 133.089  0.00  0.00    -0.388 OA
ATOM      8  H   LIG A   1      -7.487   2.113 132.414  0.00  0.00    +0.210 HD
ENDBRANCH   1   7
BRANCH   3   9
ATOM      9  O   LIG A   1      -8.060   5.392 129.402  0.00  0.00    -0.377 OA
ATOM     10  H   LIG A   1      -8.471   6.151 128.944  0.00  0.00    +0.211 HD
ENDBRANCH   3   9
BRANCH   3  11
ATOM     11  C   LIG A   1     -10.338   4.855 129.953  0.00  0.00    +0.339 C 
ATOM     12  O   LIG A   1     -11.024   3.869 130.210  0.00  0.00    -0.248 OA
BRANCH  11  13
ATOM     13  O   LIG A   1     -10.739   5.909 129.199  0.00  0.00    -0.466 OA
ATOM     14  C   LIG A   1     -12.058   6.394 129.438  0.00  0.00    +0.280 C 
ENDBRANCH  11  13
ENDBRANCH   3  11
BRANCH   5  15
ATOM     15  O   LIG A   1     -10.842   5.741 132.773  0.00  0.00    -0.388 OA
ATOM     16  H   LIG A   1     -11.275   6.482 133.235  0.00  0.00    +0.210 HD
ENDBRANCH   5  15
BRANCH   6  17
ATOM     17  O   LIG A   1      -7.380   4.944 133.751  0.00  0.00    -0.453 OA
BRANCH  17  18
ATOM     18  C   LIG A   1      -7.028   4.880 135.052  0.00  0.00    +0.332 C 
ATOM     19  O   LIG A   1      -6.280   4.052 135.566  0.00  0.00    -0.246 OA
BRANCH  18  20
ATOM     20  C   LIG A   1      -7.700   5.913 135.849  0.00  0.00    +0.092 C 
ATOM     21  C   LIG A   1      -7.183   6.485 136.948  0.00  0.00    +0.015 C 
BRANCH  21  22
ATOM     22  C   LIG A   1      -7.872   7.567 137.661  0.00  0.00    -0.021 A 
ATOM     23  C   LIG A   1      -9.143   8.005 137.256  0.00  0.00    +0.057 A 
ATOM     24  C   LIG A   1      -9.780   9.018 137.955  0.00  0.00    +0.159 A 
ATOM     25  C   LIG A   1      -9.153   9.624 139.037  0.00  0.00    +0.158 A 
ATOM     26  C   LIG A   1      -7.882   9.235 139.430  0.00  0.00    +0.050 A 
ATOM     27  C   LIG A   1      -7.237   8.206 138.738  0.00  0.00    +0.012 A 
BRANCH  24  28
ATOM     28  O   LIG A   1     -11.033   9.447 137.611  0.00  0.00    -0.503 OA
ATOM     29  H   LIG A   1     -11.211   9.163 136.698  0.00  0.00    +0.292 HD
ENDBRANCH  24  28
BRANCH  25  30
ATOM     30  O   LIG A   1      -9.795  10.613 139.723  0.00  0.00    -0.503 OA
ATOM     31  H   LIG A   1      -9.093  11.265 139.922  0.00  0.00    +0.292 HD
ENDBRANCH  25  30
ENDBRANCH  21  22
ENDBRANCH  18  20
ENDBRANCH  17  18
ENDBRANCH   6  17
TORSDOF 11
ENDMDL
MODEL 9
REMARK VINA RESULT:      -6.2      3.906      8.973
REMARK  Name = NuBBE_6
REMARK  12 active torsions:
REMARK  status: ('A' for Active; 'I' for Inactive)
REMARK    1  A    between atoms: O_1  and  C_2
REMARK    2  A    between atoms: C_5  and  O_6
REMARK    3  A    between atoms: C_5  and  C_7
REMARK    4  A    between atoms: C_7  and  O_8
REMARK    5  A    between atoms: O_8  and  C_9
REMARK    6  A    between atoms: C_12  and  O_14
REMARK    7  A    between atoms: C_15  and  O_17
REMARK    8  A    between atoms: O_17  and  C_18
REMARK    9  A    between atoms: C_18  and  C_19
REMARK   10  A    between atoms: C_20  and  C_21
REMARK   11  A    between atoms: C_23  and  O_24
REMARK   12  A    between atoms: C_25  and  O_26
REMARK                            x       y       z     vdW  Elec       q    Type
REMARK                         _______ _______ _______ _____ _____    ______ ____
ROOT
ATOM      1  C   LIG A   1      -8.268   0.545 126.048  0.00  0.00    +0.161 C 
ATOM      2  C   LIG A   1      -9.619   1.162 125.682  0.00  0.00    +0.081 C 
ATOM      3  C   LIG A   1      -9.859   1.248 124.169  0.00  0.00    +0.167 C 
ATOM      4  C   LIG A   1      -9.550  -0.078 123.451  0.00  0.00    +0.081 C 
ATOM      5  C   LIG A   1      -8.196  -0.677 123.829  0.00  0.00    +0.161 C 
ATOM      6  C   LIG A   1      -8.017  -0.800 125.350  0.00  0.00    +0.234 C 
ENDROOT
BRANCH   1   7
ATOM      7  O   LIG A   1      -8.224   0.372 127.470  0.00  0.00    -0.388 OA
ATOM      8  H   LIG A   1      -7.472   0.898 127.798  0.00  0.00    +0.210 HD
ENDBRANCH   1   7
BRANCH   3   9
ATOM      9  O   LIG A   1     -11.269   1.500 123.991  0.00  0.00    -0.377 OA
ATOM     10  H   LIG A   1     -11.470   2.347 124.431  0.00  0.00    +0.211 HD
ENDBRANCH   3   9
BRANCH   3  11
ATOM     11  C   LIG A   1      -9.102   2.414 123.488  0.00  0.00    +0.339 C 
ATOM     12  O   LIG A   1      -8.595   3.337 124.121  0.00  0.00    -0.248 OA
BRANCH  11  13
ATOM     13  O   LIG A   1      -9.032   2.260 122.143  0.00  0.00    -0.466 OA
ATOM     14  C   LIG A   1      -8.663   3.413 121.392  0.00  0.00    +0.280 C 
ENDBRANCH  11  13
ENDBRANCH   3  11
BRANCH   5  15
ATOM     15  O   LIG A   1      -7.161   0.138 123.286  0.00  0.00    -0.388 OA
ATOM     16  H   LIG A   1      -7.372   1.065 123.502  0.00  0.00    +0.210 HD
ENDBRANCH   5  15
BRANCH   6  17
ATOM     17  O   LIG A   1      -8.952  -1.757 125.890  0.00  0.00    -0.453 OA
BRANCH  17  18
ATOM     18  C   LIG A   1      -8.423  -2.964 126.177  0.00  0.00    +0.332 C 
ATOM     19  O   LIG A   1      -8.165  -3.857 125.374  0.00  0.00    -0.246 OA
BRANCH  18  20
ATOM     20  C   LIG A   1      -8.224  -3.142 127.620  0.00  0.00    +0.092 C 
ATOM     21  C   LIG A   1      -7.118  -2.779 128.288  0.00  0.00    +0.015 C 
BRANCH  21  22
ATOM     22  C   LIG A   1      -7.007  -2.916 129.745  0.00  0.00    -0.021 A 
ATOM     23  C   LIG A   1      -7.619  -1.990 130.606  0.00  0.00    +0.057 A 
ATOM     24  C   LIG A   1      -7.513  -2.149 131.979  0.00  0.00    +0.159 A 
ATOM     25  C   LIG A   1      -6.778  -3.203 132.508  0.00  0.00    +0.158 A 
ATOM     26  C   LIG A   1      -6.132  -4.106 131.677  0.00  0.00    +0.050 A 
ATOM     27  C   LIG A   1      -6.243  -3.960 130.290  0.00  0.00    +0.012 A 
BRANCH  24  28
ATOM     28  O   LIG A   1      -8.124  -1.288 132.848  0.00  0.00    -0.503 OA
ATOM     29  H   LIG A   1      -8.980  -1.672 133.105  0.00  0.00    +0.292 HD
ENDBRANCH  24  28
BRANCH  25  30
ATOM     30  O   LIG A   1      -6.690  -3.354 133.861  0.00  0.00    -0.503 OA
ATOM     31  H   LIG A   1      -6.114  -4.135 133.980  0.00  0.00    +0.292 HD
ENDBRANCH  25  30
ENDBRANCH  21  22
ENDBRANCH  18  20
ENDBRANCH  17  18
ENDBRANCH   6  17
TORSDOF 11
ENDMDL
