MODEL 1
REMARK VINA RESULT:      -7.4      0.000      0.000
REMARK  Name = NuBBE_1225
REMARK  8 active torsions:
REMARK  status: ('A' for Active; 'I' for Inactive)
REMARK    1  A    between atoms: C_3  and  O_4
REMARK    2  A    between atoms: O_4  and  C_5
REMARK    3  A    between atoms: C_6  and  C_17
REMARK    4  A    between atoms: C_10  and  O_11
REMARK    5  A    between atoms: C_13  and  O_14
REMARK    6  A    between atoms: O_14  and  C_15
REMARK    7  A    between atoms: C_21  and  O_24
REMARK    8  A    between atoms: O_24  and  C_25
REMARK                            x       y       z     vdW  Elec       q    Type
REMARK                         _______ _______ _______ _____ _____    ______ ____
ROOT
ATOM      1  O   LIG A   1      -9.365   1.386 125.821  0.00  0.00    -0.283 OA
ATOM      2  C   LIG A   1      -8.507   1.263 124.955  0.00  0.00    +0.238 A 
ATOM      3  C   LIG A   1      -8.013   2.390 124.101  0.00  0.00    +0.211 A 
ATOM      4  C   LIG A   1      -7.179   2.070 123.092  0.00  0.00    +0.181 A 
ATOM      5  O   LIG A   1      -6.724   0.797 122.800  0.00  0.00    -0.451 OA
ATOM      6  C   LIG A   1      -7.042  -0.221 123.659  0.00  0.00    +0.146 A 
ATOM      7  C   LIG A   1      -7.904  -0.059 124.734  0.00  0.00    +0.109 A 
ATOM      8  C   LIG A   1      -8.168  -1.143 125.577  0.00  0.00    +0.135 A 
ATOM      9  C   LIG A   1      -7.562  -2.376 125.342  0.00  0.00    +0.092 A 
ATOM     10  C   LIG A   1      -6.701  -2.543 124.253  0.00  0.00    +0.127 A 
ATOM     11  C   LIG A   1      -6.447  -1.460 123.409  0.00  0.00    +0.092 A 
ENDROOT
BRANCH   4  12
ATOM     12  C   LIG A   1      -6.642   3.081 122.166  0.00  0.00    +0.021 A 
ATOM     13  C   LIG A   1      -7.296   3.359 120.961  0.00  0.00    +0.015 A 
ATOM     14  C   LIG A   1      -6.765   4.297 120.070  0.00  0.00    +0.046 A 
ATOM     15  C   LIG A   1      -5.567   4.953 120.361  0.00  0.00    +0.120 A 
ATOM     16  C   LIG A   1      -4.923   4.700 121.572  0.00  0.00    +0.046 A 
ATOM     17  C   LIG A   1      -5.456   3.764 122.469  0.00  0.00    +0.015 A 
BRANCH  15  18
ATOM     18  O   LIG A   1      -5.143   5.848 119.418  0.00  0.00    -0.495 OA
ATOM     19  C   LIG A   1      -5.941   5.921 118.241  0.00  0.00    +0.277 C 
ENDBRANCH  15  18
ENDBRANCH   4  12
BRANCH   3  20
ATOM     20  O   LIG A   1      -8.406   3.704 124.303  0.00  0.00    -0.488 OA
ATOM     21  C   LIG A   1      -7.834   4.362 125.429  0.00  0.00    +0.277 C 
ENDBRANCH   3  20
BRANCH   8  22
ATOM     22  O   LIG A   1      -9.004  -1.063 126.658  0.00  0.00    -0.506 OA
ATOM     23  H   LIG A   1      -9.211  -1.979 126.954  0.00  0.00    +0.292 HD
ENDBRANCH   8  22
BRANCH  10  24
ATOM     24  O   LIG A   1      -6.171  -3.797 124.120  0.00  0.00    -0.495 OA
ATOM     25  C   LIG A   1      -4.775  -3.872 123.851  0.00  0.00    +0.277 C 
ENDBRANCH  10  24
TORSDOF 5
ENDMDL
MODEL 2
REMARK VINA RESULT:      -7.3      1.581      2.022
REMARK  Name = NuBBE_1225
REMARK  8 active torsions:
REMARK  status: ('A' for Active; 'I' for Inactive)
REMARK    1  A    between atoms: C_3  and  O_4
REMARK    2  A    between atoms: O_4  and  C_5
REMARK    3  A    between atoms: C_6  and  C_17
REMARK    4  A    between atoms: C_10  and  O_11
REMARK    5  A    between atoms: C_13  and  O_14
REMARK    6  A    between atoms: O_14  and  C_15
REMARK    7  A    between atoms: C_21  and  O_24
REMARK    8  A    between atoms: O_24  and  C_25
REMARK                            x       y       z     vdW  Elec       q    Type
REMARK                         _______ _______ _______ _____ _____    ______ ____
ROOT
ATOM      1  O   LIG A   1      -8.440   2.832 127.141  0.00  0.00    -0.283 OA
ATOM      2  C   LIG A   1      -8.181   2.304 126.066  0.00  0.00    +0.238 A 
ATOM      3  C   LIG A   1      -7.967   3.061 124.791  0.00  0.00    +0.211 A 
ATOM      4  C   LIG A   1      -7.840   2.334 123.664  0.00  0.00    +0.181 A 
ATOM      5  O   LIG A   1      -7.863   0.954 123.593  0.00  0.00    -0.451 OA
ATOM      6  C   LIG A   1      -7.903   0.242 124.762  0.00  0.00    +0.146 A 
ATOM      7  C   LIG A   1      -8.053   0.841 126.005  0.00  0.00    +0.109 A 
ATOM      8  C   LIG A   1      -8.069   0.048 127.156  0.00  0.00    +0.135 A 
ATOM      9  C   LIG A   1      -7.928  -1.335 127.056  0.00  0.00    +0.092 A 
ATOM     10  C   LIG A   1      -7.788  -1.941 125.804  0.00  0.00    +0.127 A 
ATOM     11  C   LIG A   1      -7.780  -1.146 124.655  0.00  0.00    +0.092 A 
ENDROOT
BRANCH   4  12
ATOM     12  C   LIG A   1      -7.652   2.958 122.343  0.00  0.00    +0.021 A 
ATOM     13  C   LIG A   1      -6.367   3.251 121.873  0.00  0.00    +0.015 A 
ATOM     14  C   LIG A   1      -6.195   3.873 120.632  0.00  0.00    +0.046 A 
ATOM     15  C   LIG A   1      -7.301   4.226 119.856  0.00  0.00    +0.120 A 
ATOM     16  C   LIG A   1      -8.583   3.913 120.307  0.00  0.00    +0.046 A 
ATOM     17  C   LIG A   1      -8.757   3.285 121.548  0.00  0.00    +0.015 A 
BRANCH  15  18
ATOM     18  O   LIG A   1      -7.013   4.828 118.663  0.00  0.00    -0.495 OA
ATOM     19  C   LIG A   1      -5.862   5.667 118.662  0.00  0.00    +0.277 C 
ENDBRANCH  15  18
ENDBRANCH   4  12
BRANCH   3  20
ATOM     20  O   LIG A   1      -7.930   4.447 124.746  0.00  0.00    -0.488 OA
ATOM     21  C   LIG A   1      -6.733   5.055 125.220  0.00  0.00    +0.277 C 
ENDBRANCH   3  20
BRANCH   8  22
ATOM     22  O   LIG A   1      -8.210   0.564 128.417  0.00  0.00    -0.506 OA
ATOM     23  H   LIG A   1      -8.528   1.492 128.334  0.00  0.00    +0.292 HD
ENDBRANCH   8  22
BRANCH  10  24
ATOM     24  O   LIG A   1      -7.663  -3.303 125.829  0.00  0.00    -0.495 OA
ATOM     25  C   LIG A   1      -8.186  -4.010 124.709  0.00  0.00    +0.277 C 
ENDBRANCH  10  24
TORSDOF 5
ENDMDL
MODEL 3
REMARK VINA RESULT:      -6.9      9.142     10.673
REMARK  Name = NuBBE_1225
REMARK  8 active torsions:
REMARK  status: ('A' for Active; 'I' for Inactive)
REMARK    1  A    between atoms: C_3  and  O_4
REMARK    2  A    between atoms: O_4  and  C_5
REMARK    3  A    between atoms: C_6  and  C_17
REMARK    4  A    between atoms: C_10  and  O_11
REMARK    5  A    between atoms: C_13  and  O_14
REMARK    6  A    between atoms: O_14  and  C_15
REMARK    7  A    between atoms: C_21  and  O_24
REMARK    8  A    between atoms: O_24  and  C_25
REMARK                            x       y       z     vdW  Elec       q    Type
REMARK                         _______ _______ _______ _____ _____    ______ ____
ROOT
ATOM      1  O   LIG A   1     -10.058   5.457 133.211  0.00  0.00    -0.283 OA
ATOM      2  C   LIG A   1      -9.416   5.902 132.267  0.00  0.00    +0.238 A 
ATOM      3  C   LIG A   1      -7.935   5.747 132.114  0.00  0.00    +0.211 A 
ATOM      4  C   LIG A   1      -7.351   6.420 131.103  0.00  0.00    +0.181 A 
ATOM      5  O   LIG A   1      -8.011   7.216 130.184  0.00  0.00    -0.451 OA
ATOM      6  C   LIG A   1      -9.379   7.248 130.213  0.00  0.00    +0.146 A 
ATOM      7  C   LIG A   1     -10.127   6.624 131.201  0.00  0.00    +0.109 A 
ATOM      8  C   LIG A   1     -11.523   6.688 131.155  0.00  0.00    +0.135 A 
ATOM      9  C   LIG A   1     -12.158   7.368 130.118  0.00  0.00    +0.092 A 
ATOM     10  C   LIG A   1     -11.406   8.007 129.128  0.00  0.00    +0.127 A 
ATOM     11  C   LIG A   1     -10.012   7.947 129.182  0.00  0.00    +0.092 A 
ENDROOT
BRANCH   4  12
ATOM     12  C   LIG A   1      -5.900   6.372 130.860  0.00  0.00    +0.021 A 
ATOM     13  C   LIG A   1      -5.074   7.417 131.287  0.00  0.00    +0.015 A 
ATOM     14  C   LIG A   1      -3.700   7.382 131.026  0.00  0.00    +0.046 A 
ATOM     15  C   LIG A   1      -3.139   6.314 130.321  0.00  0.00    +0.120 A 
ATOM     16  C   LIG A   1      -3.953   5.257 129.916  0.00  0.00    +0.046 A 
ATOM     17  C   LIG A   1      -5.329   5.288 130.181  0.00  0.00    +0.015 A 
BRANCH  15  18
ATOM     18  O   LIG A   1      -1.788   6.387 130.123  0.00  0.00    -0.495 OA
ATOM     19  C   LIG A   1      -0.998   6.445 131.307  0.00  0.00    +0.277 C 
ENDBRANCH  15  18
ENDBRANCH   4  12
BRANCH   3  20
ATOM     20  O   LIG A   1      -7.174   4.976 132.981  0.00  0.00    -0.488 OA
ATOM     21  C   LIG A   1      -6.901   5.554 134.254  0.00  0.00    +0.277 C 
ENDBRANCH   3  20
BRANCH   8  22
ATOM     22  O   LIG A   1     -12.330   6.096 132.090  0.00  0.00    -0.506 OA
ATOM     23  H   LIG A   1     -12.656   5.245 131.719  0.00  0.00    +0.292 HD
ENDBRANCH   8  22
BRANCH  10  24
ATOM     24  O   LIG A   1     -12.137   8.647 128.165  0.00  0.00    -0.495 OA
ATOM     25  C   LIG A   1     -13.309   7.980 127.707  0.00  0.00    +0.277 C 
ENDBRANCH  10  24
TORSDOF 5
ENDMDL
MODEL 4
REMARK VINA RESULT:      -6.8      7.451     11.733
REMARK  Name = NuBBE_1225
REMARK  8 active torsions:
REMARK  status: ('A' for Active; 'I' for Inactive)
REMARK    1  A    between atoms: C_3  and  O_4
REMARK    2  A    between atoms: O_4  and  C_5
REMARK    3  A    between atoms: C_6  and  C_17
REMARK    4  A    between atoms: C_10  and  O_11
REMARK    5  A    between atoms: C_13  and  O_14
REMARK    6  A    between atoms: O_14  and  C_15
REMARK    7  A    between atoms: C_21  and  O_24
REMARK    8  A    between atoms: O_24  and  C_25
REMARK                            x       y       z     vdW  Elec       q    Type
REMARK                         _______ _______ _______ _____ _____    ______ ____
ROOT
ATOM      1  O   LIG A   1      -8.978   5.255 127.473  0.00  0.00    -0.283 OA
ATOM      2  C   LIG A   1      -9.248   5.717 128.575  0.00  0.00    +0.238 A 
ATOM      3  C   LIG A   1      -8.541   5.335 129.839  0.00  0.00    +0.211 A 
ATOM      4  C   LIG A   1      -9.051   5.813 130.992  0.00  0.00    +0.181 A 
ATOM      5  O   LIG A   1     -10.151   6.645 131.098  0.00  0.00    -0.451 OA
ATOM      6  C   LIG A   1     -10.716   7.128 129.948  0.00  0.00    +0.146 A 
ATOM      7  C   LIG A   1     -10.319   6.718 128.683  0.00  0.00    +0.109 A 
ATOM      8  C   LIG A   1     -10.934   7.269 127.554  0.00  0.00    +0.135 A 
ATOM      9  C   LIG A   1     -11.933   8.229 127.700  0.00  0.00    +0.092 A 
ATOM     10  C   LIG A   1     -12.342   8.634 128.974  0.00  0.00    +0.127 A 
ATOM     11  C   LIG A   1     -11.732   8.076 130.099  0.00  0.00    +0.092 A 
ENDROOT
BRANCH   4  12
ATOM     12  C   LIG A   1      -8.465   5.492 132.304  0.00  0.00    +0.021 A 
ATOM     13  C   LIG A   1      -7.251   6.063 132.699  0.00  0.00    +0.015 A 
ATOM     14  C   LIG A   1      -6.683   5.730 133.932  0.00  0.00    +0.046 A 
ATOM     15  C   LIG A   1      -7.309   4.810 134.777  0.00  0.00    +0.120 A 
ATOM     16  C   LIG A   1      -8.532   4.256 134.400  0.00  0.00    +0.046 A 
ATOM     17  C   LIG A   1      -9.106   4.593 133.166  0.00  0.00    +0.015 A 
BRANCH  15  18
ATOM     18  O   LIG A   1      -6.663   4.560 135.956  0.00  0.00    -0.495 OA
ATOM     19  C   LIG A   1      -6.336   5.709 136.730  0.00  0.00    +0.277 C 
ENDBRANCH  15  18
ENDBRANCH   4  12
BRANCH   3  20
ATOM     20  O   LIG A   1      -7.431   4.504 129.849  0.00  0.00    -0.488 OA
ATOM     21  C   LIG A   1      -7.698   3.105 129.826  0.00  0.00    +0.277 C 
ENDBRANCH   3  20
BRANCH   8  22
ATOM     22  O   LIG A   1     -10.596   6.919 126.274  0.00  0.00    -0.506 OA
ATOM     23  H   LIG A   1     -11.076   6.090 126.047  0.00  0.00    +0.292 HD
ENDBRANCH   8  22
BRANCH  10  24
ATOM     24  O   LIG A   1     -13.334   9.576 128.993  0.00  0.00    -0.495 OA
ATOM     25  C   LIG A   1     -13.277  10.539 130.040  0.00  0.00    +0.277 C 
ENDBRANCH  10  24
TORSDOF 5
ENDMDL
MODEL 5
REMARK VINA RESULT:      -6.8      3.540      8.329
REMARK  Name = NuBBE_1225
REMARK  8 active torsions:
REMARK  status: ('A' for Active; 'I' for Inactive)
REMARK    1  A    between atoms: C_3  and  O_4
REMARK    2  A    between atoms: O_4  and  C_5
REMARK    3  A    between atoms: C_6  and  C_17
REMARK    4  A    between atoms: C_10  and  O_11
REMARK    5  A    between atoms: C_13  and  O_14
REMARK    6  A    between atoms: O_14  and  C_15
REMARK    7  A    between atoms: C_21  and  O_24
REMARK    8  A    between atoms: O_24  and  C_25
REMARK                            x       y       z     vdW  Elec       q    Type
REMARK                         _______ _______ _______ _____ _____    ______ ____
ROOT
ATOM      1  O   LIG A   1      -9.782  -2.145 123.724  0.00  0.00    -0.283 OA
ATOM      2  C   LIG A   1      -9.135  -1.623 124.624  0.00  0.00    +0.238 A 
ATOM      3  C   LIG A   1      -8.402  -2.388 125.682  0.00  0.00    +0.211 A 
ATOM      4  C   LIG A   1      -7.863  -1.674 126.690  0.00  0.00    +0.181 A 
ATOM      5  O   LIG A   1      -7.909  -0.297 126.810  0.00  0.00    -0.451 OA
ATOM      6  C   LIG A   1      -8.440   0.430 125.778  0.00  0.00    +0.146 A 
ATOM      7  C   LIG A   1      -9.050  -0.156 124.678  0.00  0.00    +0.109 A 
ATOM      8  C   LIG A   1      -9.555   0.653 123.656  0.00  0.00    +0.135 A 
ATOM      9  C   LIG A   1      -9.438   2.039 123.738  0.00  0.00    +0.092 A 
ATOM     10  C   LIG A   1      -8.833   2.632 124.850  0.00  0.00    +0.127 A 
ATOM     11  C   LIG A   1      -8.338   1.821 125.873  0.00  0.00    +0.092 A 
ENDROOT
BRANCH   4  12
ATOM     12  C   LIG A   1      -7.139  -2.308 127.804  0.00  0.00    +0.021 A 
ATOM     13  C   LIG A   1      -5.742  -2.276 127.853  0.00  0.00    +0.015 A 
ATOM     14  C   LIG A   1      -5.058  -2.907 128.897  0.00  0.00    +0.046 A 
ATOM     15  C   LIG A   1      -5.758  -3.593 129.892  0.00  0.00    +0.120 A 
ATOM     16  C   LIG A   1      -7.152  -3.607 129.863  0.00  0.00    +0.046 A 
ATOM     17  C   LIG A   1      -7.840  -2.970 128.820  0.00  0.00    +0.015 A 
BRANCH  15  18
ATOM     18  O   LIG A   1      -4.987  -4.172 130.861  0.00  0.00    -0.495 OA
ATOM     19  C   LIG A   1      -3.702  -3.587 131.051  0.00  0.00    +0.277 C 
ENDBRANCH  15  18
ENDBRANCH   4  12
BRANCH   3  20
ATOM     20  O   LIG A   1      -8.298  -3.771 125.662  0.00  0.00    -0.488 OA
ATOM     21  C   LIG A   1      -7.453  -4.318 124.655  0.00  0.00    +0.277 C 
ENDBRANCH   3  20
BRANCH   8  22
ATOM     22  O   LIG A   1     -10.168   0.151 122.539  0.00  0.00    -0.506 OA
ATOM     23  H   LIG A   1     -10.765   0.846 122.179  0.00  0.00    +0.292 HD
ENDBRANCH   8  22
BRANCH  10  24
ATOM     24  O   LIG A   1      -8.781   3.998 124.824  0.00  0.00    -0.495 OA
ATOM     25  C   LIG A   1      -8.013   4.626 125.845  0.00  0.00    +0.277 C 
ENDBRANCH  10  24
TORSDOF 5
ENDMDL
MODEL 6
REMARK VINA RESULT:      -6.6      3.791      4.491
REMARK  Name = NuBBE_1225
REMARK  8 active torsions:
REMARK  status: ('A' for Active; 'I' for Inactive)
REMARK    1  A    between atoms: C_3  and  O_4
REMARK    2  A    between atoms: O_4  and  C_5
REMARK    3  A    between atoms: C_6  and  C_17
REMARK    4  A    between atoms: C_10  and  O_11
REMARK    5  A    between atoms: C_13  and  O_14
REMARK    6  A    between atoms: O_14  and  C_15
REMARK    7  A    between atoms: C_21  and  O_24
REMARK    8  A    between atoms: O_24  and  C_25
REMARK                            x       y       z     vdW  Elec       q    Type
REMARK                         _______ _______ _______ _____ _____    ______ ____
ROOT
ATOM      1  O   LIG A   1      -9.563  -0.206 125.568  0.00  0.00    -0.283 OA
ATOM      2  C   LIG A   1      -8.340  -0.195 125.630  0.00  0.00    +0.238 A 
ATOM      3  C   LIG A   1      -7.540   0.949 126.171  0.00  0.00    +0.211 A 
ATOM      4  C   LIG A   1      -6.201   0.876 126.034  0.00  0.00    +0.181 A 
ATOM      5  O   LIG A   1      -5.510  -0.177 125.463  0.00  0.00    -0.451 OA
ATOM      6  C   LIG A   1      -6.210  -1.297 125.102  0.00  0.00    +0.146 A 
ATOM      7  C   LIG A   1      -7.594  -1.373 125.164  0.00  0.00    +0.109 A 
ATOM      8  C   LIG A   1      -8.238  -2.558 124.793  0.00  0.00    +0.135 A 
ATOM      9  C   LIG A   1      -7.492  -3.657 124.372  0.00  0.00    +0.092 A 
ATOM     10  C   LIG A   1      -6.098  -3.578 124.300  0.00  0.00    +0.127 A 
ATOM     11  C   LIG A   1      -5.459  -2.391 124.663  0.00  0.00    +0.092 A 
ENDROOT
BRANCH   4  12
ATOM     12  C   LIG A   1      -5.303   1.946 126.500  0.00  0.00    +0.021 A 
ATOM     13  C   LIG A   1      -5.010   3.037 125.675  0.00  0.00    +0.015 A 
ATOM     14  C   LIG A   1      -4.132   4.034 126.110  0.00  0.00    +0.046 A 
ATOM     15  C   LIG A   1      -3.522   3.946 127.364  0.00  0.00    +0.120 A 
ATOM     16  C   LIG A   1      -3.830   2.875 128.201  0.00  0.00    +0.046 A 
ATOM     17  C   LIG A   1      -4.714   1.876 127.769  0.00  0.00    +0.015 A 
BRANCH  15  18
ATOM     18  O   LIG A   1      -2.682   4.977 127.683  0.00  0.00    -0.495 OA
ATOM     19  C   LIG A   1      -3.318   6.221 127.958  0.00  0.00    +0.277 C 
ENDBRANCH  15  18
ENDBRANCH   4  12
BRANCH   3  20
ATOM     20  O   LIG A   1      -8.130   2.057 126.761  0.00  0.00    -0.488 OA
ATOM     21  C   LIG A   1      -8.485   1.919 128.133  0.00  0.00    +0.277 C 
ENDBRANCH   3  20
BRANCH   8  22
ATOM     22  O   LIG A   1      -9.598  -2.712 124.828  0.00  0.00    -0.506 OA
ATOM     23  H   LIG A   1      -9.795  -3.673 124.909  0.00  0.00    +0.292 HD
ENDBRANCH   8  22
BRANCH  10  24
ATOM     24  O   LIG A   1      -5.474  -4.716 123.868  0.00  0.00    -0.495 OA
ATOM     25  C   LIG A   1      -4.094  -4.599 123.536  0.00  0.00    +0.277 C 
ENDBRANCH  10  24
TORSDOF 5
ENDMDL
MODEL 7
REMARK VINA RESULT:      -6.4      6.176      9.696
REMARK  Name = NuBBE_1225
REMARK  8 active torsions:
REMARK  status: ('A' for Active; 'I' for Inactive)
REMARK    1  A    between atoms: C_3  and  O_4
REMARK    2  A    between atoms: O_4  and  C_5
REMARK    3  A    between atoms: C_6  and  C_17
REMARK    4  A    between atoms: C_10  and  O_11
REMARK    5  A    between atoms: C_13  and  O_14
REMARK    6  A    between atoms: O_14  and  C_15
REMARK    7  A    between atoms: C_21  and  O_24
REMARK    8  A    between atoms: O_24  and  C_25
REMARK                            x       y       z     vdW  Elec       q    Type
REMARK                         _______ _______ _______ _____ _____    ______ ____
ROOT
ATOM      1  O   LIG A   1      -6.259   5.462 129.573  0.00  0.00    -0.283 OA
ATOM      2  C   LIG A   1      -7.135   4.616 129.706  0.00  0.00    +0.238 A 
ATOM      3  C   LIG A   1      -6.931   3.154 129.452  0.00  0.00    +0.211 A 
ATOM      4  C   LIG A   1      -8.026   2.369 129.494  0.00  0.00    +0.181 A 
ATOM      5  O   LIG A   1      -9.310   2.798 129.778  0.00  0.00    -0.451 OA
ATOM      6  C   LIG A   1      -9.492   4.099 130.162  0.00  0.00    +0.146 A 
ATOM      7  C   LIG A   1      -8.470   5.038 130.154  0.00  0.00    +0.109 A 
ATOM      8  C   LIG A   1      -8.730   6.346 130.576  0.00  0.00    +0.135 A 
ATOM      9  C   LIG A   1     -10.006   6.701 131.009  0.00  0.00    +0.092 A 
ATOM     10  C   LIG A   1     -11.039   5.759 131.008  0.00  0.00    +0.127 A 
ATOM     11  C   LIG A   1     -10.777   4.456 130.578  0.00  0.00    +0.092 A 
ENDROOT
BRANCH   4  12
ATOM     12  C   LIG A   1      -7.965   0.920 129.238  0.00  0.00    +0.021 A 
ATOM     13  C   LIG A   1      -7.925   0.012 130.301  0.00  0.00    +0.015 A 
ATOM     14  C   LIG A   1      -7.835  -1.361 130.053  0.00  0.00    +0.046 A 
ATOM     15  C   LIG A   1      -7.765  -1.843 128.744  0.00  0.00    +0.120 A 
ATOM     16  C   LIG A   1      -7.830  -0.944 127.679  0.00  0.00    +0.046 A 
ATOM     17  C   LIG A   1      -7.925   0.432 127.926  0.00  0.00    +0.015 A 
BRANCH  15  18
ATOM     18  O   LIG A   1      -7.678  -3.202 128.621  0.00  0.00    -0.495 OA
ATOM     19  C   LIG A   1      -8.758  -3.825 127.933  0.00  0.00    +0.277 C 
ENDBRANCH  15  18
ENDBRANCH   4  12
BRANCH   3  20
ATOM     20  O   LIG A   1      -5.688   2.616 129.155  0.00  0.00    -0.488 OA
ATOM     21  C   LIG A   1      -4.821   2.399 130.264  0.00  0.00    +0.277 C 
ENDBRANCH   3  20
BRANCH   8  22
ATOM     22  O   LIG A   1      -7.775   7.327 130.598  0.00  0.00    -0.506 OA
ATOM     23  H   LIG A   1      -6.955   6.965 130.191  0.00  0.00    +0.292 HD
ENDBRANCH   8  22
BRANCH  10  24
ATOM     24  O   LIG A   1     -12.248   6.223 131.448  0.00  0.00    -0.495 OA
ATOM     25  C   LIG A   1     -12.866   7.236 130.661  0.00  0.00    +0.277 C 
ENDBRANCH  10  24
TORSDOF 5
ENDMDL
MODEL 8
REMARK VINA RESULT:      -6.3      8.249     11.315
REMARK  Name = NuBBE_1225
REMARK  8 active torsions:
REMARK  status: ('A' for Active; 'I' for Inactive)
REMARK    1  A    between atoms: C_3  and  O_4
REMARK    2  A    between atoms: O_4  and  C_5
REMARK    3  A    between atoms: C_6  and  C_17
REMARK    4  A    between atoms: C_10  and  O_11
REMARK    5  A    between atoms: C_13  and  O_14
REMARK    6  A    between atoms: O_14  and  C_15
REMARK    7  A    between atoms: C_21  and  O_24
REMARK    8  A    between atoms: O_24  and  C_25
REMARK                            x       y       z     vdW  Elec       q    Type
REMARK                         _______ _______ _______ _____ _____    ______ ____
ROOT
ATOM      1  O   LIG A   1      -7.099   2.794 131.736  0.00  0.00    -0.283 OA
ATOM      2  C   LIG A   1      -7.697   3.789 132.125  0.00  0.00    +0.238 A 
ATOM      3  C   LIG A   1      -8.744   4.503 131.326  0.00  0.00    +0.211 A 
ATOM      4  C   LIG A   1      -9.203   5.668 131.824  0.00  0.00    +0.181 A 
ATOM      5  O   LIG A   1      -8.808   6.240 133.019  0.00  0.00    -0.451 OA
ATOM      6  C   LIG A   1      -7.968   5.531 133.835  0.00  0.00    +0.146 A 
ATOM      7  C   LIG A   1      -7.394   4.324 133.460  0.00  0.00    +0.109 A 
ATOM      8  C   LIG A   1      -6.559   3.649 134.356  0.00  0.00    +0.135 A 
ATOM      9  C   LIG A   1      -6.311   4.182 135.619  0.00  0.00    +0.092 A 
ATOM     10  C   LIG A   1      -6.880   5.403 135.994  0.00  0.00    +0.127 A 
ATOM     11  C   LIG A   1      -7.707   6.078 135.094  0.00  0.00    +0.092 A 
ENDROOT
BRANCH   4  12
ATOM     12  C   LIG A   1     -10.213   6.479 131.123  0.00  0.00    +0.021 A 
ATOM     13  C   LIG A   1     -11.547   6.470 131.545  0.00  0.00    +0.015 A 
ATOM     14  C   LIG A   1     -12.508   7.217 130.856  0.00  0.00    +0.046 A 
ATOM     15  C   LIG A   1     -12.154   7.965 129.731  0.00  0.00    +0.120 A 
ATOM     16  C   LIG A   1     -10.822   7.997 129.321  0.00  0.00    +0.046 A 
ATOM     17  C   LIG A   1      -9.856   7.254 130.012  0.00  0.00    +0.015 A 
BRANCH  15  18
ATOM     18  O   LIG A   1     -13.176   8.654 129.138  0.00  0.00    -0.495 OA
ATOM     19  C   LIG A   1     -13.202  10.054 129.397  0.00  0.00    +0.277 C 
ENDBRANCH  15  18
ENDBRANCH   4  12
BRANCH   3  20
ATOM     20  O   LIG A   1      -9.210   4.021 130.112  0.00  0.00    -0.488 OA
ATOM     21  C   LIG A   1      -8.311   4.123 129.012  0.00  0.00    +0.277 C 
ENDBRANCH   3  20
BRANCH   8  22
ATOM     22  O   LIG A   1      -5.958   2.454 134.061  0.00  0.00    -0.506 OA
ATOM     23  H   LIG A   1      -4.996   2.540 134.254  0.00  0.00    +0.292 HD
ENDBRANCH   8  22
BRANCH  10  24
ATOM     24  O   LIG A   1      -6.561   5.829 137.254  0.00  0.00    -0.495 OA
ATOM     25  C   LIG A   1      -6.808   7.201 137.543  0.00  0.00    +0.277 C 
ENDBRANCH  10  24
TORSDOF 5
ENDMDL
MODEL 9
REMARK VINA RESULT:      -6.2      3.381      4.981
REMARK  Name = NuBBE_1225
REMARK  8 active torsions:
REMARK  status: ('A' for Active; 'I' for Inactive)
REMARK    1  A    between atoms: C_3  and  O_4
REMARK    2  A    between atoms: O_4  and  C_5
REMARK    3  A    between atoms: C_6  and  C_17
REMARK    4  A    between atoms: C_10  and  O_11
REMARK    5  A    between atoms: C_13  and  O_14
REMARK    6  A    between atoms: O_14  and  C_15
REMARK    7  A    between atoms: C_21  and  O_24
REMARK    8  A    between atoms: O_24  and  C_25
REMARK                            x       y       z     vdW  Elec       q    Type
REMARK                         _______ _______ _______ _____ _____    ______ ____
ROOT
ATOM      1  O   LIG A   1      -8.027   0.196 123.289  0.00  0.00    -0.283 OA
ATOM      2  C   LIG A   1      -7.516   0.334 124.393  0.00  0.00    +0.238 A 
ATOM      3  C   LIG A   1      -6.631   1.484 124.767  0.00  0.00    +0.211 A 
ATOM      4  C   LIG A   1      -6.023   1.420 125.968  0.00  0.00    +0.181 A 
ATOM      5  O   LIG A   1      -6.170   0.397 126.888  0.00  0.00    -0.451 OA
ATOM      6  C   LIG A   1      -7.089  -0.584 126.630  0.00  0.00    +0.146 A 
ATOM      7  C   LIG A   1      -7.785  -0.670 125.432  0.00  0.00    +0.109 A 
ATOM      8  C   LIG A   1      -8.721  -1.692 125.249  0.00  0.00    +0.135 A 
ATOM      9  C   LIG A   1      -8.958  -2.614 126.266  0.00  0.00    +0.092 A 
ATOM     10  C   LIG A   1      -8.251  -2.536 127.470  0.00  0.00    +0.127 A 
ATOM     11  C   LIG A   1      -7.311  -1.518 127.646  0.00  0.00    +0.092 A 
ENDROOT
BRANCH   4  12
ATOM     12  C   LIG A   1      -5.109   2.472 126.444  0.00  0.00    +0.021 A 
ATOM     13  C   LIG A   1      -3.725   2.326 126.306  0.00  0.00    +0.015 A 
ATOM     14  C   LIG A   1      -2.861   3.314 126.788  0.00  0.00    +0.046 A 
ATOM     15  C   LIG A   1      -3.365   4.448 127.429  0.00  0.00    +0.120 A 
ATOM     16  C   LIG A   1      -4.745   4.611 127.547  0.00  0.00    +0.046 A 
ATOM     17  C   LIG A   1      -5.613   3.625 127.060  0.00  0.00    +0.015 A 
BRANCH  15  18
ATOM     18  O   LIG A   1      -2.428   5.345 127.860  0.00  0.00    -0.495 OA
ATOM     19  C   LIG A   1      -2.898   6.675 128.057  0.00  0.00    +0.277 C 
ENDBRANCH  15  18
ENDBRANCH   4  12
BRANCH   3  20
ATOM     20  O   LIG A   1      -6.411   2.559 123.920  0.00  0.00    -0.488 OA
ATOM     21  C   LIG A   1      -7.473   3.503 123.819  0.00  0.00    +0.277 C 
ENDBRANCH   3  20
BRANCH   8  22
ATOM     22  O   LIG A   1      -9.448  -1.842 124.098  0.00  0.00    -0.506 OA
ATOM     23  H   LIG A   1      -9.768  -0.954 123.821  0.00  0.00    +0.292 HD
ENDBRANCH   8  22
BRANCH  10  24
ATOM     24  O   LIG A   1      -8.563  -3.497 128.391  0.00  0.00    -0.495 OA
ATOM     25  C   LIG A   1      -8.155  -3.249 129.733  0.00  0.00    +0.277 C 
ENDBRANCH  10  24
TORSDOF 5
ENDMDL
