MODEL 1
REMARK VINA RESULT:      -7.1      0.000      0.000
REMARK  Name = NuBBE_941
REMARK  6 active torsions:
REMARK  status: ('A' for Active; 'I' for Inactive)
REMARK    1  A    between atoms: C_1  and  O_2
REMARK    2  A    between atoms: O_2  and  C_3
REMARK    3  A    between atoms: C_10  and  C_17
REMARK    4  A    between atoms: C_10  and  C_18
REMARK    5  A    between atoms: C_11  and  O_16
REMARK    6  A    between atoms: C_13  and  O_15
REMARK                            x       y       z     vdW  Elec       q    Type
REMARK                         _______ _______ _______ _____ _____    ______ ____
ROOT
ATOM      1  C   LIG A   1      -7.566   3.764 120.900  0.00  0.00    +0.144 A 
ATOM      2  C   LIG A   1      -7.415   3.609 122.289  0.00  0.00    +0.095 A 
ATOM      3  N   LIG A   1      -8.513   3.197 123.059  0.00  0.00    -0.319 N 
ATOM      4  C   LIG A   1      -8.475   3.026 124.410  0.00  0.00    +0.259 A 
ATOM      5  C   LIG A   1      -7.183   3.288 125.094  0.00  0.00    +0.090 A 
ATOM      6  C   LIG A   1      -6.101   3.656 124.384  0.00  0.00    +0.141 A 
ATOM      7  O   LIG A   1      -4.846   3.852 124.926  0.00  0.00    -0.482 OA
ATOM      8  C   LIG A   1      -4.637   3.423 126.290  0.00  0.00    +0.134 C 
ATOM      9  C   LIG A   1      -5.868   3.731 127.166  0.00  0.00    +0.191 C 
ATOM     10  C   LIG A   1      -7.133   3.090 126.575  0.00  0.00    +0.186 C 
ATOM     11  C   LIG A   1      -4.253   1.934 126.284  0.00  0.00    +0.058 C 
ATOM     12  C   LIG A   1      -3.429   4.225 126.802  0.00  0.00    +0.058 C 
ATOM     13  O   LIG A   1      -9.463   2.672 125.051  0.00  0.00    -0.267 OA
ATOM     14  H   LIG A   1      -9.390   3.028 122.582  0.00  0.00    +0.169 HD
ATOM     15  C   LIG A   1      -6.191   3.853 122.927  0.00  0.00    +0.044 A 
ATOM     16  C   LIG A   1      -5.103   4.267 122.150  0.00  0.00    +0.014 A 
ATOM     17  C   LIG A   1      -5.243   4.430 120.770  0.00  0.00    +0.004 A 
ATOM     18  C   LIG A   1      -6.468   4.180 120.146  0.00  0.00    +0.048 A 
ENDROOT
BRANCH   1  20
ATOM     19  C   LIG A   1      -9.236   4.231 119.266  0.00  0.00    +0.277 C 
ATOM     20  O   LIG A   1      -8.815   3.488 120.402  0.00  0.00    -0.493 OA
ENDBRANCH   1  20
BRANCH  10  21
ATOM     21  O   LIG A   1      -8.251   3.685 127.249  0.00  0.00    -0.384 OA
ATOM     22  H   LIG A   1      -8.826   4.058 126.546  0.00  0.00    +0.210 HD
ENDBRANCH  10  21
BRANCH   9  23
ATOM     23  O   LIG A   1      -5.691   3.289 128.519  0.00  0.00    -0.385 OA
ATOM     24  H   LIG A   1      -4.723   3.286 128.659  0.00  0.00    +0.210 HD
ENDBRANCH   9  23
TORSDOF 3
ENDMDL
MODEL 2
REMARK VINA RESULT:      -7.0      3.577      4.921
REMARK  Name = NuBBE_941
REMARK  6 active torsions:
REMARK  status: ('A' for Active; 'I' for Inactive)
REMARK    1  A    between atoms: C_1  and  O_2
REMARK    2  A    between atoms: O_2  and  C_3
REMARK    3  A    between atoms: C_10  and  C_17
REMARK    4  A    between atoms: C_10  and  C_18
REMARK    5  A    between atoms: C_11  and  O_16
REMARK    6  A    between atoms: C_13  and  O_15
REMARK                            x       y       z     vdW  Elec       q    Type
REMARK                         _______ _______ _______ _____ _____    ______ ____
ROOT
ATOM      1  C   LIG A   1      -7.647  -2.453 123.736  0.00  0.00    +0.144 A 
ATOM      2  C   LIG A   1      -7.666  -1.049 123.817  0.00  0.00    +0.095 A 
ATOM      3  N   LIG A   1      -8.717  -0.340 123.218  0.00  0.00    -0.319 N 
ATOM      4  C   LIG A   1      -8.824   1.018 123.229  0.00  0.00    +0.259 A 
ATOM      5  C   LIG A   1      -7.758   1.780 123.931  0.00  0.00    +0.090 A 
ATOM      6  C   LIG A   1      -6.751   1.131 124.543  0.00  0.00    +0.141 A 
ATOM      7  O   LIG A   1      -5.758   1.753 125.274  0.00  0.00    -0.482 OA
ATOM      8  C   LIG A   1      -5.938   3.152 125.584  0.00  0.00    +0.134 C 
ATOM      9  C   LIG A   1      -6.552   3.913 124.391  0.00  0.00    +0.191 C 
ATOM     10  C   LIG A   1      -7.877   3.269 123.957  0.00  0.00    +0.186 C 
ATOM     11  C   LIG A   1      -6.772   3.268 126.871  0.00  0.00    +0.058 C 
ATOM     12  C   LIG A   1      -4.533   3.702 125.876  0.00  0.00    +0.058 C 
ATOM     13  O   LIG A   1      -9.757   1.605 122.684  0.00  0.00    -0.267 OA
ATOM     14  H   LIG A   1      -9.434  -0.870 122.737  0.00  0.00    +0.169 HD
ATOM     15  C   LIG A   1      -6.660  -0.338 124.485  0.00  0.00    +0.044 A 
ATOM     16  C   LIG A   1      -5.614  -1.056 125.076  0.00  0.00    +0.014 A 
ATOM     17  C   LIG A   1      -5.581  -2.450 124.998  0.00  0.00    +0.004 A 
ATOM     18  C   LIG A   1      -6.593  -3.147 124.332  0.00  0.00    +0.048 A 
ENDROOT
BRANCH   1  20
ATOM     19  C   LIG A   1      -9.686  -3.682 123.837  0.00  0.00    +0.277 C 
ATOM     20  O   LIG A   1      -8.694  -3.024 123.058  0.00  0.00    -0.493 OA
ENDBRANCH   1  20
BRANCH  10  21
ATOM     21  O   LIG A   1      -8.203   3.820 122.672  0.00  0.00    -0.384 OA
ATOM     22  H   LIG A   1      -7.463   3.573 122.075  0.00  0.00    +0.210 HD
ENDBRANCH  10  21
BRANCH   9  23
ATOM     23  O   LIG A   1      -6.764   5.300 124.688  0.00  0.00    -0.385 OA
ATOM     24  H   LIG A   1      -5.876   5.708 124.636  0.00  0.00    +0.210 HD
ENDBRANCH   9  23
TORSDOF 3
ENDMDL
MODEL 3
REMARK VINA RESULT:      -6.7      5.815      7.837
REMARK  Name = NuBBE_941
REMARK  6 active torsions:
REMARK  status: ('A' for Active; 'I' for Inactive)
REMARK    1  A    between atoms: C_1  and  O_2
REMARK    2  A    between atoms: O_2  and  C_3
REMARK    3  A    between atoms: C_10  and  C_17
REMARK    4  A    between atoms: C_10  and  C_18
REMARK    5  A    between atoms: C_11  and  O_16
REMARK    6  A    between atoms: C_13  and  O_15
REMARK                            x       y       z     vdW  Elec       q    Type
REMARK                         _______ _______ _______ _____ _____    ______ ____
ROOT
ATOM      1  C   LIG A   1     -12.078   8.329 129.243  0.00  0.00    +0.144 A 
ATOM      2  C   LIG A   1     -11.113   7.416 129.705  0.00  0.00    +0.095 A 
ATOM      3  N   LIG A   1     -10.964   7.212 131.085  0.00  0.00    -0.319 N 
ATOM      4  C   LIG A   1     -10.054   6.361 131.635  0.00  0.00    +0.259 A 
ATOM      5  C   LIG A   1      -9.179   5.603 130.703  0.00  0.00    +0.090 A 
ATOM      6  C   LIG A   1      -9.314   5.751 129.373  0.00  0.00    +0.141 A 
ATOM      7  O   LIG A   1      -8.594   5.039 128.436  0.00  0.00    -0.482 OA
ATOM      8  C   LIG A   1      -7.815   3.917 128.908  0.00  0.00    +0.134 C 
ATOM      9  C   LIG A   1      -7.143   4.235 130.259  0.00  0.00    +0.191 C 
ATOM     10  C   LIG A   1      -8.188   4.658 131.302  0.00  0.00    +0.186 C 
ATOM     11  C   LIG A   1      -8.721   2.675 128.957  0.00  0.00    +0.058 C 
ATOM     12  C   LIG A   1      -6.735   3.677 127.841  0.00  0.00    +0.058 C 
ATOM     13  O   LIG A   1      -9.947   6.216 132.851  0.00  0.00    -0.267 OA
ATOM     14  H   LIG A   1     -11.562   7.740 131.710  0.00  0.00    +0.169 HD
ATOM     15  C   LIG A   1     -10.294   6.702 128.820  0.00  0.00    +0.044 A 
ATOM     16  C   LIG A   1     -10.450   6.916 127.446  0.00  0.00    +0.014 A 
ATOM     17  C   LIG A   1     -11.401   7.824 126.975  0.00  0.00    +0.004 A 
ATOM     18  C   LIG A   1     -12.213   8.528 127.868  0.00  0.00    +0.048 A 
ENDROOT
BRANCH   1  20
ATOM     19  C   LIG A   1     -13.210  10.300 129.958  0.00  0.00    +0.277 C 
ATOM     20  O   LIG A   1     -12.815   8.958 130.215  0.00  0.00    -0.493 OA
ENDBRANCH   1  20
BRANCH  10  21
ATOM     21  O   LIG A   1      -7.466   5.238 132.398  0.00  0.00    -0.384 OA
ATOM     22  H   LIG A   1      -7.956   6.051 132.648  0.00  0.00    +0.210 HD
ENDBRANCH  10  21
BRANCH   9  23
ATOM     23  O   LIG A   1      -6.386   3.124 130.758  0.00  0.00    -0.385 OA
ATOM     24  H   LIG A   1      -5.460   3.317 130.510  0.00  0.00    +0.210 HD
ENDBRANCH   9  23
TORSDOF 3
ENDMDL
MODEL 4
REMARK VINA RESULT:      -6.6      2.592      3.015
REMARK  Name = NuBBE_941
REMARK  6 active torsions:
REMARK  status: ('A' for Active; 'I' for Inactive)
REMARK    1  A    between atoms: C_1  and  O_2
REMARK    2  A    between atoms: O_2  and  C_3
REMARK    3  A    between atoms: C_10  and  C_17
REMARK    4  A    between atoms: C_10  and  C_18
REMARK    5  A    between atoms: C_11  and  O_16
REMARK    6  A    between atoms: C_13  and  O_15
REMARK                            x       y       z     vdW  Elec       q    Type
REMARK                         _______ _______ _______ _____ _____    ______ ____
ROOT
ATOM      1  C   LIG A   1      -8.203   3.678 120.817  0.00  0.00    +0.144 A 
ATOM      2  C   LIG A   1      -8.352   2.761 121.874  0.00  0.00    +0.095 A 
ATOM      3  N   LIG A   1      -9.609   2.186 122.113  0.00  0.00    -0.319 N 
ATOM      4  C   LIG A   1      -9.862   1.298 123.114  0.00  0.00    +0.259 A 
ATOM      5  C   LIG A   1      -8.725   0.919 123.992  0.00  0.00    +0.090 A 
ATOM      6  C   LIG A   1      -7.499   1.427 123.774  0.00  0.00    +0.141 A 
ATOM      7  O   LIG A   1      -6.375   1.079 124.495  0.00  0.00    -0.482 OA
ATOM      8  C   LIG A   1      -6.479  -0.057 125.382  0.00  0.00    +0.134 C 
ATOM      9  C   LIG A   1      -7.843  -0.079 126.100  0.00  0.00    +0.191 C 
ATOM     10  C   LIG A   1      -8.995  -0.065 125.084  0.00  0.00    +0.186 C 
ATOM     11  C   LIG A   1      -6.195  -1.336 124.579  0.00  0.00    +0.058 C 
ATOM     12  C   LIG A   1      -5.356   0.115 126.417  0.00  0.00    +0.058 C 
ATOM     13  O   LIG A   1     -10.981   0.822 123.297  0.00  0.00    -0.267 OA
ATOM     14  H   LIG A   1     -10.377   2.458 121.511  0.00  0.00    +0.169 HD
ATOM     15  C   LIG A   1      -7.274   2.405 122.695  0.00  0.00    +0.044 A 
ATOM     16  C   LIG A   1      -6.025   2.987 122.449  0.00  0.00    +0.014 A 
ATOM     17  C   LIG A   1      -5.865   3.903 121.407  0.00  0.00    +0.004 A 
ATOM     18  C   LIG A   1      -6.948   4.247 120.593  0.00  0.00    +0.048 A 
ENDROOT
BRANCH   1  20
ATOM     19  C   LIG A   1      -9.161   4.247 118.711  0.00  0.00    +0.277 C 
ATOM     20  O   LIG A   1      -9.336   3.935 120.088  0.00  0.00    -0.493 OA
ENDBRANCH   1  20
BRANCH  10  21
ATOM     21  O   LIG A   1     -10.190   0.239 125.818  0.00  0.00    -0.384 OA
ATOM     22  H   LIG A   1     -10.296   1.214 125.773  0.00  0.00    +0.210 HD
ENDBRANCH  10  21
BRANCH   9  23
ATOM     23  O   LIG A   1      -7.978  -1.214 126.966  0.00  0.00    -0.385 OA
ATOM     24  H   LIG A   1      -8.527  -1.850 126.465  0.00  0.00    +0.210 HD
ENDBRANCH   9  23
TORSDOF 3
ENDMDL
MODEL 5
REMARK VINA RESULT:      -6.6      3.149      3.914
REMARK  Name = NuBBE_941
REMARK  6 active torsions:
REMARK  status: ('A' for Active; 'I' for Inactive)
REMARK    1  A    between atoms: C_1  and  O_2
REMARK    2  A    between atoms: O_2  and  C_3
REMARK    3  A    between atoms: C_10  and  C_17
REMARK    4  A    between atoms: C_10  and  C_18
REMARK    5  A    between atoms: C_11  and  O_16
REMARK    6  A    between atoms: C_13  and  O_15
REMARK                            x       y       z     vdW  Elec       q    Type
REMARK                         _______ _______ _______ _____ _____    ______ ____
ROOT
ATOM      1  C   LIG A   1      -8.137  -0.583 124.471  0.00  0.00    +0.144 A 
ATOM      2  C   LIG A   1      -7.655   0.662 124.914  0.00  0.00    +0.095 A 
ATOM      3  N   LIG A   1      -8.499   1.782 124.868  0.00  0.00    -0.319 N 
ATOM      4  C   LIG A   1      -8.128   3.031 125.263  0.00  0.00    +0.259 A 
ATOM      5  C   LIG A   1      -6.745   3.201 125.779  0.00  0.00    +0.090 A 
ATOM      6  C   LIG A   1      -5.918   2.143 125.866  0.00  0.00    +0.141 A 
ATOM      7  O   LIG A   1      -4.644   2.195 126.395  0.00  0.00    -0.482 OA
ATOM      8  C   LIG A   1      -4.265   3.400 127.097  0.00  0.00    +0.134 C 
ATOM      9  C   LIG A   1      -4.813   4.654 126.387  0.00  0.00    +0.191 C 
ATOM     10  C   LIG A   1      -6.337   4.568 126.226  0.00  0.00    +0.186 C 
ATOM     11  C   LIG A   1      -4.722   3.282 128.561  0.00  0.00    +0.058 C 
ATOM     12  C   LIG A   1      -2.728   3.429 127.079  0.00  0.00    +0.058 C 
ATOM     13  O   LIG A   1      -8.894   3.991 125.199  0.00  0.00    -0.267 OA
ATOM     14  H   LIG A   1      -9.437   1.655 124.508  0.00  0.00    +0.169 HD
ATOM     15  C   LIG A   1      -6.351   0.813 125.404  0.00  0.00    +0.044 A 
ATOM     16  C   LIG A   1      -5.517  -0.310 125.442  0.00  0.00    +0.014 A 
ATOM     17  C   LIG A   1      -5.982  -1.551 124.999  0.00  0.00    +0.004 A 
ATOM     18  C   LIG A   1      -7.286  -1.688 124.516  0.00  0.00    +0.048 A 
ENDROOT
BRANCH   1  20
ATOM     19  C   LIG A   1      -9.626  -0.647 122.612  0.00  0.00    +0.277 C 
ATOM     20  O   LIG A   1      -9.433  -0.594 124.020  0.00  0.00    -0.493 OA
ENDBRANCH   1  20
BRANCH  10  21
ATOM     21  O   LIG A   1      -6.712   5.589 125.289  0.00  0.00    -0.384 OA
ATOM     22  H   LIG A   1      -7.355   6.164 125.758  0.00  0.00    +0.210 HD
ENDBRANCH  10  21
BRANCH   9  23
ATOM     23  O   LIG A   1      -4.469   5.860 127.083  0.00  0.00    -0.385 OA
ATOM     24  H   LIG A   1      -5.319   6.205 127.425  0.00  0.00    +0.210 HD
ENDBRANCH   9  23
TORSDOF 3
ENDMDL
MODEL 6
REMARK VINA RESULT:      -6.6      4.297      7.267
REMARK  Name = NuBBE_941
REMARK  6 active torsions:
REMARK  status: ('A' for Active; 'I' for Inactive)
REMARK    1  A    between atoms: C_1  and  O_2
REMARK    2  A    between atoms: O_2  and  C_3
REMARK    3  A    between atoms: C_10  and  C_17
REMARK    4  A    between atoms: C_10  and  C_18
REMARK    5  A    between atoms: C_11  and  O_16
REMARK    6  A    between atoms: C_13  and  O_15
REMARK                            x       y       z     vdW  Elec       q    Type
REMARK                         _______ _______ _______ _____ _____    ______ ____
ROOT
ATOM      1  C   LIG A   1      -7.919  -2.543 128.577  0.00  0.00    +0.144 A 
ATOM      2  C   LIG A   1      -7.896  -1.300 127.920  0.00  0.00    +0.095 A 
ATOM      3  N   LIG A   1      -7.328  -0.192 128.565  0.00  0.00    -0.319 N 
ATOM      4  C   LIG A   1      -7.264   1.056 128.022  0.00  0.00    +0.259 A 
ATOM      5  C   LIG A   1      -7.826   1.235 126.659  0.00  0.00    +0.090 A 
ATOM      6  C   LIG A   1      -8.351   0.188 125.997  0.00  0.00    +0.141 A 
ATOM      7  O   LIG A   1      -8.832   0.248 124.705  0.00  0.00    -0.482 OA
ATOM      8  C   LIG A   1      -8.550   1.445 123.946  0.00  0.00    +0.134 C 
ATOM      9  C   LIG A   1      -8.667   2.704 124.828  0.00  0.00    +0.191 C 
ATOM     10  C   LIG A   1      -7.747   2.599 126.053  0.00  0.00    +0.186 C 
ATOM     11  C   LIG A   1      -7.171   1.294 123.282  0.00  0.00    +0.058 C 
ATOM     12  C   LIG A   1      -9.611   1.496 122.834  0.00  0.00    +0.058 C 
ATOM     13  O   LIG A   1      -6.766   2.005 128.624  0.00  0.00    -0.267 OA
ATOM     14  H   LIG A   1      -6.954  -0.326 129.497  0.00  0.00    +0.169 HD
ATOM     15  C   LIG A   1      -8.423  -1.140 126.631  0.00  0.00    +0.044 A 
ATOM     16  C   LIG A   1      -8.990  -2.252 125.998  0.00  0.00    +0.014 A 
ATOM     17  C   LIG A   1      -9.025  -3.490 126.643  0.00  0.00    +0.004 A 
ATOM     18  C   LIG A   1      -8.492  -3.637 127.926  0.00  0.00    +0.048 A 
ENDROOT
BRANCH   1  20
ATOM     19  C   LIG A   1      -6.586  -3.703 130.175  0.00  0.00    +0.277 C 
ATOM     20  O   LIG A   1      -7.365  -2.564 129.832  0.00  0.00    -0.493 OA
ENDBRANCH   1  20
BRANCH  10  21
ATOM     21  O   LIG A   1      -8.152   3.632 126.964  0.00  0.00    -0.384 OA
ATOM     22  H   LIG A   1      -7.384   3.790 127.554  0.00  0.00    +0.210 HD
ENDBRANCH  10  21
BRANCH   9  23
ATOM     23  O   LIG A   1      -8.365   3.902 124.100  0.00  0.00    -0.385 OA
ATOM     24  H   LIG A   1      -7.497   3.732 123.681  0.00  0.00    +0.210 HD
ENDBRANCH   9  23
TORSDOF 3
ENDMDL
MODEL 7
REMARK VINA RESULT:      -6.4      3.839      4.698
REMARK  Name = NuBBE_941
REMARK  6 active torsions:
REMARK  status: ('A' for Active; 'I' for Inactive)
REMARK    1  A    between atoms: C_1  and  O_2
REMARK    2  A    between atoms: O_2  and  C_3
REMARK    3  A    between atoms: C_10  and  C_17
REMARK    4  A    between atoms: C_10  and  C_18
REMARK    5  A    between atoms: C_11  and  O_16
REMARK    6  A    between atoms: C_13  and  O_15
REMARK                            x       y       z     vdW  Elec       q    Type
REMARK                         _______ _______ _______ _____ _____    ______ ____
ROOT
ATOM      1  C   LIG A   1      -7.830   3.025 122.955  0.00  0.00    +0.144 A 
ATOM      2  C   LIG A   1      -7.984   1.712 123.436  0.00  0.00    +0.095 A 
ATOM      3  N   LIG A   1      -9.004   0.903 122.912  0.00  0.00    -0.319 N 
ATOM      4  C   LIG A   1      -9.244  -0.376 123.315  0.00  0.00    +0.259 A 
ATOM      5  C   LIG A   1      -8.358  -0.936 124.368  0.00  0.00    +0.090 A 
ATOM      6  C   LIG A   1      -7.352  -0.199 124.872  0.00  0.00    +0.141 A 
ATOM      7  O   LIG A   1      -6.441  -0.661 125.801  0.00  0.00    -0.482 OA
ATOM      8  C   LIG A   1      -6.434  -2.080 126.077  0.00  0.00    +0.134 C 
ATOM      9  C   LIG A   1      -7.868  -2.646 126.115  0.00  0.00    +0.191 C 
ATOM     10  C   LIG A   1      -8.610  -2.343 124.805  0.00  0.00    +0.186 C 
ATOM     11  C   LIG A   1      -5.533  -2.778 125.045  0.00  0.00    +0.058 C 
ATOM     12  C   LIG A   1      -5.783  -2.235 127.461  0.00  0.00    +0.058 C 
ATOM     13  O   LIG A   1     -10.154  -1.051 122.838  0.00  0.00    -0.267 OA
ATOM     14  H   LIG A   1      -9.605   1.299 122.199  0.00  0.00    +0.169 HD
ATOM     15  C   LIG A   1      -7.142   1.189 124.426  0.00  0.00    +0.044 A 
ATOM     16  C   LIG A   1      -6.131   2.006 124.943  0.00  0.00    +0.014 A 
ATOM     17  C   LIG A   1      -5.971   3.314 124.478  0.00  0.00    +0.004 A 
ATOM     18  C   LIG A   1      -6.816   3.822 123.488  0.00  0.00    +0.048 A 
ENDROOT
BRANCH   1  20
ATOM     19  C   LIG A   1      -8.175   3.766 120.716  0.00  0.00    +0.277 C 
ATOM     20  O   LIG A   1      -8.718   3.411 121.982  0.00  0.00    -0.493 OA
ENDBRANCH   1  20
BRANCH  10  21
ATOM     21  O   LIG A   1     -10.000  -2.605 125.047  0.00  0.00    -0.384 OA
ATOM     22  H   LIG A   1     -10.038  -3.480 125.492  0.00  0.00    +0.210 HD
ENDBRANCH  10  21
BRANCH   9  23
ATOM     23  O   LIG A   1      -7.883  -4.058 126.362  0.00  0.00    -0.385 OA
ATOM     24  H   LIG A   1      -8.207  -4.151 127.281  0.00  0.00    +0.210 HD
ENDBRANCH   9  23
TORSDOF 3
ENDMDL
MODEL 8
REMARK VINA RESULT:      -6.4      3.351      6.113
REMARK  Name = NuBBE_941
REMARK  6 active torsions:
REMARK  status: ('A' for Active; 'I' for Inactive)
REMARK    1  A    between atoms: C_1  and  O_2
REMARK    2  A    between atoms: O_2  and  C_3
REMARK    3  A    between atoms: C_10  and  C_17
REMARK    4  A    between atoms: C_10  and  C_18
REMARK    5  A    between atoms: C_11  and  O_16
REMARK    6  A    between atoms: C_13  and  O_15
REMARK                            x       y       z     vdW  Elec       q    Type
REMARK                         _______ _______ _______ _____ _____    ______ ____
ROOT
ATOM      1  C   LIG A   1      -4.066   2.988 126.395  0.00  0.00    +0.144 A 
ATOM      2  C   LIG A   1      -4.954   1.932 126.123  0.00  0.00    +0.095 A 
ATOM      3  N   LIG A   1      -4.734   0.678 126.713  0.00  0.00    -0.319 N 
ATOM      4  C   LIG A   1      -5.526  -0.410 126.508  0.00  0.00    +0.259 A 
ATOM      5  C   LIG A   1      -6.696  -0.241 125.608  0.00  0.00    +0.090 A 
ATOM      6  C   LIG A   1      -6.956   0.955 125.049  0.00  0.00    +0.141 A 
ATOM      7  O   LIG A   1      -8.056   1.219 124.258  0.00  0.00    -0.482 OA
ATOM      8  C   LIG A   1      -9.099   0.220 124.214  0.00  0.00    +0.134 C 
ATOM      9  C   LIG A   1      -8.506  -1.203 124.188  0.00  0.00    +0.191 C 
ATOM     10  C   LIG A   1      -7.576  -1.429 125.390  0.00  0.00    +0.186 C 
ATOM     11  C   LIG A   1     -10.058   0.457 125.392  0.00  0.00    +0.058 C 
ATOM     12  C   LIG A   1      -9.872   0.477 122.911  0.00  0.00    +0.058 C 
ATOM     13  O   LIG A   1      -5.295  -1.495 127.037  0.00  0.00    -0.267 OA
ATOM     14  H   LIG A   1      -3.929   0.574 127.320  0.00  0.00    +0.169 HD
ATOM     15  C   LIG A   1      -6.059   2.100 125.278  0.00  0.00    +0.044 A 
ATOM     16  C   LIG A   1      -6.267   3.354 124.692  0.00  0.00    +0.014 A 
ATOM     17  C   LIG A   1      -5.389   4.409 124.949  0.00  0.00    +0.004 A 
ATOM     18  C   LIG A   1      -4.293   4.229 125.797  0.00  0.00    +0.048 A 
ENDROOT
BRANCH   1  20
ATOM     19  C   LIG A   1      -1.717   3.007 126.795  0.00  0.00    +0.277 C 
ATOM     20  O   LIG A   1      -3.029   2.690 127.243  0.00  0.00    -0.493 OA
ENDBRANCH   1  20
BRANCH  10  21
ATOM     21  O   LIG A   1      -6.831  -2.625 125.117  0.00  0.00    -0.384 OA
ATOM     22  H   LIG A   1      -6.492  -2.531 124.201  0.00  0.00    +0.210 HD
ENDBRANCH  10  21
BRANCH   9  23
ATOM     23  O   LIG A   1      -9.525  -2.212 124.171  0.00  0.00    -0.385 OA
ATOM     24  H   LIG A   1      -9.413  -2.699 125.012  0.00  0.00    +0.210 HD
ENDBRANCH   9  23
TORSDOF 3
ENDMDL
MODEL 9
REMARK VINA RESULT:      -6.4      5.862      7.091
REMARK  Name = NuBBE_941
REMARK  6 active torsions:
REMARK  status: ('A' for Active; 'I' for Inactive)
REMARK    1  A    between atoms: C_1  and  O_2
REMARK    2  A    between atoms: O_2  and  C_3
REMARK    3  A    between atoms: C_10  and  C_17
REMARK    4  A    between atoms: C_10  and  C_18
REMARK    5  A    between atoms: C_11  and  O_16
REMARK    6  A    between atoms: C_13  and  O_15
REMARK                            x       y       z     vdW  Elec       q    Type
REMARK                         _______ _______ _______ _____ _____    ______ ____
ROOT
ATOM      1  C   LIG A   1      -8.171  -1.822 124.839  0.00  0.00    +0.144 A 
ATOM      2  C   LIG A   1      -7.776  -2.172 126.143  0.00  0.00    +0.095 A 
ATOM      3  N   LIG A   1      -8.651  -2.913 126.951  0.00  0.00    -0.319 N 
ATOM      4  C   LIG A   1      -8.370  -3.294 128.228  0.00  0.00    +0.259 A 
ATOM      5  C   LIG A   1      -7.049  -2.899 128.782  0.00  0.00    +0.090 A 
ATOM      6  C   LIG A   1      -6.172  -2.214 128.025  0.00  0.00    +0.141 A 
ATOM      7  O   LIG A   1      -4.900  -1.867 128.433  0.00  0.00    -0.482 OA
ATOM      8  C   LIG A   1      -4.406  -2.466 129.652  0.00  0.00    +0.134 C 
ATOM      9  C   LIG A   1      -5.516  -2.555 130.718  0.00  0.00    +0.191 C 
ATOM     10  C   LIG A   1      -6.730  -3.325 130.179  0.00  0.00    +0.186 C 
ATOM     11  C   LIG A   1      -3.779  -3.829 129.312  0.00  0.00    +0.058 C 
ATOM     12  C   LIG A   1      -3.287  -1.538 130.152  0.00  0.00    +0.058 C 
ATOM     13  O   LIG A   1      -9.167  -3.936 128.909  0.00  0.00    -0.267 OA
ATOM     14  H   LIG A   1      -9.551  -3.170 126.564  0.00  0.00    +0.169 HD
ATOM     15  C   LIG A   1      -6.526  -1.801 126.657  0.00  0.00    +0.044 A 
ATOM     16  C   LIG A   1      -5.662  -1.059 125.843  0.00  0.00    +0.014 A 
ATOM     17  C   LIG A   1      -6.045  -0.700 124.548  0.00  0.00    +0.004 A 
ATOM     18  C   LIG A   1      -7.294  -1.079 124.047  0.00  0.00    +0.048 A 
ENDROOT
BRANCH   1  20
ATOM     19  C   LIG A   1      -9.476  -3.233 123.431  0.00  0.00    +0.277 C 
ATOM     20  O   LIG A   1      -9.417  -2.252 124.459  0.00  0.00    -0.493 OA
ENDBRANCH   1  20
BRANCH  10  21
ATOM     21  O   LIG A   1      -7.812  -3.082 131.090  0.00  0.00    -0.384 OA
ATOM     22  H   LIG A   1      -8.637  -3.206 130.572  0.00  0.00    +0.210 HD
ENDBRANCH  10  21
BRANCH   9  23
ATOM     23  O   LIG A   1      -5.053  -3.172 131.928  0.00  0.00    -0.385 OA
ATOM     24  H   LIG A   1      -4.103  -3.346 131.775  0.00  0.00    +0.210 HD
ENDBRANCH   9  23
TORSDOF 3
ENDMDL
