MODEL 1
REMARK VINA RESULT:      -7.7      0.000      0.000
REMARK  Name = NuBBE_1346
REMARK  7 active torsions:
REMARK  status: ('A' for Active; 'I' for Inactive)
REMARK    1  A    between atoms: C_2  and  O_3
REMARK    2  A    between atoms: C_2  and  C_17
REMARK    3  A    between atoms: O_3  and  C_4
REMARK    4  A    between atoms: C_7  and  C_9
REMARK    5  A    between atoms: C_9  and  C_11
REMARK    6  A    between atoms: C_9  and  C_12
REMARK    7  A    between atoms: C_17  and  C_18
REMARK                            x       y       z     vdW  Elec       q    Type
REMARK                         _______ _______ _______ _____ _____    ______ ____
ROOT
ATOM      1  O   LIG A   1      -9.582  -0.056 124.203  0.00  0.00    -0.456 OA
ENDROOT
BRANCH   1   2
ATOM      2  C   LIG A   1      -8.286  -0.685 124.211  0.00  0.00    +0.207 C 
ATOM      3  C   LIG A   1      -7.802  -0.932 125.644  0.00  0.00    +0.057 C 
ATOM      4  C   LIG A   1      -8.726  -1.898 126.420  0.00  0.00    +0.018 C 
ATOM      5  C   LIG A   1      -9.109  -3.086 125.559  0.00  0.00    -0.023 C 
ATOM      6  C   LIG A   1      -8.933  -3.133 124.229  0.00  0.00    +0.003 C 
ATOM      7  C   LIG A   1      -8.410  -2.008 123.475  0.00  0.00    -0.015 C 
ATOM      8  C   LIG A   1      -8.036  -2.155 122.194  0.00  0.00    +0.016 C 
BRANCH   4   9
ATOM      9  C   LIG A   1      -8.112  -2.339 127.782  0.00  0.00    -0.010 C 
ATOM     10  C   LIG A   1      -8.644  -3.686 128.286  0.00  0.00    +0.008 C 
ATOM     11  C   LIG A   1      -6.579  -2.382 127.729  0.00  0.00    +0.008 C 
ENDBRANCH   4   9
ENDBRANCH   1   2
BRANCH   1  13
ATOM     12  O   LIG A   1     -10.436   0.564 122.162  0.00  0.00    -0.251 OA
ATOM     13  C   LIG A   1      -9.818   0.824 123.194  0.00  0.00    +0.312 C 
BRANCH  13  14
ATOM     14  C   LIG A   1      -9.250   2.180 123.539  0.00  0.00    +0.155 C 
BRANCH  14  15
ATOM     15  C   LIG A   1      -8.296   2.727 122.505  0.00  0.00    -0.037 A 
ATOM     16  C   LIG A   1      -8.766   3.406 121.371  0.00  0.00    +0.004 A 
ATOM     17  C   LIG A   1      -7.868   3.918 120.430  0.00  0.00    +0.000 A 
ATOM     18  C   LIG A   1      -6.495   3.747 120.605  0.00  0.00    +0.000 A 
ATOM     19  C   LIG A   1      -6.019   3.057 121.718  0.00  0.00    +0.000 A 
ATOM     20  C   LIG A   1      -6.914   2.546 122.660  0.00  0.00    +0.004 A 
ENDBRANCH  14  15
ENDBRANCH  13  14
ENDBRANCH   1  13
TORSDOF 5
ENDMDL
MODEL 2
REMARK VINA RESULT:      -7.4      7.734     10.517
REMARK  Name = NuBBE_1346
REMARK  7 active torsions:
REMARK  status: ('A' for Active; 'I' for Inactive)
REMARK    1  A    between atoms: C_2  and  O_3
REMARK    2  A    between atoms: C_2  and  C_17
REMARK    3  A    between atoms: O_3  and  C_4
REMARK    4  A    between atoms: C_7  and  C_9
REMARK    5  A    between atoms: C_9  and  C_11
REMARK    6  A    between atoms: C_9  and  C_12
REMARK    7  A    between atoms: C_17  and  C_18
REMARK                            x       y       z     vdW  Elec       q    Type
REMARK                         _______ _______ _______ _____ _____    ______ ____
ROOT
ATOM      1  O   LIG A   1      -9.533   4.816 129.138  0.00  0.00    -0.456 OA
ENDROOT
BRANCH   1   2
ATOM      2  C   LIG A   1      -9.424   6.232 129.381  0.00  0.00    +0.207 C 
ATOM      3  C   LIG A   1     -10.671   6.973 128.888  0.00  0.00    +0.057 C 
ATOM      4  C   LIG A   1     -11.952   6.531 129.630  0.00  0.00    +0.018 C 
ATOM      5  C   LIG A   1     -11.702   6.428 131.122  0.00  0.00    -0.023 C 
ATOM      6  C   LIG A   1     -10.479   6.414 131.675  0.00  0.00    +0.003 C 
ATOM      7  C   LIG A   1      -9.266   6.433 130.878  0.00  0.00    -0.015 C 
ATOM      8  C   LIG A   1      -8.070   6.643 131.453  0.00  0.00    +0.016 C 
BRANCH   4   9
ATOM      9  C   LIG A   1     -13.171   7.446 129.306  0.00  0.00    -0.010 C 
ATOM     10  C   LIG A   1     -12.847   8.944 129.373  0.00  0.00    +0.008 C 
ATOM     11  C   LIG A   1     -13.784   7.117 127.939  0.00  0.00    +0.008 C 
ENDBRANCH   4   9
ENDBRANCH   1   2
BRANCH   1  13
ATOM     12  O   LIG A   1      -7.466   4.602 128.157  0.00  0.00    -0.251 OA
ATOM     13  C   LIG A   1      -8.373   4.162 128.862  0.00  0.00    +0.312 C 
BRANCH  13  14
ATOM     14  C   LIG A   1      -8.336   2.836 129.584  0.00  0.00    +0.155 C 
BRANCH  14  15
ATOM     15  C   LIG A   1      -8.217   2.956 131.084  0.00  0.00    -0.037 A 
ATOM     16  C   LIG A   1      -6.977   3.179 131.699  0.00  0.00    +0.004 A 
ATOM     17  C   LIG A   1      -6.887   3.301 133.089  0.00  0.00    +0.000 A 
ATOM     18  C   LIG A   1      -8.031   3.191 133.877  0.00  0.00    +0.000 A 
ATOM     19  C   LIG A   1      -9.266   2.950 133.278  0.00  0.00    +0.000 A 
ATOM     20  C   LIG A   1      -9.358   2.829 131.891  0.00  0.00    +0.004 A 
ENDBRANCH  14  15
ENDBRANCH  13  14
ENDBRANCH   1  13
TORSDOF 5
ENDMDL
MODEL 3
REMARK VINA RESULT:      -7.3      3.058      4.883
REMARK  Name = NuBBE_1346
REMARK  7 active torsions:
REMARK  status: ('A' for Active; 'I' for Inactive)
REMARK    1  A    between atoms: C_2  and  O_3
REMARK    2  A    between atoms: C_2  and  C_17
REMARK    3  A    between atoms: O_3  and  C_4
REMARK    4  A    between atoms: C_7  and  C_9
REMARK    5  A    between atoms: C_9  and  C_11
REMARK    6  A    between atoms: C_9  and  C_12
REMARK    7  A    between atoms: C_17  and  C_18
REMARK                            x       y       z     vdW  Elec       q    Type
REMARK                         _______ _______ _______ _____ _____    ______ ____
ROOT
ATOM      1  O   LIG A   1      -5.209  -1.488 125.442  0.00  0.00    -0.456 OA
ENDROOT
BRANCH   1   2
ATOM      2  C   LIG A   1      -5.753  -2.761 125.044  0.00  0.00    +0.207 C 
ATOM      3  C   LIG A   1      -7.278  -2.693 124.917  0.00  0.00    +0.057 C 
ATOM      4  C   LIG A   1      -7.737  -1.697 123.829  0.00  0.00    +0.018 C 
ATOM      5  C   LIG A   1      -6.903  -1.851 122.572  0.00  0.00    -0.023 C 
ATOM      6  C   LIG A   1      -5.743  -2.525 122.522  0.00  0.00    +0.003 C 
ATOM      7  C   LIG A   1      -5.142  -3.123 123.700  0.00  0.00    -0.015 C 
ATOM      8  C   LIG A   1      -4.109  -3.975 123.587  0.00  0.00    +0.016 C 
BRANCH   4   9
ATOM      9  C   LIG A   1      -9.263  -1.804 123.532  0.00  0.00    -0.010 C 
ATOM     10  C   LIG A   1      -9.741  -0.849 122.432  0.00  0.00    +0.008 C 
ATOM     11  C   LIG A   1      -9.675  -3.239 123.179  0.00  0.00    +0.008 C 
ENDBRANCH   4   9
ENDBRANCH   1   2
BRANCH   1  13
ATOM     12  O   LIG A   1      -5.341  -1.909 127.697  0.00  0.00    -0.251 OA
ATOM     13  C   LIG A   1      -5.394  -1.135 126.743  0.00  0.00    +0.312 C 
BRANCH  13  14
ATOM     14  C   LIG A   1      -5.631   0.352 126.854  0.00  0.00    +0.155 C 
BRANCH  14  15
ATOM     15  C   LIG A   1      -6.905   0.821 126.194  0.00  0.00    -0.037 A 
ATOM     16  C   LIG A   1      -8.162   0.462 126.703  0.00  0.00    +0.004 A 
ATOM     17  C   LIG A   1      -9.332   0.916 126.088  0.00  0.00    +0.000 A 
ATOM     18  C   LIG A   1      -9.259   1.722 124.953  0.00  0.00    +0.000 A 
ATOM     19  C   LIG A   1      -8.016   2.069 124.427  0.00  0.00    +0.000 A 
ATOM     20  C   LIG A   1      -6.847   1.618 125.040  0.00  0.00    +0.004 A 
ENDBRANCH  14  15
ENDBRANCH  13  14
ENDBRANCH   1  13
TORSDOF 5
ENDMDL
MODEL 4
REMARK VINA RESULT:      -7.3      3.670      5.250
REMARK  Name = NuBBE_1346
REMARK  7 active torsions:
REMARK  status: ('A' for Active; 'I' for Inactive)
REMARK    1  A    between atoms: C_2  and  O_3
REMARK    2  A    between atoms: C_2  and  C_17
REMARK    3  A    between atoms: O_3  and  C_4
REMARK    4  A    between atoms: C_7  and  C_9
REMARK    5  A    between atoms: C_9  and  C_11
REMARK    6  A    between atoms: C_9  and  C_12
REMARK    7  A    between atoms: C_17  and  C_18
REMARK                            x       y       z     vdW  Elec       q    Type
REMARK                         _______ _______ _______ _____ _____    ______ ____
ROOT
ATOM      1  O   LIG A   1      -8.238  -3.221 126.909  0.00  0.00    -0.456 OA
ENDROOT
BRANCH   1   2
ATOM      2  C   LIG A   1      -7.944  -2.050 127.696  0.00  0.00    +0.207 C 
ATOM      3  C   LIG A   1      -7.352  -2.435 129.056  0.00  0.00    +0.057 C 
ATOM      4  C   LIG A   1      -6.007  -3.183 128.923  0.00  0.00    +0.018 C 
ATOM      5  C   LIG A   1      -5.114  -2.510 127.899  0.00  0.00    -0.023 C 
ATOM      6  C   LIG A   1      -5.548  -1.597 127.016  0.00  0.00    +0.003 C 
ATOM      7  C   LIG A   1      -6.944  -1.211 126.920  0.00  0.00    -0.015 C 
ATOM      8  C   LIG A   1      -7.313  -0.144 126.192  0.00  0.00    +0.016 C 
BRANCH   4   9
ATOM      9  C   LIG A   1      -5.289  -3.359 130.294  0.00  0.00    -0.010 C 
ATOM     10  C   LIG A   1      -5.632  -4.677 131.001  0.00  0.00    +0.008 C 
ATOM     11  C   LIG A   1      -3.766  -3.232 130.161  0.00  0.00    +0.008 C 
ENDBRANCH   4   9
ENDBRANCH   1   2
BRANCH   1  13
ATOM     12  O   LIG A   1     -10.040  -2.279 125.840  0.00  0.00    -0.251 OA
ATOM     13  C   LIG A   1      -9.075  -3.040 125.852  0.00  0.00    +0.312 C 
BRANCH  13  14
ATOM     14  C   LIG A   1      -8.622  -3.876 124.678  0.00  0.00    +0.155 C 
BRANCH  14  15
ATOM     15  C   LIG A   1      -7.282  -3.469 124.115  0.00  0.00    -0.037 A 
ATOM     16  C   LIG A   1      -7.156  -2.357 123.271  0.00  0.00    +0.004 A 
ATOM     17  C   LIG A   1      -5.905  -1.987 122.769  0.00  0.00    +0.000 A 
ATOM     18  C   LIG A   1      -4.772  -2.728 123.096  0.00  0.00    +0.000 A 
ATOM     19  C   LIG A   1      -4.888  -3.847 123.919  0.00  0.00    +0.000 A 
ATOM     20  C   LIG A   1      -6.136  -4.218 124.421  0.00  0.00    +0.004 A 
ENDBRANCH  14  15
ENDBRANCH  13  14
ENDBRANCH   1  13
TORSDOF 5
ENDMDL
MODEL 5
REMARK VINA RESULT:      -7.2      2.402      4.624
REMARK  Name = NuBBE_1346
REMARK  7 active torsions:
REMARK  status: ('A' for Active; 'I' for Inactive)
REMARK    1  A    between atoms: C_2  and  O_3
REMARK    2  A    between atoms: C_2  and  C_17
REMARK    3  A    between atoms: O_3  and  C_4
REMARK    4  A    between atoms: C_7  and  C_9
REMARK    5  A    between atoms: C_9  and  C_11
REMARK    6  A    between atoms: C_9  and  C_12
REMARK    7  A    between atoms: C_17  and  C_18
REMARK                            x       y       z     vdW  Elec       q    Type
REMARK                         _______ _______ _______ _____ _____    ______ ____
ROOT
ATOM      1  O   LIG A   1      -8.058   0.568 124.049  0.00  0.00    -0.456 OA
ENDROOT
BRANCH   1   2
ATOM      2  C   LIG A   1      -8.044   1.196 125.346  0.00  0.00    +0.207 C 
ATOM      3  C   LIG A   1      -8.071   0.149 126.465  0.00  0.00    +0.057 C 
ATOM      4  C   LIG A   1      -6.827  -0.768 126.444  0.00  0.00    +0.018 C 
ATOM      5  C   LIG A   1      -5.564   0.041 126.227  0.00  0.00    -0.023 C 
ATOM      6  C   LIG A   1      -5.556   1.314 125.801  0.00  0.00    +0.003 C 
ATOM      7  C   LIG A   1      -6.773   2.021 125.446  0.00  0.00    -0.015 C 
ATOM      8  C   LIG A   1      -6.760   3.349 125.241  0.00  0.00    +0.016 C 
BRANCH   4   9
ATOM      9  C   LIG A   1      -6.732  -1.666 127.713  0.00  0.00    -0.010 C 
ATOM     10  C   LIG A   1      -7.848  -2.715 127.807  0.00  0.00    +0.008 C 
ATOM     11  C   LIG A   1      -5.368  -2.360 127.821  0.00  0.00    +0.008 C 
ENDBRANCH   4   9
ENDBRANCH   1   2
BRANCH   1  13
ATOM     12  O   LIG A   1     -10.340   0.703 123.809  0.00  0.00    -0.251 OA
ATOM     13  C   LIG A   1      -9.268   0.134 123.604  0.00  0.00    +0.312 C 
BRANCH  13  14
ATOM     14  C   LIG A   1      -9.104  -1.122 122.783  0.00  0.00    +0.155 C 
BRANCH  14  15
ATOM     15  C   LIG A   1      -7.962  -2.002 123.229  0.00  0.00    -0.037 A 
ATOM     16  C   LIG A   1      -6.643  -1.737 122.833  0.00  0.00    +0.004 A 
ATOM     17  C   LIG A   1      -5.595  -2.554 123.266  0.00  0.00    +0.000 A 
ATOM     18  C   LIG A   1      -5.855  -3.649 124.089  0.00  0.00    +0.000 A 
ATOM     19  C   LIG A   1      -7.164  -3.934 124.473  0.00  0.00    +0.000 A 
ATOM     20  C   LIG A   1      -8.211  -3.118 124.042  0.00  0.00    +0.004 A 
ENDBRANCH  14  15
ENDBRANCH  13  14
ENDBRANCH   1  13
TORSDOF 5
ENDMDL
MODEL 6
REMARK VINA RESULT:      -7.1      3.579      5.923
REMARK  Name = NuBBE_1346
REMARK  7 active torsions:
REMARK  status: ('A' for Active; 'I' for Inactive)
REMARK    1  A    between atoms: C_2  and  O_3
REMARK    2  A    between atoms: C_2  and  C_17
REMARK    3  A    between atoms: O_3  and  C_4
REMARK    4  A    between atoms: C_7  and  C_9
REMARK    5  A    between atoms: C_9  and  C_11
REMARK    6  A    between atoms: C_9  and  C_12
REMARK    7  A    between atoms: C_17  and  C_18
REMARK                            x       y       z     vdW  Elec       q    Type
REMARK                         _______ _______ _______ _____ _____    ______ ____
ROOT
ATOM      1  O   LIG A   1      -7.420  -1.996 127.564  0.00  0.00    -0.456 OA
ENDROOT
BRANCH   1   2
ATOM      2  C   LIG A   1      -5.980  -1.970 127.607  0.00  0.00    +0.207 C 
ATOM      3  C   LIG A   1      -5.380  -2.716 126.410  0.00  0.00    +0.057 C 
ATOM      4  C   LIG A   1      -5.757  -2.065 125.060  0.00  0.00    +0.018 C 
ATOM      5  C   LIG A   1      -5.616  -0.557 125.131  0.00  0.00    -0.023 C 
ATOM      6  C   LIG A   1      -5.491   0.129 126.278  0.00  0.00    +0.003 C 
ATOM      7  C   LIG A   1      -5.543  -0.516 127.577  0.00  0.00    -0.015 C 
ATOM      8  C   LIG A   1      -5.194   0.152 128.690  0.00  0.00    +0.016 C 
BRANCH   4   9
ATOM      9  C   LIG A   1      -4.958  -2.669 123.868  0.00  0.00    -0.010 C 
ATOM     10  C   LIG A   1      -4.829  -4.196 123.927  0.00  0.00    +0.008 C 
ATOM     11  C   LIG A   1      -5.554  -2.259 122.515  0.00  0.00    +0.008 C 
ENDBRANCH   4   9
ENDBRANCH   1   2
BRANCH   1  13
ATOM     12  O   LIG A   1      -7.689  -3.727 129.050  0.00  0.00    -0.251 OA
ATOM     13  C   LIG A   1      -8.015  -3.127 128.027  0.00  0.00    +0.312 C 
BRANCH  13  14
ATOM     14  C   LIG A   1      -9.166  -3.519 127.130  0.00  0.00    +0.155 C 
BRANCH  14  15
ATOM     15  C   LIG A   1      -9.130  -2.868 125.768  0.00  0.00    -0.037 A 
ATOM     16  C   LIG A   1      -8.981  -3.632 124.602  0.00  0.00    +0.004 A 
ATOM     17  C   LIG A   1      -8.963  -3.015 123.348  0.00  0.00    +0.000 A 
ATOM     18  C   LIG A   1      -9.082  -1.630 123.247  0.00  0.00    +0.000 A 
ATOM     19  C   LIG A   1      -9.211  -0.859 124.401  0.00  0.00    +0.000 A 
ATOM     20  C   LIG A   1      -9.230  -1.473 125.654  0.00  0.00    +0.004 A 
ENDBRANCH  14  15
ENDBRANCH  13  14
ENDBRANCH   1  13
TORSDOF 5
ENDMDL
MODEL 7
REMARK VINA RESULT:      -7.1      2.060      6.316
REMARK  Name = NuBBE_1346
REMARK  7 active torsions:
REMARK  status: ('A' for Active; 'I' for Inactive)
REMARK    1  A    between atoms: C_2  and  O_3
REMARK    2  A    between atoms: C_2  and  C_17
REMARK    3  A    between atoms: O_3  and  C_4
REMARK    4  A    between atoms: C_7  and  C_9
REMARK    5  A    between atoms: C_9  and  C_11
REMARK    6  A    between atoms: C_9  and  C_12
REMARK    7  A    between atoms: C_17  and  C_18
REMARK                            x       y       z     vdW  Elec       q    Type
REMARK                         _______ _______ _______ _____ _____    ______ ____
ROOT
ATOM      1  O   LIG A   1      -5.864   0.189 125.136  0.00  0.00    -0.456 OA
ENDROOT
BRANCH   1   2
ATOM      2  C   LIG A   1      -6.640   1.333 125.544  0.00  0.00    +0.207 C 
ATOM      3  C   LIG A   1      -6.501   2.479 124.537  0.00  0.00    +0.057 C 
ATOM      4  C   LIG A   1      -7.037   2.103 123.137  0.00  0.00    +0.018 C 
ATOM      5  C   LIG A   1      -8.364   1.378 123.245  0.00  0.00    -0.023 C 
ATOM      6  C   LIG A   1      -8.843   0.862 124.388  0.00  0.00    +0.003 C 
ATOM      7  C   LIG A   1      -8.093   0.898 125.630  0.00  0.00    -0.015 C 
ATOM      8  C   LIG A   1      -8.680   0.581 126.796  0.00  0.00    +0.016 C 
BRANCH   4   9
ATOM      9  C   LIG A   1      -7.122   3.333 122.185  0.00  0.00    -0.010 C 
ATOM     10  C   LIG A   1      -5.993   3.383 121.148  0.00  0.00    +0.008 C 
ATOM     11  C   LIG A   1      -8.477   3.409 121.470  0.00  0.00    +0.008 C 
ENDBRANCH   4   9
ENDBRANCH   1   2
BRANCH   1  13
ATOM     12  O   LIG A   1      -5.384  -0.485 127.280  0.00  0.00    -0.251 OA
ATOM     13  C   LIG A   1      -5.610  -0.739 126.098  0.00  0.00    +0.312 C 
BRANCH  13  14
ATOM     14  C   LIG A   1      -5.690  -2.131 125.516  0.00  0.00    +0.155 C 
BRANCH  14  15
ATOM     15  C   LIG A   1      -6.976  -2.416 124.780  0.00  0.00    -0.037 A 
ATOM     16  C   LIG A   1      -8.105  -2.904 125.453  0.00  0.00    +0.004 A 
ATOM     17  C   LIG A   1      -9.293  -3.150 124.759  0.00  0.00    +0.000 A 
ATOM     18  C   LIG A   1      -9.361  -2.922 123.385  0.00  0.00    +0.000 A 
ATOM     19  C   LIG A   1      -8.240  -2.456 122.702  0.00  0.00    +0.000 A 
ATOM     20  C   LIG A   1      -7.053  -2.208 123.394  0.00  0.00    +0.004 A 
ENDBRANCH  14  15
ENDBRANCH  13  14
ENDBRANCH   1  13
TORSDOF 5
ENDMDL
MODEL 8
REMARK VINA RESULT:      -7.0      7.556     10.798
REMARK  Name = NuBBE_1346
REMARK  7 active torsions:
REMARK  status: ('A' for Active; 'I' for Inactive)
REMARK    1  A    between atoms: C_2  and  O_3
REMARK    2  A    between atoms: C_2  and  C_17
REMARK    3  A    between atoms: O_3  and  C_4
REMARK    4  A    between atoms: C_7  and  C_9
REMARK    5  A    between atoms: C_9  and  C_11
REMARK    6  A    between atoms: C_9  and  C_12
REMARK    7  A    between atoms: C_17  and  C_18
REMARK                            x       y       z     vdW  Elec       q    Type
REMARK                         _______ _______ _______ _____ _____    ______ ____
ROOT
ATOM      1  O   LIG A   1     -10.849   4.182 130.170  0.00  0.00    -0.456 OA
ENDROOT
BRANCH   1   2
ATOM      2  C   LIG A   1     -10.143   5.425 130.353  0.00  0.00    +0.207 C 
ATOM      3  C   LIG A   1     -10.530   6.442 129.275  0.00  0.00    +0.057 C 
ATOM      4  C   LIG A   1     -12.029   6.816 129.327  0.00  0.00    +0.018 C 
ATOM      5  C   LIG A   1     -12.475   7.055 130.756  0.00  0.00    -0.023 C 
ATOM      6  C   LIG A   1     -11.762   6.690 131.833  0.00  0.00    +0.003 C 
ATOM      7  C   LIG A   1     -10.509   5.966 131.725  0.00  0.00    -0.015 C 
ATOM      8  C   LIG A   1      -9.711   5.811 132.794  0.00  0.00    +0.016 C 
BRANCH   4   9
ATOM      9  C   LIG A   1     -12.372   8.020 128.400  0.00  0.00    -0.010 C 
ATOM     10  C   LIG A   1     -12.839   9.266 129.162  0.00  0.00    +0.008 C 
ATOM     11  C   LIG A   1     -11.195   8.390 127.488  0.00  0.00    +0.008 C 
ENDBRANCH   4   9
ENDBRANCH   1   2
BRANCH   1  13
ATOM     12  O   LIG A   1      -9.296   2.702 129.348  0.00  0.00    -0.251 OA
ATOM     13  C   LIG A   1     -10.096   3.050 130.215  0.00  0.00    +0.312 C 
BRANCH  13  14
ATOM     14  C   LIG A   1     -10.351   2.303 131.502  0.00  0.00    +0.155 C 
BRANCH  14  15
ATOM     15  C   LIG A   1      -9.143   1.572 132.036  0.00  0.00    -0.037 A 
ATOM     16  C   LIG A   1      -8.150   2.244 132.763  0.00  0.00    +0.004 A 
ATOM     17  C   LIG A   1      -7.044   1.549 133.262  0.00  0.00    +0.000 A 
ATOM     18  C   LIG A   1      -6.914   0.181 133.030  0.00  0.00    +0.000 A 
ATOM     19  C   LIG A   1      -7.884  -0.494 132.292  0.00  0.00    +0.000 A 
ATOM     20  C   LIG A   1      -8.990   0.199 131.794  0.00  0.00    +0.004 A 
ENDBRANCH  14  15
ENDBRANCH  13  14
ENDBRANCH   1  13
TORSDOF 5
ENDMDL
MODEL 9
REMARK VINA RESULT:      -6.9      1.644      6.802
REMARK  Name = NuBBE_1346
REMARK  7 active torsions:
REMARK  status: ('A' for Active; 'I' for Inactive)
REMARK    1  A    between atoms: C_2  and  O_3
REMARK    2  A    between atoms: C_2  and  C_17
REMARK    3  A    between atoms: O_3  and  C_4
REMARK    4  A    between atoms: C_7  and  C_9
REMARK    5  A    between atoms: C_9  and  C_11
REMARK    6  A    between atoms: C_9  and  C_12
REMARK    7  A    between atoms: C_17  and  C_18
REMARK                            x       y       z     vdW  Elec       q    Type
REMARK                         _______ _______ _______ _____ _____    ______ ____
ROOT
ATOM      1  O   LIG A   1      -7.609  -0.647 123.671  0.00  0.00    -0.456 OA
ENDROOT
BRANCH   1   2
ATOM      2  C   LIG A   1      -7.524   0.436 124.618  0.00  0.00    +0.207 C 
ATOM      3  C   LIG A   1      -6.663   1.579 124.072  0.00  0.00    +0.057 C 
ATOM      4  C   LIG A   1      -7.258   2.206 122.791  0.00  0.00    +0.018 C 
ATOM      5  C   LIG A   1      -8.752   2.419 122.939  0.00  0.00    -0.023 C 
ATOM      6  C   LIG A   1      -9.494   1.859 123.906  0.00  0.00    +0.003 C 
ATOM      7  C   LIG A   1      -8.936   0.935 124.877  0.00  0.00    -0.015 C 
ATOM      8  C   LIG A   1      -9.641   0.567 125.959  0.00  0.00    +0.016 C 
BRANCH   4   9
ATOM      9  C   LIG A   1      -6.521   3.515 122.375  0.00  0.00    -0.010 C 
ATOM     10  C   LIG A   1      -5.654   4.110 123.491  0.00  0.00    +0.008 C 
ATOM     11  C   LIG A   1      -5.668   3.313 121.117  0.00  0.00    +0.008 C 
ENDBRANCH   4   9
ENDBRANCH   1   2
BRANCH   1  13
ATOM     12  O   LIG A   1      -5.658  -1.844 123.868  0.00  0.00    -0.251 OA
ATOM     13  C   LIG A   1      -6.881  -1.759 123.962  0.00  0.00    +0.312 C 
BRANCH  13  14
ATOM     14  C   LIG A   1      -7.787  -2.861 124.459  0.00  0.00    +0.155 C 
BRANCH  14  15
ATOM     15  C   LIG A   1      -7.870  -2.955 125.963  0.00  0.00    -0.037 A 
ATOM     16  C   LIG A   1      -8.909  -3.658 126.590  0.00  0.00    +0.004 A 
ATOM     17  C   LIG A   1      -8.963  -3.746 127.984  0.00  0.00    +0.000 A 
ATOM     18  C   LIG A   1      -7.989  -3.125 128.764  0.00  0.00    +0.000 A 
ATOM     19  C   LIG A   1      -6.963  -2.408 128.152  0.00  0.00    +0.000 A 
ATOM     20  C   LIG A   1      -6.906  -2.319 126.760  0.00  0.00    +0.004 A 
ENDBRANCH  14  15
ENDBRANCH  13  14
ENDBRANCH   1  13
TORSDOF 5
ENDMDL
