MODEL 1
REMARK VINA RESULT:      -7.5      0.000      0.000
REMARK  Name = NuBBE_1559
REMARK  6 active torsions:
REMARK  status: ('A' for Active; 'I' for Inactive)
REMARK    1  A    between atoms: C_3  and  C_14
REMARK    2  A    between atoms: C_8  and  O_9
REMARK    3  A    between atoms: C_11  and  O_13
REMARK    4  A    between atoms: C_15  and  O_16
REMARK    5  A    between atoms: C_18  and  O_21
REMARK    6  A    between atoms: O_21  and  C_22
REMARK                            x       y       z     vdW  Elec       q    Type
REMARK                         _______ _______ _______ _____ _____    ______ ____
ROOT
ATOM      1  O   LIG A   1      -9.364   5.060 129.091  0.00  0.00    -0.286 OA
ATOM      2  C   LIG A   1     -10.113   5.588 129.908  0.00  0.00    +0.204 A 
ATOM      3  C   LIG A   1     -10.224   5.122 131.323  0.00  0.00    +0.068 A 
ATOM      4  C   LIG A   1     -11.081   5.817 132.091  0.00  0.00    +0.208 A 
ATOM      5  O   LIG A   1     -11.877   6.873 131.713  0.00  0.00    -0.462 OA
ATOM      6  C   LIG A   1     -11.783   7.317 130.420  0.00  0.00    +0.145 A 
ATOM      7  C   LIG A   1     -10.925   6.739 129.491  0.00  0.00    +0.106 A 
ATOM      8  C   LIG A   1     -10.851   7.260 128.193  0.00  0.00    +0.135 A 
ATOM      9  C   LIG A   1     -11.637   8.350 127.826  0.00  0.00    +0.091 A 
ATOM     10  C   LIG A   1     -12.499   8.910 128.763  0.00  0.00    +0.124 A 
ATOM     11  C   LIG A   1     -12.581   8.401 130.057  0.00  0.00    +0.092 A 
ENDROOT
BRANCH   3  12
ATOM     12  C   LIG A   1      -9.452   3.968 131.862  0.00  0.00    +0.030 A 
ATOM     13  C   LIG A   1      -8.282   4.090 132.634  0.00  0.00    +0.128 A 
ATOM     14  C   LIG A   1      -7.583   2.974 133.103  0.00  0.00    +0.091 A 
ATOM     15  C   LIG A   1      -8.032   1.690 132.826  0.00  0.00    +0.124 A 
ATOM     16  C   LIG A   1      -9.196   1.534 132.077  0.00  0.00    +0.046 A 
ATOM     17  C   LIG A   1      -9.887   2.653 131.594  0.00  0.00    +0.016 A 
BRANCH  13  18
ATOM     18  O   LIG A   1      -7.737   5.286 133.016  0.00  0.00    -0.506 OA
ATOM     19  H   LIG A   1      -7.123   5.572 132.307  0.00  0.00    +0.292 HD
ENDBRANCH  13  18
BRANCH  15  20
ATOM     20  O   LIG A   1      -7.427   0.531 133.227  0.00  0.00    -0.495 OA
ATOM     21  C   LIG A   1      -7.674  -0.614 132.415  0.00  0.00    +0.277 C 
ENDBRANCH  15  20
ENDBRANCH   3  12
BRANCH   8  22
ATOM     22  O   LIG A   1     -10.024   6.754 127.226  0.00  0.00    -0.506 OA
ATOM     23  H   LIG A   1      -9.110   7.067 127.409  0.00  0.00    +0.292 HD
ENDBRANCH   8  22
BRANCH  10  24
ATOM     24  O   LIG A   1     -13.289   9.975 128.450  0.00  0.00    -0.506 OA
ATOM     25  H   LIG A   1     -13.037  10.728 129.013  0.00  0.00    +0.292 HD
ENDBRANCH  10  24
TORSDOF 5
ENDMDL
MODEL 2
REMARK VINA RESULT:      -7.5      1.028      1.501
REMARK  Name = NuBBE_1559
REMARK  6 active torsions:
REMARK  status: ('A' for Active; 'I' for Inactive)
REMARK    1  A    between atoms: C_3  and  C_14
REMARK    2  A    between atoms: C_8  and  O_9
REMARK    3  A    between atoms: C_11  and  O_13
REMARK    4  A    between atoms: C_15  and  O_16
REMARK    5  A    between atoms: C_18  and  O_21
REMARK    6  A    between atoms: O_21  and  C_22
REMARK                            x       y       z     vdW  Elec       q    Type
REMARK                         _______ _______ _______ _____ _____    ______ ____
ROOT
ATOM      1  O   LIG A   1      -9.353   5.198 129.199  0.00  0.00    -0.286 OA
ATOM      2  C   LIG A   1     -10.101   5.759 129.994  0.00  0.00    +0.204 A 
ATOM      3  C   LIG A   1     -10.170   5.388 131.439  0.00  0.00    +0.068 A 
ATOM      4  C   LIG A   1     -11.033   6.110 132.177  0.00  0.00    +0.208 A 
ATOM      5  O   LIG A   1     -11.866   7.114 131.746  0.00  0.00    -0.462 OA
ATOM      6  C   LIG A   1     -11.810   7.472 130.424  0.00  0.00    +0.145 A 
ATOM      7  C   LIG A   1     -10.953   6.856 129.518  0.00  0.00    +0.106 A 
ATOM      8  C   LIG A   1     -10.920   7.289 128.186  0.00  0.00    +0.135 A 
ATOM      9  C   LIG A   1     -11.744   8.330 127.763  0.00  0.00    +0.091 A 
ATOM     10  C   LIG A   1     -12.604   8.928 128.679  0.00  0.00    +0.124 A 
ATOM     11  C   LIG A   1     -12.646   8.507 130.006  0.00  0.00    +0.092 A 
ENDROOT
BRANCH   3  12
ATOM     12  C   LIG A   1      -9.355   4.295 132.038  0.00  0.00    +0.030 A 
ATOM     13  C   LIG A   1      -9.701   2.932 131.989  0.00  0.00    +0.128 A 
ATOM     14  C   LIG A   1      -8.910   1.944 132.582  0.00  0.00    +0.091 A 
ATOM     15  C   LIG A   1      -7.733   2.279 133.240  0.00  0.00    +0.124 A 
ATOM     16  C   LIG A   1      -7.353   3.618 133.292  0.00  0.00    +0.046 A 
ATOM     17  C   LIG A   1      -8.155   4.609 132.711  0.00  0.00    +0.016 A 
BRANCH  13  18
ATOM     18  O   LIG A   1     -10.810   2.445 131.351  0.00  0.00    -0.506 OA
ATOM     19  H   LIG A   1     -10.762   2.731 130.415  0.00  0.00    +0.292 HD
ENDBRANCH  13  18
BRANCH  15  20
ATOM     20  O   LIG A   1      -6.888   1.400 133.858  0.00  0.00    -0.495 OA
ATOM     21  C   LIG A   1      -6.533   0.243 133.104  0.00  0.00    +0.277 C 
ENDBRANCH  15  20
ENDBRANCH   3  12
BRANCH   8  22
ATOM     22  O   LIG A   1     -10.098   6.742 127.238  0.00  0.00    -0.506 OA
ATOM     23  H   LIG A   1     -10.464   6.960 126.352  0.00  0.00    +0.292 HD
ENDBRANCH   8  22
BRANCH  10  24
ATOM     24  O   LIG A   1     -13.430   9.947 128.312  0.00  0.00    -0.506 OA
ATOM     25  H   LIG A   1     -12.898  10.648 127.897  0.00  0.00    +0.292 HD
ENDBRANCH  10  24
TORSDOF 5
ENDMDL
MODEL 3
REMARK VINA RESULT:      -7.5      1.225      7.392
REMARK  Name = NuBBE_1559
REMARK  6 active torsions:
REMARK  status: ('A' for Active; 'I' for Inactive)
REMARK    1  A    between atoms: C_3  and  C_14
REMARK    2  A    between atoms: C_8  and  O_9
REMARK    3  A    between atoms: C_11  and  O_13
REMARK    4  A    between atoms: C_15  and  O_16
REMARK    5  A    between atoms: C_18  and  O_21
REMARK    6  A    between atoms: O_21  and  C_22
REMARK                            x       y       z     vdW  Elec       q    Type
REMARK                         _______ _______ _______ _____ _____    ______ ____
ROOT
ATOM      1  O   LIG A   1      -9.247   6.499 132.450  0.00  0.00    -0.286 OA
ATOM      2  C   LIG A   1      -9.646   5.471 131.909  0.00  0.00    +0.204 A 
ATOM      3  C   LIG A   1     -10.693   5.471 130.844  0.00  0.00    +0.068 A 
ATOM      4  C   LIG A   1     -11.008   4.262 130.347  0.00  0.00    +0.208 A 
ATOM      5  O   LIG A   1     -10.500   3.042 130.728  0.00  0.00    -0.462 OA
ATOM      6  C   LIG A   1      -9.532   3.025 131.698  0.00  0.00    +0.145 A 
ATOM      7  C   LIG A   1      -9.060   4.184 132.306  0.00  0.00    +0.106 A 
ATOM      8  C   LIG A   1      -8.047   4.102 133.269  0.00  0.00    +0.135 A 
ATOM      9  C   LIG A   1      -7.514   2.865 133.627  0.00  0.00    +0.091 A 
ATOM     10  C   LIG A   1      -8.006   1.714 133.020  0.00  0.00    +0.124 A 
ATOM     11  C   LIG A   1      -9.012   1.783 132.060  0.00  0.00    +0.092 A 
ENDROOT
BRANCH   3  12
ATOM     12  C   LIG A   1     -11.359   6.712 130.359  0.00  0.00    +0.030 A 
ATOM     13  C   LIG A   1     -10.957   7.430 129.218  0.00  0.00    +0.128 A 
ATOM     14  C   LIG A   1     -11.605   8.601 128.812  0.00  0.00    +0.091 A 
ATOM     15  C   LIG A   1     -12.688   9.095 129.528  0.00  0.00    +0.124 A 
ATOM     16  C   LIG A   1     -13.121   8.399 130.653  0.00  0.00    +0.046 A 
ATOM     17  C   LIG A   1     -12.461   7.234 131.068  0.00  0.00    +0.016 A 
BRANCH  13  18
ATOM     18  O   LIG A   1      -9.931   7.052 128.395  0.00  0.00    -0.506 OA
ATOM     19  H   LIG A   1      -9.969   6.077 128.305  0.00  0.00    +0.292 HD
ENDBRANCH  13  18
BRANCH  15  20
ATOM     20  O   LIG A   1     -13.391  10.229 129.227  0.00  0.00    -0.495 OA
ATOM     21  C   LIG A   1     -13.495  11.192 130.272  0.00  0.00    +0.277 C 
ENDBRANCH  15  20
ENDBRANCH   3  12
BRANCH   8  22
ATOM     22  O   LIG A   1      -7.522   5.196 133.903  0.00  0.00    -0.506 OA
ATOM     23  H   LIG A   1      -6.614   5.346 133.555  0.00  0.00    +0.292 HD
ENDBRANCH   8  22
BRANCH  10  24
ATOM     24  O   LIG A   1      -7.517   0.483 133.340  0.00  0.00    -0.506 OA
ATOM     25  H   LIG A   1      -6.659   0.362 132.897  0.00  0.00    +0.292 HD
ENDBRANCH  10  24
TORSDOF 5
ENDMDL
MODEL 4
REMARK VINA RESULT:      -7.4      1.311      7.181
REMARK  Name = NuBBE_1559
REMARK  6 active torsions:
REMARK  status: ('A' for Active; 'I' for Inactive)
REMARK    1  A    between atoms: C_3  and  C_14
REMARK    2  A    between atoms: C_8  and  O_9
REMARK    3  A    between atoms: C_11  and  O_13
REMARK    4  A    between atoms: C_15  and  O_16
REMARK    5  A    between atoms: C_18  and  O_21
REMARK    6  A    between atoms: O_21  and  C_22
REMARK                            x       y       z     vdW  Elec       q    Type
REMARK                         _______ _______ _______ _____ _____    ______ ____
ROOT
ATOM      1  O   LIG A   1     -10.120   4.405 129.428  0.00  0.00    -0.286 OA
ATOM      2  C   LIG A   1      -9.891   4.647 130.610  0.00  0.00    +0.204 A 
ATOM      3  C   LIG A   1     -10.355   5.895 131.285  0.00  0.00    +0.068 A 
ATOM      4  C   LIG A   1     -10.030   6.000 132.586  0.00  0.00    +0.208 A 
ATOM      5  O   LIG A   1      -9.303   5.111 133.341  0.00  0.00    -0.462 OA
ATOM      6  C   LIG A   1      -8.876   3.956 132.739  0.00  0.00    +0.145 A 
ATOM      7  C   LIG A   1      -9.146   3.663 131.407  0.00  0.00    +0.106 A 
ATOM      8  C   LIG A   1      -8.708   2.451 130.858  0.00  0.00    +0.135 A 
ATOM      9  C   LIG A   1      -7.999   1.540 131.639  0.00  0.00    +0.091 A 
ATOM     10  C   LIG A   1      -7.727   1.853 132.966  0.00  0.00    +0.124 A 
ATOM     11  C   LIG A   1      -8.157   3.055 133.523  0.00  0.00    +0.092 A 
ENDROOT
BRANCH   3  12
ATOM     12  C   LIG A   1     -11.118   6.964 130.582  0.00  0.00    +0.030 A 
ATOM     13  C   LIG A   1     -10.686   7.601 129.404  0.00  0.00    +0.128 A 
ATOM     14  C   LIG A   1     -11.432   8.612 128.791  0.00  0.00    +0.091 A 
ATOM     15  C   LIG A   1     -12.647   9.019 129.326  0.00  0.00    +0.124 A 
ATOM     16  C   LIG A   1     -13.112   8.397 130.482  0.00  0.00    +0.046 A 
ATOM     17  C   LIG A   1     -12.355   7.395 131.105  0.00  0.00    +0.016 A 
BRANCH  13  18
ATOM     18  O   LIG A   1      -9.530   7.286 128.743  0.00  0.00    -0.506 OA
ATOM     19  H   LIG A   1      -9.132   8.125 128.427  0.00  0.00    +0.292 HD
ENDBRANCH  13  18
BRANCH  15  20
ATOM     20  O   LIG A   1     -13.454   9.997 128.815  0.00  0.00    -0.495 OA
ATOM     21  C   LIG A   1     -13.713  11.103 129.676  0.00  0.00    +0.277 C 
ENDBRANCH  15  20
ENDBRANCH   3  12
BRANCH   8  22
ATOM     22  O   LIG A   1      -8.943   2.085 129.560  0.00  0.00    -0.506 OA
ATOM     23  H   LIG A   1      -9.237   1.146 129.554  0.00  0.00    +0.292 HD
ENDBRANCH   8  22
BRANCH  10  24
ATOM     24  O   LIG A   1      -7.035   0.995 133.768  0.00  0.00    -0.506 OA
ATOM     25  H   LIG A   1      -6.243   0.691 133.291  0.00  0.00    +0.292 HD
ENDBRANCH  10  24
TORSDOF 5
ENDMDL
MODEL 5
REMARK VINA RESULT:      -7.0      7.620     10.704
REMARK  Name = NuBBE_1559
REMARK  6 active torsions:
REMARK  status: ('A' for Active; 'I' for Inactive)
REMARK    1  A    between atoms: C_3  and  C_14
REMARK    2  A    between atoms: C_8  and  O_9
REMARK    3  A    between atoms: C_11  and  O_13
REMARK    4  A    between atoms: C_15  and  O_16
REMARK    5  A    between atoms: C_18  and  O_21
REMARK    6  A    between atoms: O_21  and  C_22
REMARK                            x       y       z     vdW  Elec       q    Type
REMARK                         _______ _______ _______ _____ _____    ______ ____
ROOT
ATOM      1  O   LIG A   1      -9.190  -0.958 123.827  0.00  0.00    -0.286 OA
ATOM      2  C   LIG A   1      -8.492  -0.598 124.771  0.00  0.00    +0.204 A 
ATOM      3  C   LIG A   1      -7.724   0.683 124.768  0.00  0.00    +0.068 A 
ATOM      4  C   LIG A   1      -7.019   0.933 125.886  0.00  0.00    +0.208 A 
ATOM      5  O   LIG A   1      -6.906   0.135 127.000  0.00  0.00    -0.462 OA
ATOM      6  C   LIG A   1      -7.609  -1.040 127.022  0.00  0.00    +0.145 A 
ATOM      7  C   LIG A   1      -8.418  -1.449 125.967  0.00  0.00    +0.106 A 
ATOM      8  C   LIG A   1      -9.136  -2.647 126.064  0.00  0.00    +0.135 A 
ATOM      9  C   LIG A   1      -9.042  -3.434 127.209  0.00  0.00    +0.091 A 
ATOM     10  C   LIG A   1      -8.220  -3.018 128.251  0.00  0.00    +0.124 A 
ATOM     11  C   LIG A   1      -7.501  -1.829 128.167  0.00  0.00    +0.092 A 
ENDROOT
BRANCH   3  12
ATOM     12  C   LIG A   1      -7.722   1.627 123.616  0.00  0.00    +0.030 A 
ATOM     13  C   LIG A   1      -8.881   2.203 123.064  0.00  0.00    +0.128 A 
ATOM     14  C   LIG A   1      -8.829   3.071 121.969  0.00  0.00    +0.091 A 
ATOM     15  C   LIG A   1      -7.611   3.406 121.390  0.00  0.00    +0.124 A 
ATOM     16  C   LIG A   1      -6.444   2.866 121.922  0.00  0.00    +0.046 A 
ATOM     17  C   LIG A   1      -6.499   1.982 123.009  0.00  0.00    +0.016 A 
BRANCH  13  18
ATOM     18  O   LIG A   1     -10.145   1.996 123.546  0.00  0.00    -0.506 OA
ATOM     19  H   LIG A   1     -10.391   2.780 124.079  0.00  0.00    +0.292 HD
ENDBRANCH  13  18
BRANCH  15  20
ATOM     20  O   LIG A   1      -7.443   4.238 120.317  0.00  0.00    -0.495 OA
ATOM     21  C   LIG A   1      -6.094   4.544 119.973  0.00  0.00    +0.277 C 
ENDBRANCH  15  20
ENDBRANCH   3  12
BRANCH   8  22
ATOM     22  O   LIG A   1      -9.961  -3.111 125.073  0.00  0.00    -0.506 OA
ATOM     23  H   LIG A   1     -10.515  -3.832 125.449  0.00  0.00    +0.292 HD
ENDBRANCH   8  22
BRANCH  10  24
ATOM     24  O   LIG A   1      -8.093  -3.756 129.390  0.00  0.00    -0.506 OA
ATOM     25  H   LIG A   1      -7.793  -4.650 129.152  0.00  0.00    +0.292 HD
ENDBRANCH  10  24
TORSDOF 5
ENDMDL
MODEL 6
REMARK VINA RESULT:      -7.0      2.400      3.635
REMARK  Name = NuBBE_1559
REMARK  6 active torsions:
REMARK  status: ('A' for Active; 'I' for Inactive)
REMARK    1  A    between atoms: C_3  and  C_14
REMARK    2  A    between atoms: C_8  and  O_9
REMARK    3  A    between atoms: C_11  and  O_13
REMARK    4  A    between atoms: C_15  and  O_16
REMARK    5  A    between atoms: C_18  and  O_21
REMARK    6  A    between atoms: O_21  and  C_22
REMARK                            x       y       z     vdW  Elec       q    Type
REMARK                         _______ _______ _______ _____ _____    ______ ____
ROOT
ATOM      1  O   LIG A   1     -10.951   6.497 132.708  0.00  0.00    -0.286 OA
ATOM      2  C   LIG A   1     -10.386   6.366 131.626  0.00  0.00    +0.204 A 
ATOM      3  C   LIG A   1      -8.983   5.870 131.500  0.00  0.00    +0.068 A 
ATOM      4  C   LIG A   1      -8.519   5.773 130.241  0.00  0.00    +0.208 A 
ATOM      5  O   LIG A   1      -9.174   6.105 129.080  0.00  0.00    -0.462 OA
ATOM      6  C   LIG A   1     -10.464   6.555 129.177  0.00  0.00    +0.145 A 
ATOM      7  C   LIG A   1     -11.120   6.691 130.396  0.00  0.00    +0.106 A 
ATOM      8  C   LIG A   1     -12.451   7.127 130.426  0.00  0.00    +0.135 A 
ATOM      9  C   LIG A   1     -13.120   7.431 129.242  0.00  0.00    +0.091 A 
ATOM     10  C   LIG A   1     -12.446   7.302 128.032  0.00  0.00    +0.124 A 
ATOM     11  C   LIG A   1     -11.123   6.869 127.989  0.00  0.00    +0.092 A 
ENDROOT
BRANCH   3  12
ATOM     12  C   LIG A   1      -8.141   5.509 132.674  0.00  0.00    +0.030 A 
ATOM     13  C   LIG A   1      -8.569   4.688 133.733  0.00  0.00    +0.128 A 
ATOM     14  C   LIG A   1      -7.745   4.391 134.823  0.00  0.00    +0.091 A 
ATOM     15  C   LIG A   1      -6.453   4.897 134.891  0.00  0.00    +0.124 A 
ATOM     16  C   LIG A   1      -5.992   5.699 133.851  0.00  0.00    +0.046 A 
ATOM     17  C   LIG A   1      -6.825   6.009 132.767  0.00  0.00    +0.016 A 
BRANCH  13  18
ATOM     18  O   LIG A   1      -9.800   4.091 133.791  0.00  0.00    -0.506 OA
ATOM     19  H   LIG A   1      -9.716   3.200 133.392  0.00  0.00    +0.292 HD
ENDBRANCH  13  18
BRANCH  15  20
ATOM     20  O   LIG A   1      -5.565   4.677 135.907  0.00  0.00    -0.495 OA
ATOM     21  C   LIG A   1      -5.883   5.290 137.154  0.00  0.00    +0.277 C 
ENDBRANCH  15  20
ENDBRANCH   3  12
BRANCH   8  22
ATOM     22  O   LIG A   1     -13.168   7.274 131.583  0.00  0.00    -0.506 OA
ATOM     23  H   LIG A   1     -14.114   7.397 131.345  0.00  0.00    +0.292 HD
ENDBRANCH   8  22
BRANCH  10  24
ATOM     24  O   LIG A   1     -13.057   7.591 126.848  0.00  0.00    -0.506 OA
ATOM     25  H   LIG A   1     -12.890   6.864 126.224  0.00  0.00    +0.292 HD
ENDBRANCH  10  24
TORSDOF 5
ENDMDL
MODEL 7
REMARK VINA RESULT:      -7.0      1.791      7.238
REMARK  Name = NuBBE_1559
REMARK  6 active torsions:
REMARK  status: ('A' for Active; 'I' for Inactive)
REMARK    1  A    between atoms: C_3  and  C_14
REMARK    2  A    between atoms: C_8  and  O_9
REMARK    3  A    between atoms: C_11  and  O_13
REMARK    4  A    between atoms: C_15  and  O_16
REMARK    5  A    between atoms: C_18  and  O_21
REMARK    6  A    between atoms: O_21  and  C_22
REMARK                            x       y       z     vdW  Elec       q    Type
REMARK                         _______ _______ _______ _____ _____    ______ ____
ROOT
ATOM      1  O   LIG A   1      -9.991   4.051 129.624  0.00  0.00    -0.286 OA
ATOM      2  C   LIG A   1      -9.184   4.623 130.353  0.00  0.00    +0.204 A 
ATOM      3  C   LIG A   1      -9.322   6.057 130.743  0.00  0.00    +0.068 A 
ATOM      4  C   LIG A   1      -8.359   6.527 131.557  0.00  0.00    +0.208 A 
ATOM      5  O   LIG A   1      -7.263   5.848 132.034  0.00  0.00    -0.462 OA
ATOM      6  C   LIG A   1      -7.125   4.529 131.692  0.00  0.00    +0.145 A 
ATOM      7  C   LIG A   1      -8.042   3.866 130.883  0.00  0.00    +0.106 A 
ATOM      8  C   LIG A   1      -7.862   2.507 130.594  0.00  0.00    +0.135 A 
ATOM      9  C   LIG A   1      -6.766   1.818 131.108  0.00  0.00    +0.091 A 
ATOM     10  C   LIG A   1      -5.851   2.498 131.906  0.00  0.00    +0.124 A 
ATOM     11  C   LIG A   1      -6.020   3.848 132.200  0.00  0.00    +0.092 A 
ENDROOT
BRANCH   3  12
ATOM     12  C   LIG A   1     -10.437   6.925 130.271  0.00  0.00    +0.030 A 
ATOM     13  C   LIG A   1     -11.725   6.937 130.837  0.00  0.00    +0.128 A 
ATOM     14  C   LIG A   1     -12.744   7.758 130.346  0.00  0.00    +0.091 A 
ATOM     15  C   LIG A   1     -12.511   8.610 129.273  0.00  0.00    +0.124 A 
ATOM     16  C   LIG A   1     -11.243   8.634 128.700  0.00  0.00    +0.046 A 
ATOM     17  C   LIG A   1     -10.226   7.798 129.183  0.00  0.00    +0.016 A 
BRANCH  13  18
ATOM     18  O   LIG A   1     -12.095   6.181 131.916  0.00  0.00    -0.506 OA
ATOM     19  H   LIG A   1     -11.296   6.040 132.467  0.00  0.00    +0.292 HD
ENDBRANCH  13  18
BRANCH  15  20
ATOM     20  O   LIG A   1     -13.431   9.450 128.709  0.00  0.00    -0.495 OA
ATOM     21  C   LIG A   1     -13.587  10.717 129.342  0.00  0.00    +0.277 C 
ENDBRANCH  15  20
ENDBRANCH   3  12
BRANCH   8  22
ATOM     22  O   LIG A   1      -8.725   1.783 129.816  0.00  0.00    -0.506 OA
ATOM     23  H   LIG A   1      -8.437   1.867 128.879  0.00  0.00    +0.292 HD
ENDBRANCH   8  22
BRANCH  10  24
ATOM     24  O   LIG A   1      -4.763   1.866 132.429  0.00  0.00    -0.506 OA
ATOM     25  H   LIG A   1      -5.000   0.943 132.625  0.00  0.00    +0.292 HD
ENDBRANCH  10  24
TORSDOF 5
ENDMDL
MODEL 8
REMARK VINA RESULT:      -6.5      8.789      9.466
REMARK  Name = NuBBE_1559
REMARK  6 active torsions:
REMARK  status: ('A' for Active; 'I' for Inactive)
REMARK    1  A    between atoms: C_3  and  C_14
REMARK    2  A    between atoms: C_8  and  O_9
REMARK    3  A    between atoms: C_11  and  O_13
REMARK    4  A    between atoms: C_15  and  O_16
REMARK    5  A    between atoms: C_18  and  O_21
REMARK    6  A    between atoms: O_21  and  C_22
REMARK                            x       y       z     vdW  Elec       q    Type
REMARK                         _______ _______ _______ _____ _____    ______ ____
ROOT
ATOM      1  O   LIG A   1      -5.591  -2.070 128.071  0.00  0.00    -0.286 OA
ATOM      2  C   LIG A   1      -6.704  -2.570 127.935  0.00  0.00    +0.204 A 
ATOM      3  C   LIG A   1      -7.376  -3.355 129.013  0.00  0.00    +0.068 A 
ATOM      4  C   LIG A   1      -8.599  -3.823 128.705  0.00  0.00    +0.208 A 
ATOM      5  O   LIG A   1      -9.273  -3.685 127.515  0.00  0.00    -0.462 OA
ATOM      6  C   LIG A   1      -8.674  -2.960 126.518  0.00  0.00    +0.145 A 
ATOM      7  C   LIG A   1      -7.421  -2.375 126.668  0.00  0.00    +0.106 A 
ATOM      8  C   LIG A   1      -6.876  -1.620 125.622  0.00  0.00    +0.135 A 
ATOM      9  C   LIG A   1      -7.579  -1.457 124.430  0.00  0.00    +0.091 A 
ATOM     10  C   LIG A   1      -8.825  -2.059 124.291  0.00  0.00    +0.124 A 
ATOM     11  C   LIG A   1      -9.378  -2.812 125.324  0.00  0.00    +0.092 A 
ENDROOT
BRANCH   3  12
ATOM     12  C   LIG A   1      -6.750  -3.618 130.338  0.00  0.00    +0.030 A 
ATOM     13  C   LIG A   1      -6.957  -2.825 131.482  0.00  0.00    +0.128 A 
ATOM     14  C   LIG A   1      -6.332  -3.103 132.701  0.00  0.00    +0.091 A 
ATOM     15  C   LIG A   1      -5.481  -4.194 132.827  0.00  0.00    +0.124 A 
ATOM     16  C   LIG A   1      -5.268  -5.008 131.718  0.00  0.00    +0.046 A 
ATOM     17  C   LIG A   1      -5.882  -4.719 130.492  0.00  0.00    +0.016 A 
BRANCH  13  18
ATOM     18  O   LIG A   1      -7.791  -1.740 131.522  0.00  0.00    -0.506 OA
ATOM     19  H   LIG A   1      -7.800  -1.340 130.627  0.00  0.00    +0.292 HD
ENDBRANCH  13  18
BRANCH  15  20
ATOM     20  O   LIG A   1      -4.815  -4.556 133.965  0.00  0.00    -0.495 OA
ATOM     21  C   LIG A   1      -3.933  -5.669 133.842  0.00  0.00    +0.277 C 
ENDBRANCH  15  20
ENDBRANCH   3  12
BRANCH   8  22
ATOM     22  O   LIG A   1      -5.655  -1.004 125.696  0.00  0.00    -0.506 OA
ATOM     23  H   LIG A   1      -5.225  -1.068 124.814  0.00  0.00    +0.292 HD
ENDBRANCH   8  22
BRANCH  10  24
ATOM     24  O   LIG A   1      -9.549  -1.931 123.143  0.00  0.00    -0.506 OA
ATOM     25  H   LIG A   1     -10.428  -2.324 123.281  0.00  0.00    +0.292 HD
ENDBRANCH  10  24
TORSDOF 5
ENDMDL
MODEL 9
REMARK VINA RESULT:      -6.5      8.648      9.718
REMARK  Name = NuBBE_1559
REMARK  6 active torsions:
REMARK  status: ('A' for Active; 'I' for Inactive)
REMARK    1  A    between atoms: C_3  and  C_14
REMARK    2  A    between atoms: C_8  and  O_9
REMARK    3  A    between atoms: C_11  and  O_13
REMARK    4  A    between atoms: C_15  and  O_16
REMARK    5  A    between atoms: C_18  and  O_21
REMARK    6  A    between atoms: O_21  and  C_22
REMARK                            x       y       z     vdW  Elec       q    Type
REMARK                         _______ _______ _______ _____ _____    ______ ____
ROOT
ATOM      1  O   LIG A   1      -8.960  -3.400 128.138  0.00  0.00    -0.286 OA
ATOM      2  C   LIG A   1      -7.899  -3.030 127.644  0.00  0.00    +0.204 A 
ATOM      3  C   LIG A   1      -6.640  -2.898 128.436  0.00  0.00    +0.068 A 
ATOM      4  C   LIG A   1      -5.562  -2.492 127.739  0.00  0.00    +0.208 A 
ATOM      5  O   LIG A   1      -5.504  -2.162 126.406  0.00  0.00    -0.462 OA
ATOM      6  C   LIG A   1      -6.648  -2.285 125.663  0.00  0.00    +0.145 A 
ATOM      7  C   LIG A   1      -7.852  -2.720 126.208  0.00  0.00    +0.106 A 
ATOM      8  C   LIG A   1      -8.979  -2.855 125.389  0.00  0.00    +0.135 A 
ATOM      9  C   LIG A   1      -8.904  -2.549 124.031  0.00  0.00    +0.091 A 
ATOM     10  C   LIG A   1      -7.697  -2.103 123.504  0.00  0.00    +0.124 A 
ATOM     11  C   LIG A   1      -6.568  -1.966 124.308  0.00  0.00    +0.092 A 
ENDROOT
BRANCH   3  12
ATOM     12  C   LIG A   1      -6.564  -3.184 129.895  0.00  0.00    +0.030 A 
ATOM     13  C   LIG A   1      -7.262  -2.462 130.880  0.00  0.00    +0.128 A 
ATOM     14  C   LIG A   1      -7.144  -2.759 132.241  0.00  0.00    +0.091 A 
ATOM     15  C   LIG A   1      -6.329  -3.799 132.670  0.00  0.00    +0.124 A 
ATOM     16  C   LIG A   1      -5.638  -4.544 131.720  0.00  0.00    +0.046 A 
ATOM     17  C   LIG A   1      -5.744  -4.236 130.357  0.00  0.00    +0.016 A 
BRANCH  13  18
ATOM     18  O   LIG A   1      -8.125  -1.435 130.610  0.00  0.00    -0.506 OA
ATOM     19  H   LIG A   1      -8.964  -1.829 130.293  0.00  0.00    +0.292 HD
ENDBRANCH  13  18
BRANCH  15  20
ATOM     20  O   LIG A   1      -6.135  -4.174 133.972  0.00  0.00    -0.495 OA
ATOM     21  C   LIG A   1      -5.779  -5.537 134.180  0.00  0.00    +0.277 C 
ENDBRANCH  15  20
ENDBRANCH   3  12
BRANCH   8  22
ATOM     22  O   LIG A   1     -10.195  -3.287 125.848  0.00  0.00    -0.506 OA
ATOM     23  H   LIG A   1     -10.551  -2.606 126.461  0.00  0.00    +0.292 HD
ENDBRANCH   8  22
BRANCH  10  24
ATOM     24  O   LIG A   1      -7.575  -1.789 122.183  0.00  0.00    -0.506 OA
ATOM     25  H   LIG A   1      -7.178  -0.905 122.106  0.00  0.00    +0.292 HD
ENDBRANCH  10  24
TORSDOF 5
ENDMDL
