MODEL 1
REMARK VINA RESULT:      -6.9      0.000      0.000
REMARK  Name = NuBBE_2060
REMARK  9 active torsions:
REMARK  status: ('A' for Active; 'I' for Inactive)
REMARK    1  A    between atoms: C_5  and  O_6
REMARK    2  A    between atoms: O_6  and  C_7
REMARK    3  A    between atoms: C_8  and  O_9
REMARK    4  A    between atoms: O_9  and  C_10
REMARK    5  A    between atoms: C_10  and  C_11
REMARK    6  A    between atoms: C_13  and  C_14
REMARK    7  A    between atoms: C_13  and  C_15
REMARK    8  A    between atoms: C_16  and  O_21
REMARK    9  A    between atoms: O_21  and  C_22
REMARK                            x       y       z     vdW  Elec       q    Type
REMARK                         _______ _______ _______ _____ _____    ______ ____
ROOT
ATOM      1  O   LIG A   1      -7.837   4.093 119.417  0.00  0.00    -0.245 OA
ATOM      2  C   LIG A   1      -7.437   3.902 120.565  0.00  0.00    +0.337 A 
ATOM      3  O   LIG A   1      -8.267   3.368 121.553  0.00  0.00    -0.418 OA
ATOM      4  C   LIG A   1      -7.778   3.006 122.817  0.00  0.00    +0.184 A 
ATOM      5  C   LIG A   1      -8.597   2.298 123.719  0.00  0.00    +0.209 A 
ATOM      6  C   LIG A   1      -8.080   1.984 125.003  0.00  0.00    +0.208 A 
ATOM      7  C   LIG A   1      -6.760   2.392 125.318  0.00  0.00    +0.166 A 
ATOM      8  C   LIG A   1      -5.967   3.059 124.386  0.00  0.00    +0.061 A 
ATOM      9  C   LIG A   1      -6.469   3.365 123.132  0.00  0.00    +0.025 A 
ATOM     10  C   LIG A   1      -5.606   4.012 122.168  0.00  0.00    +0.019 A 
ATOM     11  C   LIG A   1      -6.046   4.269 120.934  0.00  0.00    +0.092 A 
ENDROOT
BRANCH   5  12
ATOM     12  O   LIG A   1      -9.885   1.903 123.476  0.00  0.00    -0.488 OA
ATOM     13  C   LIG A   1     -10.140   0.755 122.682  0.00  0.00    +0.277 C 
ENDBRANCH   5  12
BRANCH   7  14
ATOM     14  O   LIG A   1      -6.070   2.195 126.487  0.00  0.00    -0.491 OA
ATOM     15  C   LIG A   1      -4.685   1.959 126.333  0.00  0.00    +0.277 C 
ENDBRANCH   7  14
BRANCH   6  16
ATOM     16  O   LIG A   1      -8.788   1.326 125.996  0.00  0.00    -0.482 OA
BRANCH  16  17
ATOM     17  C   LIG A   1      -8.313   0.044 126.447  0.00  0.00    +0.264 C 
BRANCH  17  18
ATOM     18  C   LIG A   1      -8.497  -1.016 125.391  0.00  0.00    +0.188 C 
ATOM     19  O   LIG A   1      -9.842  -1.552 125.436  0.00  0.00    -0.362 OA
ATOM     20  C   LIG A   1      -8.788  -2.502 125.606  0.00  0.00    +0.094 C 
ATOM     21  C   LIG A   1      -8.673  -3.433 124.425  0.00  0.00    +0.044 C 
ATOM     22  C   LIG A   1      -8.697  -3.069 126.990  0.00  0.00    +0.044 C 
ENDBRANCH  17  18
ENDBRANCH  16  17
ENDBRANCH   6  16
TORSDOF 5
ENDMDL
MODEL 2
REMARK VINA RESULT:      -6.7      1.706      3.349
REMARK  Name = NuBBE_2060
REMARK  9 active torsions:
REMARK  status: ('A' for Active; 'I' for Inactive)
REMARK    1  A    between atoms: C_5  and  O_6
REMARK    2  A    between atoms: O_6  and  C_7
REMARK    3  A    between atoms: C_8  and  O_9
REMARK    4  A    between atoms: O_9  and  C_10
REMARK    5  A    between atoms: C_10  and  C_11
REMARK    6  A    between atoms: C_13  and  C_14
REMARK    7  A    between atoms: C_13  and  C_15
REMARK    8  A    between atoms: C_16  and  O_21
REMARK    9  A    between atoms: O_21  and  C_22
REMARK                            x       y       z     vdW  Elec       q    Type
REMARK                         _______ _______ _______ _____ _____    ______ ____
ROOT
ATOM      1  O   LIG A   1      -4.303   5.732 120.576  0.00  0.00    -0.245 OA
ATOM      2  C   LIG A   1      -5.257   5.019 120.884  0.00  0.00    +0.337 A 
ATOM      3  O   LIG A   1      -5.385   4.474 122.164  0.00  0.00    -0.418 OA
ATOM      4  C   LIG A   1      -6.540   3.789 122.566  0.00  0.00    +0.184 A 
ATOM      5  C   LIG A   1      -6.714   3.420 123.916  0.00  0.00    +0.209 A 
ATOM      6  C   LIG A   1      -7.877   2.693 124.279  0.00  0.00    +0.208 A 
ATOM      7  C   LIG A   1      -8.817   2.375 123.266  0.00  0.00    +0.166 A 
ATOM      8  C   LIG A   1      -8.628   2.788 121.948  0.00  0.00    +0.061 A 
ATOM      9  C   LIG A   1      -7.494   3.499 121.593  0.00  0.00    +0.025 A 
ATOM     10  C   LIG A   1      -7.351   3.960 120.229  0.00  0.00    +0.019 A 
ATOM     11  C   LIG A   1      -6.294   4.694 119.872  0.00  0.00    +0.092 A 
ENDROOT
BRANCH   5  12
ATOM     12  O   LIG A   1      -5.827   3.679 124.926  0.00  0.00    -0.488 OA
ATOM     13  C   LIG A   1      -5.869   4.922 125.610  0.00  0.00    +0.277 C 
ENDBRANCH   5  12
BRANCH   7  14
ATOM     14  O   LIG A   1      -9.996   1.688 123.393  0.00  0.00    -0.491 OA
ATOM     15  C   LIG A   1     -10.158   0.605 122.499  0.00  0.00    +0.277 C 
ENDBRANCH   7  14
BRANCH   6  16
ATOM     16  O   LIG A   1      -8.154   2.239 125.557  0.00  0.00    -0.482 OA
BRANCH  16  17
ATOM     17  C   LIG A   1      -7.410   1.116 126.066  0.00  0.00    +0.264 C 
BRANCH  17  18
ATOM     18  C   LIG A   1      -8.137  -0.182 125.826  0.00  0.00    +0.188 C 
ATOM     19  O   LIG A   1      -7.257  -1.309 126.054  0.00  0.00    -0.362 OA
ATOM     20  C   LIG A   1      -7.840  -1.230 124.752  0.00  0.00    +0.094 C 
ATOM     21  C   LIG A   1      -8.850  -2.326 124.520  0.00  0.00    +0.044 C 
ATOM     22  C   LIG A   1      -6.862  -0.902 123.666  0.00  0.00    +0.044 C 
ENDBRANCH  17  18
ENDBRANCH  16  17
ENDBRANCH   6  16
TORSDOF 5
ENDMDL
MODEL 3
REMARK VINA RESULT:      -6.5      7.194      9.612
REMARK  Name = NuBBE_2060
REMARK  9 active torsions:
REMARK  status: ('A' for Active; 'I' for Inactive)
REMARK    1  A    between atoms: C_5  and  O_6
REMARK    2  A    between atoms: O_6  and  C_7
REMARK    3  A    between atoms: C_8  and  O_9
REMARK    4  A    between atoms: O_9  and  C_10
REMARK    5  A    between atoms: C_10  and  C_11
REMARK    6  A    between atoms: C_13  and  C_14
REMARK    7  A    between atoms: C_13  and  C_15
REMARK    8  A    between atoms: C_16  and  O_21
REMARK    9  A    between atoms: O_21  and  C_22
REMARK                            x       y       z     vdW  Elec       q    Type
REMARK                         _______ _______ _______ _____ _____    ______ ____
ROOT
ATOM      1  O   LIG A   1     -12.682   7.081 127.726  0.00  0.00    -0.245 OA
ATOM      2  C   LIG A   1     -12.144   6.808 128.798  0.00  0.00    +0.337 A 
ATOM      3  O   LIG A   1     -10.869   6.240 128.857  0.00  0.00    -0.418 OA
ATOM      4  C   LIG A   1     -10.189   6.068 130.072  0.00  0.00    +0.184 A 
ATOM      5  C   LIG A   1      -8.837   5.671 130.079  0.00  0.00    +0.209 A 
ATOM      6  C   LIG A   1      -8.193   5.469 131.327  0.00  0.00    +0.208 A 
ATOM      7  C   LIG A   1      -8.940   5.682 132.513  0.00  0.00    +0.166 A 
ATOM      8  C   LIG A   1     -10.266   6.110 132.467  0.00  0.00    +0.061 A 
ATOM      9  C   LIG A   1     -10.894   6.309 131.249  0.00  0.00    +0.025 A 
ATOM     10  C   LIG A   1     -12.254   6.803 131.232  0.00  0.00    +0.019 A 
ATOM     11  C   LIG A   1     -12.866   7.056 130.072  0.00  0.00    +0.092 A 
ENDROOT
BRANCH   5  12
ATOM     12  O   LIG A   1      -8.079   5.426 128.965  0.00  0.00    -0.488 OA
ATOM     13  C   LIG A   1      -8.053   4.128 128.392  0.00  0.00    +0.277 C 
ENDBRANCH   5  12
BRANCH   7  14
ATOM     14  O   LIG A   1      -8.521   5.546 133.812  0.00  0.00    -0.491 OA
ATOM     15  C   LIG A   1      -8.603   4.236 134.334  0.00  0.00    +0.277 C 
ENDBRANCH   7  14
BRANCH   6  16
ATOM     16  O   LIG A   1      -6.884   5.045 131.477  0.00  0.00    -0.482 OA
BRANCH  16  17
ATOM     17  C   LIG A   1      -5.916   5.971 132.005  0.00  0.00    +0.264 C 
BRANCH  17  18
ATOM     18  C   LIG A   1      -5.574   7.044 131.003  0.00  0.00    +0.188 C 
ATOM     19  O   LIG A   1      -5.023   6.459 129.797  0.00  0.00    -0.362 OA
ATOM     20  C   LIG A   1      -4.190   7.408 130.465  0.00  0.00    +0.094 C 
ATOM     21  C   LIG A   1      -4.040   8.682 129.673  0.00  0.00    +0.044 C 
ATOM     22  C   LIG A   1      -2.978   6.806 131.108  0.00  0.00    +0.044 C 
ENDBRANCH  17  18
ENDBRANCH  16  17
ENDBRANCH   6  16
TORSDOF 5
ENDMDL
MODEL 4
REMARK VINA RESULT:      -6.3      3.058      4.886
REMARK  Name = NuBBE_2060
REMARK  9 active torsions:
REMARK  status: ('A' for Active; 'I' for Inactive)
REMARK    1  A    between atoms: C_5  and  O_6
REMARK    2  A    between atoms: O_6  and  C_7
REMARK    3  A    between atoms: C_8  and  O_9
REMARK    4  A    between atoms: O_9  and  C_10
REMARK    5  A    between atoms: C_10  and  C_11
REMARK    6  A    between atoms: C_13  and  C_14
REMARK    7  A    between atoms: C_13  and  C_15
REMARK    8  A    between atoms: C_16  and  O_21
REMARK    9  A    between atoms: O_21  and  C_22
REMARK                            x       y       z     vdW  Elec       q    Type
REMARK                         _______ _______ _______ _____ _____    ______ ____
ROOT
ATOM      1  O   LIG A   1      -4.071   5.504 121.388  0.00  0.00    -0.245 OA
ATOM      2  C   LIG A   1      -4.972   4.817 121.866  0.00  0.00    +0.337 A 
ATOM      3  O   LIG A   1      -5.248   4.814 123.236  0.00  0.00    -0.418 OA
ATOM      4  C   LIG A   1      -6.367   4.156 123.766  0.00  0.00    +0.184 A 
ATOM      5  C   LIG A   1      -6.719   4.332 125.120  0.00  0.00    +0.209 A 
ATOM      6  C   LIG A   1      -7.834   3.619 125.631  0.00  0.00    +0.208 A 
ATOM      7  C   LIG A   1      -8.549   2.765 124.754  0.00  0.00    +0.166 A 
ATOM      8  C   LIG A   1      -8.192   2.645 123.411  0.00  0.00    +0.061 A 
ATOM      9  C   LIG A   1      -7.105   3.341 122.911  0.00  0.00    +0.025 A 
ATOM     10  C   LIG A   1      -6.791   3.237 121.502  0.00  0.00    +0.019 A 
ATOM     11  C   LIG A   1      -5.782   3.940 120.982  0.00  0.00    +0.092 A 
ENDROOT
BRANCH   5  12
ATOM     12  O   LIG A   1      -6.049   5.122 126.015  0.00  0.00    -0.488 OA
ATOM     13  C   LIG A   1      -4.889   4.631 126.669  0.00  0.00    +0.277 C 
ENDBRANCH   5  12
BRANCH   7  14
ATOM     14  O   LIG A   1      -9.645   1.991 125.034  0.00  0.00    -0.491 OA
ATOM     15  C   LIG A   1     -10.238   1.364 123.915  0.00  0.00    +0.277 C 
ENDBRANCH   7  14
BRANCH   6  16
ATOM     16  O   LIG A   1      -8.265   3.671 126.946  0.00  0.00    -0.482 OA
BRANCH  16  17
ATOM     17  C   LIG A   1      -7.809   2.658 127.861  0.00  0.00    +0.264 C 
BRANCH  17  18
ATOM     18  C   LIG A   1      -8.656   2.618 129.107  0.00  0.00    +0.188 C 
ATOM     19  O   LIG A   1      -9.447   3.825 129.226  0.00  0.00    -0.362 OA
ATOM     20  C   LIG A   1      -8.572   3.545 130.320  0.00  0.00    +0.094 C 
ATOM     21  C   LIG A   1      -9.332   3.168 131.567  0.00  0.00    +0.044 C 
ATOM     22  C   LIG A   1      -7.417   4.493 130.433  0.00  0.00    +0.044 C 
ENDBRANCH  17  18
ENDBRANCH  16  17
ENDBRANCH   6  16
TORSDOF 5
ENDMDL
MODEL 5
REMARK VINA RESULT:      -6.2      2.338      7.323
REMARK  Name = NuBBE_2060
REMARK  9 active torsions:
REMARK  status: ('A' for Active; 'I' for Inactive)
REMARK    1  A    between atoms: C_5  and  O_6
REMARK    2  A    between atoms: O_6  and  C_7
REMARK    3  A    between atoms: C_8  and  O_9
REMARK    4  A    between atoms: O_9  and  C_10
REMARK    5  A    between atoms: C_10  and  C_11
REMARK    6  A    between atoms: C_13  and  C_14
REMARK    7  A    between atoms: C_13  and  C_15
REMARK    8  A    between atoms: C_16  and  O_21
REMARK    9  A    between atoms: O_21  and  C_22
REMARK                            x       y       z     vdW  Elec       q    Type
REMARK                         _______ _______ _______ _____ _____    ______ ____
ROOT
ATOM      1  O   LIG A   1      -6.290  -1.878 131.116  0.00  0.00    -0.245 OA
ATOM      2  C   LIG A   1      -6.929  -2.085 130.086  0.00  0.00    +0.337 A 
ATOM      3  O   LIG A   1      -7.199  -1.066 129.170  0.00  0.00    -0.418 OA
ATOM      4  C   LIG A   1      -7.791  -1.324 127.925  0.00  0.00    +0.184 A 
ATOM      5  C   LIG A   1      -7.873  -0.307 126.953  0.00  0.00    +0.209 A 
ATOM      6  C   LIG A   1      -8.514  -0.595 125.720  0.00  0.00    +0.208 A 
ATOM      7  C   LIG A   1      -9.039  -1.896 125.520  0.00  0.00    +0.166 A 
ATOM      8  C   LIG A   1      -8.906  -2.887 126.491  0.00  0.00    +0.061 A 
ATOM      9  C   LIG A   1      -8.279  -2.609 127.694  0.00  0.00    +0.025 A 
ATOM     10  C   LIG A   1      -8.110  -3.671 128.661  0.00  0.00    +0.019 A 
ATOM     11  C   LIG A   1      -7.461  -3.444 129.806  0.00  0.00    +0.092 A 
ENDROOT
BRANCH   5  12
ATOM     12  O   LIG A   1      -7.408   0.971 127.104  0.00  0.00    -0.488 OA
ATOM     13  C   LIG A   1      -8.207   1.948 127.756  0.00  0.00    +0.277 C 
ENDBRANCH   5  12
BRANCH   7  14
ATOM     14  O   LIG A   1      -9.690  -2.385 124.416  0.00  0.00    -0.491 OA
ATOM     15  C   LIG A   1      -8.938  -3.284 123.626  0.00  0.00    +0.277 C 
ENDBRANCH   7  14
BRANCH   6  16
ATOM     16  O   LIG A   1      -8.696   0.320 124.696  0.00  0.00    -0.482 OA
BRANCH  16  17
ATOM     17  C   LIG A   1      -7.835   0.246 123.545  0.00  0.00    +0.264 C 
BRANCH  17  18
ATOM     18  C   LIG A   1      -6.917   1.439 123.464  0.00  0.00    +0.188 C 
ATOM     19  O   LIG A   1      -7.398   2.511 124.310  0.00  0.00    -0.362 OA
ATOM     20  C   LIG A   1      -7.246   2.831 122.926  0.00  0.00    +0.094 C 
ATOM     21  C   LIG A   1      -6.112   3.798 122.693  0.00  0.00    +0.044 C 
ATOM     22  C   LIG A   1      -8.543   3.045 122.205  0.00  0.00    +0.044 C 
ENDBRANCH  17  18
ENDBRANCH  16  17
ENDBRANCH   6  16
TORSDOF 5
ENDMDL
MODEL 6
REMARK VINA RESULT:      -6.2      2.357      4.009
REMARK  Name = NuBBE_2060
REMARK  9 active torsions:
REMARK  status: ('A' for Active; 'I' for Inactive)
REMARK    1  A    between atoms: C_5  and  O_6
REMARK    2  A    between atoms: O_6  and  C_7
REMARK    3  A    between atoms: C_8  and  O_9
REMARK    4  A    between atoms: O_9  and  C_10
REMARK    5  A    between atoms: C_10  and  C_11
REMARK    6  A    between atoms: C_13  and  C_14
REMARK    7  A    between atoms: C_13  and  C_15
REMARK    8  A    between atoms: C_16  and  O_21
REMARK    9  A    between atoms: O_21  and  C_22
REMARK                            x       y       z     vdW  Elec       q    Type
REMARK                         _______ _______ _______ _____ _____    ______ ____
ROOT
ATOM      1  O   LIG A   1      -4.052   5.690 121.326  0.00  0.00    -0.245 OA
ATOM      2  C   LIG A   1      -5.015   4.963 121.567  0.00  0.00    +0.337 A 
ATOM      3  O   LIG A   1      -5.379   4.635 122.875  0.00  0.00    -0.418 OA
ATOM      4  C   LIG A   1      -6.560   3.936 123.163  0.00  0.00    +0.184 A 
ATOM      5  C   LIG A   1      -6.992   3.790 124.497  0.00  0.00    +0.209 A 
ATOM      6  C   LIG A   1      -8.171   3.042 124.752  0.00  0.00    +0.208 A 
ATOM      7  C   LIG A   1      -8.865   2.480 123.652  0.00  0.00    +0.166 A 
ATOM      8  C   LIG A   1      -8.427   2.677 122.343  0.00  0.00    +0.061 A 
ATOM      9  C   LIG A   1      -7.278   3.408 122.092  0.00  0.00    +0.025 A 
ATOM     10  C   LIG A   1      -6.878   3.639 120.721  0.00  0.00    +0.019 A 
ATOM     11  C   LIG A   1      -5.804   4.386 120.449  0.00  0.00    +0.092 A 
ENDROOT
BRANCH   5  12
ATOM     12  O   LIG A   1      -6.347   4.288 125.596  0.00  0.00    -0.488 OA
ATOM     13  C   LIG A   1      -5.177   3.650 126.086  0.00  0.00    +0.277 C 
ENDBRANCH   5  12
BRANCH   7  14
ATOM     14  O   LIG A   1     -10.013   1.730 123.670  0.00  0.00    -0.491 OA
ATOM     15  C   LIG A   1     -10.097   0.739 122.665  0.00  0.00    +0.277 C 
ENDBRANCH   7  14
BRANCH   6  16
ATOM     16  O   LIG A   1      -8.685   2.791 126.013  0.00  0.00    -0.482 OA
BRANCH  16  17
ATOM     17  C   LIG A   1      -8.254   1.606 126.709  0.00  0.00    +0.264 C 
BRANCH  17  18
ATOM     18  C   LIG A   1      -8.371   1.771 128.203  0.00  0.00    +0.188 C 
ATOM     19  O   LIG A   1      -7.060   1.770 128.820  0.00  0.00    -0.362 OA
ATOM     20  C   LIG A   1      -7.965   0.767 129.284  0.00  0.00    +0.094 C 
ATOM     21  C   LIG A   1      -8.409   1.022 130.703  0.00  0.00    +0.044 C 
ATOM     22  C   LIG A   1      -7.589  -0.626 128.880  0.00  0.00    +0.044 C 
ENDBRANCH  17  18
ENDBRANCH  16  17
ENDBRANCH   6  16
TORSDOF 5
ENDMDL
MODEL 7
REMARK VINA RESULT:      -6.0      6.592      8.802
REMARK  Name = NuBBE_2060
REMARK  9 active torsions:
REMARK  status: ('A' for Active; 'I' for Inactive)
REMARK    1  A    between atoms: C_5  and  O_6
REMARK    2  A    between atoms: O_6  and  C_7
REMARK    3  A    between atoms: C_8  and  O_9
REMARK    4  A    between atoms: O_9  and  C_10
REMARK    5  A    between atoms: C_10  and  C_11
REMARK    6  A    between atoms: C_13  and  C_14
REMARK    7  A    between atoms: C_13  and  C_15
REMARK    8  A    between atoms: C_16  and  O_21
REMARK    9  A    between atoms: O_21  and  C_22
REMARK                            x       y       z     vdW  Elec       q    Type
REMARK                         _______ _______ _______ _____ _____    ______ ____
ROOT
ATOM      1  O   LIG A   1     -13.268   6.588 128.231  0.00  0.00    -0.245 OA
ATOM      2  C   LIG A   1     -12.554   6.411 129.217  0.00  0.00    +0.337 A 
ATOM      3  O   LIG A   1     -11.494   5.500 129.204  0.00  0.00    -0.418 OA
ATOM      4  C   LIG A   1     -10.585   5.404 130.267  0.00  0.00    +0.184 A 
ATOM      5  C   LIG A   1      -9.424   4.615 130.140  0.00  0.00    +0.209 A 
ATOM      6  C   LIG A   1      -8.548   4.511 131.250  0.00  0.00    +0.208 A 
ATOM      7  C   LIG A   1      -8.877   5.211 132.438  0.00  0.00    +0.166 A 
ATOM      8  C   LIG A   1     -10.016   6.011 132.514  0.00  0.00    +0.061 A 
ATOM      9  C   LIG A   1     -10.871   6.115 131.430  0.00  0.00    +0.025 A 
ATOM     10  C   LIG A   1     -12.016   6.994 131.521  0.00  0.00    +0.019 A 
ATOM     11  C   LIG A   1     -12.828   7.156 130.472  0.00  0.00    +0.092 A 
ENDROOT
BRANCH   5  12
ATOM     12  O   LIG A   1      -9.073   3.899 129.027  0.00  0.00    -0.488 OA
ATOM     13  C   LIG A   1      -8.276   4.497 128.016  0.00  0.00    +0.277 C 
ENDBRANCH   5  12
BRANCH   7  14
ATOM     14  O   LIG A   1      -8.179   5.250 133.618  0.00  0.00    -0.491 OA
ATOM     15  C   LIG A   1      -8.449   4.186 134.508  0.00  0.00    +0.277 C 
ENDBRANCH   7  14
BRANCH   6  16
ATOM     16  O   LIG A   1      -7.396   3.743 131.273  0.00  0.00    -0.482 OA
BRANCH  16  17
ATOM     17  C   LIG A   1      -6.131   4.390 131.038  0.00  0.00    +0.264 C 
BRANCH  17  18
ATOM     18  C   LIG A   1      -5.348   3.694 129.953  0.00  0.00    +0.188 C 
ATOM     19  O   LIG A   1      -4.378   2.785 130.527  0.00  0.00    -0.362 OA
ATOM     20  C   LIG A   1      -3.849   3.801 129.674  0.00  0.00    +0.094 C 
ATOM     21  C   LIG A   1      -3.317   3.231 128.383  0.00  0.00    +0.044 C 
ATOM     22  C   LIG A   1      -3.047   4.843 130.393  0.00  0.00    +0.044 C 
ENDBRANCH  17  18
ENDBRANCH  16  17
ENDBRANCH   6  16
TORSDOF 5
ENDMDL
MODEL 8
REMARK VINA RESULT:      -5.9      4.514      7.464
REMARK  Name = NuBBE_2060
REMARK  9 active torsions:
REMARK  status: ('A' for Active; 'I' for Inactive)
REMARK    1  A    between atoms: C_5  and  O_6
REMARK    2  A    between atoms: O_6  and  C_7
REMARK    3  A    between atoms: C_8  and  O_9
REMARK    4  A    between atoms: O_9  and  C_10
REMARK    5  A    between atoms: C_10  and  C_11
REMARK    6  A    between atoms: C_13  and  C_14
REMARK    7  A    between atoms: C_13  and  C_15
REMARK    8  A    between atoms: C_16  and  O_21
REMARK    9  A    between atoms: O_21  and  C_22
REMARK                            x       y       z     vdW  Elec       q    Type
REMARK                         _______ _______ _______ _____ _____    ______ ____
ROOT
ATOM      1  O   LIG A   1      -9.423  -1.016 124.311  0.00  0.00    -0.245 OA
ATOM      2  C   LIG A   1      -9.013  -1.560 125.335  0.00  0.00    +0.337 A 
ATOM      3  O   LIG A   1      -8.311  -0.853 126.313  0.00  0.00    -0.418 OA
ATOM      4  C   LIG A   1      -7.976  -1.428 127.548  0.00  0.00    +0.184 A 
ATOM      5  C   LIG A   1      -7.438  -0.631 128.580  0.00  0.00    +0.209 A 
ATOM      6  C   LIG A   1      -7.075  -1.255 129.801  0.00  0.00    +0.208 A 
ATOM      7  C   LIG A   1      -7.274  -2.653 129.931  0.00  0.00    +0.166 A 
ATOM      8  C   LIG A   1      -7.843  -3.401 128.901  0.00  0.00    +0.061 A 
ATOM      9  C   LIG A   1      -8.199  -2.793 127.709  0.00  0.00    +0.025 A 
ATOM     10  C   LIG A   1      -8.835  -3.586 126.679  0.00  0.00    +0.019 A 
ATOM     11  C   LIG A   1      -9.239  -3.014 125.541  0.00  0.00    +0.092 A 
ENDROOT
BRANCH   5  12
ATOM     12  O   LIG A   1      -7.201   0.714 128.498  0.00  0.00    -0.488 OA
ATOM     13  C   LIG A   1      -8.266   1.637 128.668  0.00  0.00    +0.277 C 
ENDBRANCH   5  12
BRANCH   7  14
ATOM     14  O   LIG A   1      -6.997  -3.450 131.011  0.00  0.00    -0.491 OA
ATOM     15  C   LIG A   1      -5.867  -4.287 130.864  0.00  0.00    +0.277 C 
ENDBRANCH   7  14
BRANCH   6  16
ATOM     16  O   LIG A   1      -6.505  -0.600 130.879  0.00  0.00    -0.482 OA
BRANCH  16  17
ATOM     17  C   LIG A   1      -7.358  -0.177 131.959  0.00  0.00    +0.264 C 
BRANCH  17  18
ATOM     18  C   LIG A   1      -7.263   1.310 132.189  0.00  0.00    +0.188 C 
ATOM     19  O   LIG A   1      -7.798   1.661 133.488  0.00  0.00    -0.362 OA
ATOM     20  C   LIG A   1      -8.414   2.299 132.369  0.00  0.00    +0.094 C 
ATOM     21  C   LIG A   1      -8.107   3.775 132.322  0.00  0.00    +0.044 C 
ATOM     22  C   LIG A   1      -9.816   1.841 132.103  0.00  0.00    +0.044 C 
ENDBRANCH  17  18
ENDBRANCH  16  17
ENDBRANCH   6  16
TORSDOF 5
ENDMDL
MODEL 9
REMARK VINA RESULT:      -5.7      6.697      9.038
REMARK  Name = NuBBE_2060
REMARK  9 active torsions:
REMARK  status: ('A' for Active; 'I' for Inactive)
REMARK    1  A    between atoms: C_5  and  O_6
REMARK    2  A    between atoms: O_6  and  C_7
REMARK    3  A    between atoms: C_8  and  O_9
REMARK    4  A    between atoms: O_9  and  C_10
REMARK    5  A    between atoms: C_10  and  C_11
REMARK    6  A    between atoms: C_13  and  C_14
REMARK    7  A    between atoms: C_13  and  C_15
REMARK    8  A    between atoms: C_16  and  O_21
REMARK    9  A    between atoms: O_21  and  C_22
REMARK                            x       y       z     vdW  Elec       q    Type
REMARK                         _______ _______ _______ _____ _____    ______ ____
ROOT
ATOM      1  O   LIG A   1      -2.849   5.025 128.584  0.00  0.00    -0.245 OA
ATOM      2  C   LIG A   1      -3.602   5.247 129.530  0.00  0.00    +0.337 A 
ATOM      3  O   LIG A   1      -4.988   5.312 129.368  0.00  0.00    -0.418 OA
ATOM      4  C   LIG A   1      -5.859   5.412 130.462  0.00  0.00    +0.184 A 
ATOM      5  C   LIG A   1      -7.251   5.283 130.277  0.00  0.00    +0.209 A 
ATOM      6  C   LIG A   1      -8.104   5.429 131.401  0.00  0.00    +0.208 A 
ATOM      7  C   LIG A   1      -7.516   5.692 132.664  0.00  0.00    +0.166 A 
ATOM      8  C   LIG A   1      -6.133   5.777 132.815  0.00  0.00    +0.061 A 
ATOM      9  C   LIG A   1      -5.299   5.633 131.719  0.00  0.00    +0.025 A 
ATOM     10  C   LIG A   1      -3.867   5.673 131.915  0.00  0.00    +0.019 A 
ATOM     11  C   LIG A   1      -3.038   5.483 130.884  0.00  0.00    +0.092 A 
ENDROOT
BRANCH   5  12
ATOM     12  O   LIG A   1      -7.871   5.056 129.078  0.00  0.00    -0.488 OA
ATOM     13  C   LIG A   1      -8.013   3.731 128.589  0.00  0.00    +0.277 C 
ENDBRANCH   5  12
BRANCH   7  14
ATOM     14  O   LIG A   1      -8.146   5.867 133.870  0.00  0.00    -0.491 OA
ATOM     15  C   LIG A   1      -7.897   4.858 134.827  0.00  0.00    +0.277 C 
ENDBRANCH   7  14
BRANCH   6  16
ATOM     16  O   LIG A   1      -9.486   5.363 131.353  0.00  0.00    -0.482 OA
BRANCH  16  17
ATOM     17  C   LIG A   1     -10.231   6.589 131.225  0.00  0.00    +0.264 C 
BRANCH  17  18
ATOM     18  C   LIG A   1     -11.434   6.413 130.336  0.00  0.00    +0.188 C 
ATOM     19  O   LIG A   1     -11.080   5.685 129.135  0.00  0.00    -0.362 OA
ATOM     20  C   LIG A   1     -11.644   6.981 128.931  0.00  0.00    +0.094 C 
ATOM     21  C   LIG A   1     -13.023   6.906 128.325  0.00  0.00    +0.044 C 
ATOM     22  C   LIG A   1     -10.672   7.991 128.402  0.00  0.00    +0.044 C 
ENDBRANCH  17  18
ENDBRANCH  16  17
ENDBRANCH   6  16
TORSDOF 5
ENDMDL
