MODEL 1
REMARK VINA RESULT:      -5.7      0.000      0.000
REMARK  Name = NuBBE_658
REMARK  3 active torsions:
REMARK  status: ('A' for Active; 'I' for Inactive)
REMARK    1  A    between atoms: C_5  and  C_6
REMARK    2  A    between atoms: C_6  and  O_7
REMARK    3  A    between atoms: C_6  and  C_8
REMARK                            x       y       z     vdW  Elec       q    Type
REMARK                         _______ _______ _______ _____ _____    ______ ____
ROOT
ATOM      1  O   LIG A   1     -10.746   8.038 125.394  0.00  0.00    -0.297 OA
ATOM      2  C   LIG A   1     -11.274   7.775 126.473  0.00  0.00    +0.133 C 
ATOM      3  C   LIG A   1     -10.609   8.120 127.783  0.00  0.00    +0.075 C 
ATOM      4  C   LIG A   1     -11.608   8.692 128.779  0.00  0.00    +0.013 C 
ATOM      5  C   LIG A   1     -12.925   7.910 128.922  0.00  0.00    +0.018 C 
ATOM      6  C   LIG A   1     -13.517   7.549 127.546  0.00  0.00    +0.013 C 
ATOM      7  C   LIG A   1     -12.533   6.950 126.553  0.00  0.00    +0.075 C 
ENDROOT
BRANCH   5   8
ATOM      8  C   LIG A   1     -12.876   6.767 129.966  0.00  0.00    +0.115 C 
ATOM      9  C   LIG A   1     -12.353   7.088 131.357  0.00  0.00    +0.038 C 
BRANCH   8  10
ATOM     10  O   LIG A   1     -12.109   5.683 129.436  0.00  0.00    -0.392 OA
ATOM     11  H   LIG A   1     -11.803   5.923 128.545  0.00  0.00    +0.210 HD
ENDBRANCH   8  10
ENDBRANCH   5   8
TORSDOF 2
ENDMDL
MODEL 2
REMARK VINA RESULT:      -5.6      1.478      4.006
REMARK  Name = NuBBE_658
REMARK  3 active torsions:
REMARK  status: ('A' for Active; 'I' for Inactive)
REMARK    1  A    between atoms: C_5  and  C_6
REMARK    2  A    between atoms: C_6  and  O_7
REMARK    3  A    between atoms: C_6  and  C_8
REMARK                            x       y       z     vdW  Elec       q    Type
REMARK                         _______ _______ _______ _____ _____    ______ ____
ROOT
ATOM      1  O   LIG A   1     -12.723   6.865 131.715  0.00  0.00    -0.297 OA
ATOM      2  C   LIG A   1     -12.255   7.092 130.600  0.00  0.00    +0.133 C 
ATOM      3  C   LIG A   1     -13.072   7.759 129.522  0.00  0.00    +0.075 C 
ATOM      4  C   LIG A   1     -12.258   8.806 128.775  0.00  0.00    +0.013 C 
ATOM      5  C   LIG A   1     -10.856   8.358 128.324  0.00  0.00    +0.018 C 
ATOM      6  C   LIG A   1     -10.103   7.641 129.460  0.00  0.00    +0.013 C 
ATOM      7  C   LIG A   1     -10.899   6.574 130.194  0.00  0.00    +0.075 C 
ENDROOT
BRANCH   5   8
ATOM      8  C   LIG A   1     -10.824   7.667 126.938  0.00  0.00    +0.115 C 
ATOM      9  C   LIG A   1     -12.133   7.148 126.365  0.00  0.00    +0.038 C 
BRANCH   8  10
ATOM     10  O   LIG A   1      -9.890   6.585 126.979  0.00  0.00    -0.392 OA
ATOM     11  H   LIG A   1      -9.791   6.224 126.082  0.00  0.00    +0.210 HD
ENDBRANCH   8  10
ENDBRANCH   5   8
TORSDOF 2
ENDMDL
MODEL 3
REMARK VINA RESULT:      -5.2      2.122      2.841
REMARK  Name = NuBBE_658
REMARK  3 active torsions:
REMARK  status: ('A' for Active; 'I' for Inactive)
REMARK    1  A    between atoms: C_5  and  C_6
REMARK    2  A    between atoms: C_6  and  O_7
REMARK    3  A    between atoms: C_6  and  C_8
REMARK                            x       y       z     vdW  Elec       q    Type
REMARK                         _______ _______ _______ _____ _____    ______ ____
ROOT
ATOM      1  O   LIG A   1      -9.767   6.368 126.775  0.00  0.00    -0.297 OA
ATOM      2  C   LIG A   1     -10.518   7.138 127.372  0.00  0.00    +0.133 C 
ATOM      3  C   LIG A   1     -11.779   7.664 126.734  0.00  0.00    +0.075 C 
ATOM      4  C   LIG A   1     -12.943   7.655 127.714  0.00  0.00    +0.013 C 
ATOM      5  C   LIG A   1     -12.644   8.240 129.105  0.00  0.00    +0.018 C 
ATOM      6  C   LIG A   1     -11.318   7.696 129.670  0.00  0.00    +0.013 C 
ATOM      7  C   LIG A   1     -10.141   7.728 128.707  0.00  0.00    +0.075 C 
ENDROOT
BRANCH   5   8
ATOM      8  C   LIG A   1     -12.857   9.770 129.212  0.00  0.00    +0.115 C 
ATOM      9  C   LIG A   1     -13.178  10.356 130.577  0.00  0.00    +0.038 C 
BRANCH   8  10
ATOM     10  O   LIG A   1     -13.887  10.162 128.300  0.00  0.00    -0.392 OA
ATOM     11  H   LIG A   1     -14.550  10.685 128.783  0.00  0.00    +0.210 HD
ENDBRANCH   8  10
ENDBRANCH   5   8
TORSDOF 2
ENDMDL
MODEL 4
REMARK VINA RESULT:      -5.2      1.959      4.195
REMARK  Name = NuBBE_658
REMARK  3 active torsions:
REMARK  status: ('A' for Active; 'I' for Inactive)
REMARK    1  A    between atoms: C_5  and  C_6
REMARK    2  A    between atoms: C_6  and  O_7
REMARK    3  A    between atoms: C_6  and  C_8
REMARK                            x       y       z     vdW  Elec       q    Type
REMARK                         _______ _______ _______ _____ _____    ______ ____
ROOT
ATOM      1  O   LIG A   1     -10.645   6.451 132.635  0.00  0.00    -0.297 OA
ATOM      2  C   LIG A   1     -11.056   6.699 131.502  0.00  0.00    +0.133 C 
ATOM      3  C   LIG A   1     -12.505   7.024 131.241  0.00  0.00    +0.075 C 
ATOM      4  C   LIG A   1     -12.648   8.183 130.265  0.00  0.00    +0.013 C 
ATOM      5  C   LIG A   1     -11.780   8.094 128.998  0.00  0.00    +0.018 C 
ATOM      6  C   LIG A   1     -10.328   7.709 129.338  0.00  0.00    +0.013 C 
ATOM      7  C   LIG A   1     -10.174   6.534 130.291  0.00  0.00    +0.075 C 
ENDROOT
BRANCH   5   8
ATOM      8  C   LIG A   1     -12.437   7.320 127.829  0.00  0.00    +0.115 C 
ATOM      9  C   LIG A   1     -11.724   7.308 126.487  0.00  0.00    +0.038 C 
BRANCH   8  10
ATOM     10  O   LIG A   1     -13.765   7.814 127.630  0.00  0.00    -0.392 OA
ATOM     11  H   LIG A   1     -13.842   8.683 128.058  0.00  0.00    +0.210 HD
ENDBRANCH   8  10
ENDBRANCH   5   8
TORSDOF 2
ENDMDL
MODEL 5
REMARK VINA RESULT:      -5.0     11.255     11.974
REMARK  Name = NuBBE_658
REMARK  3 active torsions:
REMARK  status: ('A' for Active; 'I' for Inactive)
REMARK    1  A    between atoms: C_5  and  C_6
REMARK    2  A    between atoms: C_6  and  O_7
REMARK    3  A    between atoms: C_6  and  C_8
REMARK                            x       y       z     vdW  Elec       q    Type
REMARK                         _______ _______ _______ _____ _____    ______ ____
ROOT
ATOM      1  O   LIG A   1      -5.947  -1.851 121.898  0.00  0.00    -0.297 OA
ATOM      2  C   LIG A   1      -6.676  -2.177 122.834  0.00  0.00    +0.133 C 
ATOM      3  C   LIG A   1      -8.145  -1.838 122.846  0.00  0.00    +0.075 C 
ATOM      4  C   LIG A   1      -8.981  -3.010 123.338  0.00  0.00    +0.013 C 
ATOM      5  C   LIG A   1      -8.477  -3.694 124.620  0.00  0.00    +0.018 C 
ATOM      6  C   LIG A   1      -6.961  -3.962 124.555  0.00  0.00    +0.013 C 
ATOM      7  C   LIG A   1      -6.114  -2.787 124.092  0.00  0.00    +0.075 C 
ENDROOT
BRANCH   5   8
ATOM      8  C   LIG A   1      -9.003  -3.057 125.930  0.00  0.00    +0.115 C 
ATOM      9  C   LIG A   1      -8.746  -3.790 127.238  0.00  0.00    +0.038 C 
BRANCH   8  10
ATOM     10  O   LIG A   1     -10.411  -2.834 125.808  0.00  0.00    -0.392 OA
ATOM     11  H   LIG A   1     -10.810  -2.863 126.694  0.00  0.00    +0.210 HD
ENDBRANCH   8  10
ENDBRANCH   5   8
TORSDOF 2
ENDMDL
MODEL 6
REMARK VINA RESULT:      -5.0      2.381      3.375
REMARK  Name = NuBBE_658
REMARK  3 active torsions:
REMARK  status: ('A' for Active; 'I' for Inactive)
REMARK    1  A    between atoms: C_5  and  C_6
REMARK    2  A    between atoms: C_6  and  O_7
REMARK    3  A    between atoms: C_6  and  C_8
REMARK                            x       y       z     vdW  Elec       q    Type
REMARK                         _______ _______ _______ _____ _____    ______ ____
ROOT
ATOM      1  O   LIG A   1     -13.106   9.419 128.534  0.00  0.00    -0.297 OA
ATOM      2  C   LIG A   1     -12.495   8.689 129.313  0.00  0.00    +0.133 C 
ATOM      3  C   LIG A   1     -12.890   8.577 130.764  0.00  0.00    +0.075 C 
ATOM      4  C   LIG A   1     -12.849   7.132 131.242  0.00  0.00    +0.013 C 
ATOM      5  C   LIG A   1     -11.580   6.346 130.867  0.00  0.00    +0.018 C 
ATOM      6  C   LIG A   1     -11.211   6.549 129.385  0.00  0.00    +0.013 C 
ATOM      7  C   LIG A   1     -11.222   7.992 128.906  0.00  0.00    +0.075 C 
ENDROOT
BRANCH   5   8
ATOM      8  C   LIG A   1     -10.422   6.482 131.886  0.00  0.00    +0.115 C 
ATOM      9  C   LIG A   1      -8.997   6.453 131.359  0.00  0.00    +0.038 C 
BRANCH   8  10
ATOM     10  O   LIG A   1     -10.555   5.465 132.882  0.00  0.00    -0.392 OA
ATOM     11  H   LIG A   1     -10.239   5.817 133.732  0.00  0.00    +0.210 HD
ENDBRANCH   8  10
ENDBRANCH   5   8
TORSDOF 2
ENDMDL
MODEL 7
REMARK VINA RESULT:      -4.9      2.232      4.319
REMARK  Name = NuBBE_658
REMARK  3 active torsions:
REMARK  status: ('A' for Active; 'I' for Inactive)
REMARK    1  A    between atoms: C_5  and  C_6
REMARK    2  A    between atoms: C_6  and  O_7
REMARK    3  A    between atoms: C_6  and  C_8
REMARK                            x       y       z     vdW  Elec       q    Type
REMARK                         _______ _______ _______ _____ _____    ______ ____
ROOT
ATOM      1  O   LIG A   1      -9.687   5.578 132.715  0.00  0.00    -0.297 OA
ATOM      2  C   LIG A   1     -10.159   6.242 131.793  0.00  0.00    +0.133 C 
ATOM      3  C   LIG A   1      -9.281   6.862 130.736  0.00  0.00    +0.075 C 
ATOM      4  C   LIG A   1      -9.881   6.695 129.347  0.00  0.00    +0.013 C 
ATOM      5  C   LIG A   1     -11.373   7.050 129.221  0.00  0.00    +0.018 C 
ATOM      6  C   LIG A   1     -12.197   6.423 130.362  0.00  0.00    +0.013 C 
ATOM      7  C   LIG A   1     -11.621   6.610 131.757  0.00  0.00    +0.075 C 
ENDROOT
BRANCH   5   8
ATOM      8  C   LIG A   1     -11.649   8.543 128.917  0.00  0.00    +0.115 C 
ATOM      9  C   LIG A   1     -13.080   8.961 128.618  0.00  0.00    +0.038 C 
BRANCH   8  10
ATOM     10  O   LIG A   1     -10.821   8.958 127.828  0.00  0.00    -0.392 OA
ATOM     11  H   LIG A   1     -11.317   8.849 126.999  0.00  0.00    +0.210 HD
ENDBRANCH   8  10
ENDBRANCH   5   8
TORSDOF 2
ENDMDL
MODEL 8
REMARK VINA RESULT:      -4.8      2.437      3.077
REMARK  Name = NuBBE_658
REMARK  3 active torsions:
REMARK  status: ('A' for Active; 'I' for Inactive)
REMARK    1  A    between atoms: C_5  and  C_6
REMARK    2  A    between atoms: C_6  and  O_7
REMARK    3  A    between atoms: C_6  and  C_8
REMARK                            x       y       z     vdW  Elec       q    Type
REMARK                         _______ _______ _______ _____ _____    ______ ____
ROOT
ATOM      1  O   LIG A   1     -13.556   9.390 128.439  0.00  0.00    -0.297 OA
ATOM      2  C   LIG A   1     -12.714   8.538 128.720  0.00  0.00    +0.133 C 
ATOM      3  C   LIG A   1     -11.440   8.394 127.926  0.00  0.00    +0.075 C 
ATOM      4  C   LIG A   1     -10.240   8.175 128.837  0.00  0.00    +0.013 C 
ATOM      5  C   LIG A   1     -10.426   7.115 129.936  0.00  0.00    +0.018 C 
ATOM      6  C   LIG A   1     -11.770   7.294 130.668  0.00  0.00    +0.013 C 
ATOM      7  C   LIG A   1     -12.980   7.485 129.766  0.00  0.00    +0.075 C 
ENDROOT
BRANCH   5   8
ATOM      8  C   LIG A   1     -10.074   5.673 129.496  0.00  0.00    +0.115 C 
ATOM      9  C   LIG A   1      -9.444   4.744 130.521  0.00  0.00    +0.038 C 
BRANCH   8  10
ATOM     10  O   LIG A   1      -9.216   5.730 128.353  0.00  0.00    -0.392 OA
ATOM     11  H   LIG A   1      -9.765   5.784 127.552  0.00  0.00    +0.210 HD
ENDBRANCH   8  10
ENDBRANCH   5   8
TORSDOF 2
ENDMDL
MODEL 9
REMARK VINA RESULT:      -4.7      9.795     10.819
REMARK  Name = NuBBE_658
REMARK  3 active torsions:
REMARK  status: ('A' for Active; 'I' for Inactive)
REMARK    1  A    between atoms: C_5  and  C_6
REMARK    2  A    between atoms: C_6  and  O_7
REMARK    3  A    between atoms: C_6  and  C_8
REMARK                            x       y       z     vdW  Elec       q    Type
REMARK                         _______ _______ _______ _____ _____    ______ ____
ROOT
ATOM      1  O   LIG A   1      -7.418   2.002 123.469  0.00  0.00    -0.297 OA
ATOM      2  C   LIG A   1      -7.816   0.840 123.538  0.00  0.00    +0.133 C 
ATOM      3  C   LIG A   1      -9.283   0.501 123.452  0.00  0.00    +0.075 C 
ATOM      4  C   LIG A   1      -9.521  -0.719 122.574  0.00  0.00    +0.013 C 
ATOM      5  C   LIG A   1      -8.606  -1.925 122.850  0.00  0.00    +0.018 C 
ATOM      6  C   LIG A   1      -7.132  -1.494 122.975  0.00  0.00    +0.013 C 
ATOM      7  C   LIG A   1      -6.880  -0.294 123.874  0.00  0.00    +0.075 C 
ENDROOT
BRANCH   5   8
ATOM      8  C   LIG A   1      -9.133  -2.886 123.944  0.00  0.00    +0.115 C 
ATOM      9  C   LIG A   1      -8.151  -3.858 124.578  0.00  0.00    +0.038 C 
BRANCH   8  10
ATOM     10  O   LIG A   1     -10.232  -3.635 123.417  0.00  0.00    -0.392 OA
ATOM     11  H   LIG A   1     -10.964  -3.023 123.226  0.00  0.00    +0.210 HD
ENDBRANCH   8  10
ENDBRANCH   5   8
TORSDOF 2
ENDMDL
