MODEL 1
REMARK VINA RESULT:      -6.4      0.000      0.000
REMARK  Name = NuBBE_931
REMARK  8 active torsions:
REMARK  status: ('A' for Active; 'I' for Inactive)
REMARK    1  A    between atoms: C_1  and  C_3
REMARK    2  A    between atoms: C_1  and  O_9
REMARK    3  A    between atoms: C_1  and  C_10
REMARK    4  A    between atoms: C_3  and  C_5
REMARK    5  A    between atoms: C_3  and  O_8
REMARK    6  A    between atoms: C_5  and  C_7
REMARK    7  A    between atoms: C_15  and  O_16
REMARK    8  A    between atoms: O_16  and  C_17
REMARK                            x       y       z     vdW  Elec       q    Type
REMARK                         _______ _______ _______ _____ _____    ______ ____
ROOT
ATOM      1  C   LIG A   1      -6.838   1.408 124.780  0.00  0.00    +0.068 A 
ATOM      2  C   LIG A   1      -7.351   0.146 124.403  0.00  0.00    +0.148 A 
ATOM      3  C   LIG A   1      -6.797  -1.064 124.845  0.00  0.00    +0.018 A 
ATOM      4  C   LIG A   1      -5.688  -1.037 125.682  0.00  0.00    +0.015 A 
ATOM      5  C   LIG A   1      -5.159   0.188 126.080  0.00  0.00    +0.047 A 
ATOM      6  C   LIG A   1      -5.715   1.403 125.637  0.00  0.00    +0.129 A 
ATOM      7  C   LIG A   1      -7.399  -2.330 124.463  0.00  0.00    +0.018 A 
ATOM      8  C   LIG A   1      -8.483  -2.326 123.689  0.00  0.00    +0.092 A 
ATOM      9  C   LIG A   1      -9.092  -1.090 123.191  0.00  0.00    +0.337 A 
ATOM     10  O   LIG A   1     -10.104  -1.123 122.492  0.00  0.00    -0.245 OA
ATOM     11  O   LIG A   1      -8.483   0.103 123.549  0.00  0.00    -0.422 OA
ENDROOT
BRANCH   6  12
ATOM     12  O   LIG A   1      -5.212   2.611 126.058  0.00  0.00    -0.495 OA
ATOM     13  C   LIG A   1      -3.869   2.578 126.539  0.00  0.00    +0.277 C 
ENDBRANCH   6  12
BRANCH   1  14
ATOM     14  C   LIG A   1      -7.517   2.692 124.279  0.00  0.00    +0.184 C 
BRANCH  14  15
ATOM     15  O   LIG A   1      -8.904   2.720 124.642  0.00  0.00    -0.384 OA
ATOM     16  H   LIG A   1      -9.366   2.484 123.813  0.00  0.00    +0.210 HD
ENDBRANCH  14  15
BRANCH  14  17
ATOM     17  C   LIG A   1      -7.354   2.925 122.737  0.00  0.00    +0.173 C 
BRANCH  17  18
ATOM     18  C   LIG A   1      -6.051   3.607 122.314  0.00  0.00    -0.049 C 
ATOM     19  C   LIG A   1      -5.371   4.420 123.142  0.00  0.00    +0.010 C 
ATOM     20  C   LIG A   1      -5.506   3.325 120.933  0.00  0.00    +0.041 C 
ENDBRANCH  17  18
BRANCH  17  21
ATOM     21  O   LIG A   1      -8.440   3.722 122.249  0.00  0.00    -0.385 OA
ATOM     22  H   LIG A   1      -9.154   3.103 122.023  0.00  0.00    +0.210 HD
ENDBRANCH  17  21
ENDBRANCH  14  17
ENDBRANCH   1  14
TORSDOF 6
ENDMDL
MODEL 2
REMARK VINA RESULT:      -6.4      3.144      5.800
REMARK  Name = NuBBE_931
REMARK  8 active torsions:
REMARK  status: ('A' for Active; 'I' for Inactive)
REMARK    1  A    between atoms: C_1  and  C_3
REMARK    2  A    between atoms: C_1  and  O_9
REMARK    3  A    between atoms: C_1  and  C_10
REMARK    4  A    between atoms: C_3  and  C_5
REMARK    5  A    between atoms: C_3  and  O_8
REMARK    6  A    between atoms: C_5  and  C_7
REMARK    7  A    between atoms: C_15  and  O_16
REMARK    8  A    between atoms: O_16  and  C_17
REMARK                            x       y       z     vdW  Elec       q    Type
REMARK                         _______ _______ _______ _____ _____    ______ ____
ROOT
ATOM      1  C   LIG A   1      -8.029  -1.516 126.336  0.00  0.00    +0.068 A 
ATOM      2  C   LIG A   1      -7.592  -1.873 127.632  0.00  0.00    +0.148 A 
ATOM      3  C   LIG A   1      -8.046  -3.020 128.299  0.00  0.00    +0.018 A 
ATOM      4  C   LIG A   1      -8.975  -3.844 127.677  0.00  0.00    +0.015 A 
ATOM      5  C   LIG A   1      -9.424  -3.529 126.398  0.00  0.00    +0.047 A 
ATOM      6  C   LIG A   1      -8.969  -2.377 125.727  0.00  0.00    +0.129 A 
ATOM      7  C   LIG A   1      -7.521  -3.361 129.611  0.00  0.00    +0.018 A 
ATOM      8  C   LIG A   1      -6.604  -2.573 130.170  0.00  0.00    +0.092 A 
ATOM      9  C   LIG A   1      -6.108  -1.357 129.519  0.00  0.00    +0.337 A 
ATOM     10  O   LIG A   1      -5.248  -0.661 130.057  0.00  0.00    -0.245 OA
ATOM     11  O   LIG A   1      -6.643  -1.040 128.280  0.00  0.00    -0.422 OA
ENDROOT
BRANCH   6  12
ATOM     12  O   LIG A   1      -9.388  -2.085 124.451  0.00  0.00    -0.495 OA
ATOM     13  C   LIG A   1      -9.501  -3.205 123.575  0.00  0.00    +0.277 C 
ENDBRANCH   6  12
BRANCH   1  14
ATOM     14  C   LIG A   1      -7.465  -0.259 125.656  0.00  0.00    +0.184 C 
BRANCH  14  15
ATOM     15  O   LIG A   1      -8.401   0.285 124.715  0.00  0.00    -0.384 OA
ATOM     16  H   LIG A   1      -8.271   1.251 124.789  0.00  0.00    +0.210 HD
ENDBRANCH  14  15
BRANCH  14  17
ATOM     17  C   LIG A   1      -6.075  -0.490 124.969  0.00  0.00    +0.173 C 
BRANCH  17  18
ATOM     18  C   LIG A   1      -5.991  -1.719 124.060  0.00  0.00    -0.049 C 
ATOM     19  C   LIG A   1      -6.354  -1.672 122.765  0.00  0.00    +0.010 C 
ATOM     20  C   LIG A   1      -5.454  -3.006 124.638  0.00  0.00    +0.041 C 
ENDBRANCH  17  18
BRANCH  17  21
ATOM     21  O   LIG A   1      -5.055  -0.617 125.967  0.00  0.00    -0.385 OA
ATOM     22  H   LIG A   1      -4.236  -0.839 125.494  0.00  0.00    +0.210 HD
ENDBRANCH  17  21
ENDBRANCH  14  17
ENDBRANCH   1  14
TORSDOF 6
ENDMDL
MODEL 3
REMARK VINA RESULT:      -6.2      2.295      4.552
REMARK  Name = NuBBE_931
REMARK  8 active torsions:
REMARK  status: ('A' for Active; 'I' for Inactive)
REMARK    1  A    between atoms: C_1  and  C_3
REMARK    2  A    between atoms: C_1  and  O_9
REMARK    3  A    between atoms: C_1  and  C_10
REMARK    4  A    between atoms: C_3  and  C_5
REMARK    5  A    between atoms: C_3  and  O_8
REMARK    6  A    between atoms: C_5  and  C_7
REMARK    7  A    between atoms: C_15  and  O_16
REMARK    8  A    between atoms: O_16  and  C_17
REMARK                            x       y       z     vdW  Elec       q    Type
REMARK                         _______ _______ _______ _____ _____    ______ ____
ROOT
ATOM      1  C   LIG A   1      -7.500  -0.932 125.444  0.00  0.00    +0.068 A 
ATOM      2  C   LIG A   1      -8.093   0.095 124.676  0.00  0.00    +0.148 A 
ATOM      3  C   LIG A   1      -7.549   1.384 124.577  0.00  0.00    +0.018 A 
ATOM      4  C   LIG A   1      -6.383   1.683 125.270  0.00  0.00    +0.015 A 
ATOM      5  C   LIG A   1      -5.765   0.695 126.032  0.00  0.00    +0.047 A 
ATOM      6  C   LIG A   1      -6.311  -0.600 126.131  0.00  0.00    +0.129 A 
ATOM      7  C   LIG A   1      -8.179   2.383 123.731  0.00  0.00    +0.018 A 
ATOM      8  C   LIG A   1      -9.277   2.060 123.050  0.00  0.00    +0.092 A 
ATOM      9  C   LIG A   1      -9.891   0.732 123.129  0.00  0.00    +0.337 A 
ATOM     10  O   LIG A   1     -10.896   0.462 122.472  0.00  0.00    -0.245 OA
ATOM     11  O   LIG A   1      -9.286  -0.195 123.963  0.00  0.00    -0.422 OA
ENDROOT
BRANCH   6  12
ATOM     12  O   LIG A   1      -5.683  -1.583 126.857  0.00  0.00    -0.495 OA
ATOM     13  C   LIG A   1      -5.263  -1.200 128.166  0.00  0.00    +0.277 C 
ENDBRANCH   6  12
BRANCH   1  14
ATOM     14  C   LIG A   1      -8.139  -2.329 125.481  0.00  0.00    +0.184 C 
BRANCH  14  15
ATOM     15  O   LIG A   1      -7.805  -3.019 126.693  0.00  0.00    -0.384 OA
ATOM     16  H   LIG A   1      -7.487  -3.890 126.384  0.00  0.00    +0.210 HD
ENDBRANCH  14  15
BRANCH  14  17
ATOM     17  C   LIG A   1      -7.782  -3.212 124.236  0.00  0.00    +0.173 C 
BRANCH  17  18
ATOM     18  C   LIG A   1      -6.422  -2.923 123.597  0.00  0.00    -0.049 C 
ATOM     19  C   LIG A   1      -6.284  -2.050 122.583  0.00  0.00    +0.010 C 
ATOM     20  C   LIG A   1      -5.203  -3.620 124.152  0.00  0.00    +0.041 C 
ENDBRANCH  17  18
BRANCH  17  21
ATOM     21  O   LIG A   1      -8.782  -3.049 123.223  0.00  0.00    -0.385 OA
ATOM     22  H   LIG A   1      -8.552  -2.237 122.740  0.00  0.00    +0.210 HD
ENDBRANCH  17  21
ENDBRANCH  14  17
ENDBRANCH   1  14
TORSDOF 6
ENDMDL
MODEL 4
REMARK VINA RESULT:      -6.1      3.112      5.018
REMARK  Name = NuBBE_931
REMARK  8 active torsions:
REMARK  status: ('A' for Active; 'I' for Inactive)
REMARK    1  A    between atoms: C_1  and  C_3
REMARK    2  A    between atoms: C_1  and  O_9
REMARK    3  A    between atoms: C_1  and  C_10
REMARK    4  A    between atoms: C_3  and  C_5
REMARK    5  A    between atoms: C_3  and  O_8
REMARK    6  A    between atoms: C_5  and  C_7
REMARK    7  A    between atoms: C_15  and  O_16
REMARK    8  A    between atoms: O_16  and  C_17
REMARK                            x       y       z     vdW  Elec       q    Type
REMARK                         _______ _______ _______ _____ _____    ______ ____
ROOT
ATOM      1  C   LIG A   1      -6.732  -2.098 127.372  0.00  0.00    +0.068 A 
ATOM      2  C   LIG A   1      -7.282  -2.434 126.114  0.00  0.00    +0.148 A 
ATOM      3  C   LIG A   1      -8.429  -3.229 125.972  0.00  0.00    +0.018 A 
ATOM      4  C   LIG A   1      -9.056  -3.724 127.108  0.00  0.00    +0.015 A 
ATOM      5  C   LIG A   1      -8.547  -3.409 128.366  0.00  0.00    +0.047 A 
ATOM      6  C   LIG A   1      -7.395  -2.611 128.509  0.00  0.00    +0.129 A 
ATOM      7  C   LIG A   1      -8.976  -3.498 124.653  0.00  0.00    +0.018 A 
ATOM      8  C   LIG A   1      -8.376  -2.981 123.582  0.00  0.00    +0.092 A 
ATOM      9  C   LIG A   1      -7.168  -2.157 123.677  0.00  0.00    +0.337 A 
ATOM     10  O   LIG A   1      -6.650  -1.681 122.667  0.00  0.00    -0.245 OA
ATOM     11  O   LIG A   1      -6.652  -1.935 124.944  0.00  0.00    -0.422 OA
ENDROOT
BRANCH   6  12
ATOM     12  O   LIG A   1      -6.914  -2.274 129.751  0.00  0.00    -0.495 OA
ATOM     13  C   LIG A   1      -7.767  -1.435 130.528  0.00  0.00    +0.277 C 
ENDBRANCH   6  12
BRANCH   1  14
ATOM     14  C   LIG A   1      -5.489  -1.198 127.449  0.00  0.00    +0.184 C 
BRANCH  14  15
ATOM     15  O   LIG A   1      -4.513  -1.739 128.350  0.00  0.00    -0.384 OA
ATOM     16  H   LIG A   1      -4.742  -2.689 128.398  0.00  0.00    +0.210 HD
ENDBRANCH  14  15
BRANCH  14  17
ATOM     17  C   LIG A   1      -5.815   0.287 127.830  0.00  0.00    +0.173 C 
BRANCH  17  18
ATOM     18  C   LIG A   1      -6.838   0.983 126.930  0.00  0.00    -0.049 C 
ATOM     19  C   LIG A   1      -6.519   1.427 125.700  0.00  0.00    +0.010 C 
ATOM     20  C   LIG A   1      -8.253   1.142 127.435  0.00  0.00    +0.041 C 
ENDBRANCH  17  18
BRANCH  17  21
ATOM     21  O   LIG A   1      -4.614   1.068 127.807  0.00  0.00    -0.385 OA
ATOM     22  H   LIG A   1      -4.084   0.735 127.063  0.00  0.00    +0.210 HD
ENDBRANCH  17  21
ENDBRANCH  14  17
ENDBRANCH   1  14
TORSDOF 6
ENDMDL
MODEL 5
REMARK VINA RESULT:      -5.9      2.882      4.796
REMARK  Name = NuBBE_931
REMARK  8 active torsions:
REMARK  status: ('A' for Active; 'I' for Inactive)
REMARK    1  A    between atoms: C_1  and  C_3
REMARK    2  A    between atoms: C_1  and  O_9
REMARK    3  A    between atoms: C_1  and  C_10
REMARK    4  A    between atoms: C_3  and  C_5
REMARK    5  A    between atoms: C_3  and  O_8
REMARK    6  A    between atoms: C_5  and  C_7
REMARK    7  A    between atoms: C_15  and  O_16
REMARK    8  A    between atoms: O_16  and  C_17
REMARK                            x       y       z     vdW  Elec       q    Type
REMARK                         _______ _______ _______ _____ _____    ______ ____
ROOT
ATOM      1  C   LIG A   1      -6.971  -1.423 125.441  0.00  0.00    +0.068 A 
ATOM      2  C   LIG A   1      -7.528  -2.079 126.562  0.00  0.00    +0.148 A 
ATOM      3  C   LIG A   1      -8.423  -3.153 126.449  0.00  0.00    +0.018 A 
ATOM      4  C   LIG A   1      -8.798  -3.594 125.187  0.00  0.00    +0.015 A 
ATOM      5  C   LIG A   1      -8.265  -2.977 124.058  0.00  0.00    +0.047 A 
ATOM      6  C   LIG A   1      -7.366  -1.899 124.171  0.00  0.00    +0.129 A 
ATOM      7  C   LIG A   1      -8.922  -3.820 127.640  0.00  0.00    +0.018 A 
ATOM      8  C   LIG A   1      -8.519  -3.399 128.838  0.00  0.00    +0.092 A 
ATOM      9  C   LIG A   1      -7.596  -2.274 129.009  0.00  0.00    +0.337 A 
ATOM     10  O   LIG A   1      -7.231  -1.924 130.131  0.00  0.00    -0.245 OA
ATOM     11  O   LIG A   1      -7.154  -1.639 127.859  0.00  0.00    -0.422 OA
ENDROOT
BRANCH   6  12
ATOM     12  O   LIG A   1      -6.816  -1.312 123.056  0.00  0.00    -0.495 OA
ATOM     13  C   LIG A   1      -5.854  -2.106 122.362  0.00  0.00    +0.277 C 
ENDBRANCH   6  12
BRANCH   1  14
ATOM     14  C   LIG A   1      -5.974  -0.272 125.643  0.00  0.00    +0.184 C 
BRANCH  14  15
ATOM     15  O   LIG A   1      -4.990  -0.608 126.631  0.00  0.00    -0.384 OA
ATOM     16  H   LIG A   1      -4.810   0.243 127.078  0.00  0.00    +0.210 HD
ENDBRANCH  14  15
BRANCH  14  17
ATOM     17  C   LIG A   1      -6.657   1.093 125.998  0.00  0.00    +0.173 C 
BRANCH  17  18
ATOM     18  C   LIG A   1      -6.049   2.324 125.323  0.00  0.00    -0.049 C 
ATOM     19  C   LIG A   1      -6.515   2.797 124.153  0.00  0.00    +0.010 C 
ATOM     20  C   LIG A   1      -4.914   3.039 126.017  0.00  0.00    +0.041 C 
ENDBRANCH  17  18
BRANCH  17  21
ATOM     21  O   LIG A   1      -6.609   1.306 127.415  0.00  0.00    -0.385 OA
ATOM     22  H   LIG A   1      -7.531   1.392 127.710  0.00  0.00    +0.210 HD
ENDBRANCH  17  21
ENDBRANCH  14  17
ENDBRANCH   1  14
TORSDOF 6
ENDMDL
MODEL 6
REMARK VINA RESULT:      -5.9      8.201      9.488
REMARK  Name = NuBBE_931
REMARK  8 active torsions:
REMARK  status: ('A' for Active; 'I' for Inactive)
REMARK    1  A    between atoms: C_1  and  C_3
REMARK    2  A    between atoms: C_1  and  O_9
REMARK    3  A    between atoms: C_1  and  C_10
REMARK    4  A    between atoms: C_3  and  C_5
REMARK    5  A    between atoms: C_3  and  O_8
REMARK    6  A    between atoms: C_5  and  C_7
REMARK    7  A    between atoms: C_15  and  O_16
REMARK    8  A    between atoms: O_16  and  C_17
REMARK                            x       y       z     vdW  Elec       q    Type
REMARK                         _______ _______ _______ _____ _____    ______ ____
ROOT
ATOM      1  C   LIG A   1      -6.192   6.396 131.960  0.00  0.00    +0.068 A 
ATOM      2  C   LIG A   1      -7.575   6.436 131.674  0.00  0.00    +0.148 A 
ATOM      3  C   LIG A   1      -8.553   6.004 132.582  0.00  0.00    +0.018 A 
ATOM      4  C   LIG A   1      -8.159   5.500 133.815  0.00  0.00    +0.015 A 
ATOM      5  C   LIG A   1      -6.805   5.451 134.135  0.00  0.00    +0.047 A 
ATOM      6  C   LIG A   1      -5.822   5.885 133.224  0.00  0.00    +0.129 A 
ATOM      7  C   LIG A   1      -9.963   6.117 132.250  0.00  0.00    +0.018 A 
ATOM      8  C   LIG A   1     -10.315   6.637 131.075  0.00  0.00    +0.092 A 
ATOM      9  C   LIG A   1      -9.332   7.090 130.088  0.00  0.00    +0.337 A 
ATOM     10  O   LIG A   1      -9.693   7.582 129.019  0.00  0.00    -0.245 OA
ATOM     11  O   LIG A   1      -7.993   6.948 130.418  0.00  0.00    -0.422 OA
ENDROOT
BRANCH   6  12
ATOM     12  O   LIG A   1      -4.489   5.867 133.555  0.00  0.00    -0.495 OA
ATOM     13  C   LIG A   1      -4.096   4.825 134.447  0.00  0.00    +0.277 C 
ENDBRANCH   6  12
BRANCH   1  14
ATOM     14  C   LIG A   1      -5.180   6.915 130.926  0.00  0.00    +0.184 C 
BRANCH  14  15
ATOM     15  O   LIG A   1      -5.744   7.970 130.135  0.00  0.00    -0.384 OA
ATOM     16  H   LIG A   1      -5.886   8.692 130.778  0.00  0.00    +0.210 HD
ENDBRANCH  14  15
BRANCH  14  17
ATOM     17  C   LIG A   1      -4.600   5.792 130.000  0.00  0.00    +0.173 C 
BRANCH  17  18
ATOM     18  C   LIG A   1      -3.084   5.596 130.079  0.00  0.00    -0.049 C 
ATOM     19  C   LIG A   1      -2.516   4.809 131.011  0.00  0.00    +0.010 C 
ATOM     20  C   LIG A   1      -2.214   6.288 129.057  0.00  0.00    +0.041 C 
ENDBRANCH  17  18
BRANCH  17  21
ATOM     21  O   LIG A   1      -4.931   6.070 128.634  0.00  0.00    -0.385 OA
ATOM     22  H   LIG A   1      -5.901   6.125 128.593  0.00  0.00    +0.210 HD
ENDBRANCH  17  21
ENDBRANCH  14  17
ENDBRANCH   1  14
TORSDOF 6
ENDMDL
MODEL 7
REMARK VINA RESULT:      -5.9      3.053      5.119
REMARK  Name = NuBBE_931
REMARK  8 active torsions:
REMARK  status: ('A' for Active; 'I' for Inactive)
REMARK    1  A    between atoms: C_1  and  C_3
REMARK    2  A    between atoms: C_1  and  O_9
REMARK    3  A    between atoms: C_1  and  C_10
REMARK    4  A    between atoms: C_3  and  C_5
REMARK    5  A    between atoms: C_3  and  O_8
REMARK    6  A    between atoms: C_5  and  C_7
REMARK    7  A    between atoms: C_15  and  O_16
REMARK    8  A    between atoms: O_16  and  C_17
REMARK                            x       y       z     vdW  Elec       q    Type
REMARK                         _______ _______ _______ _____ _____    ______ ____
ROOT
ATOM      1  C   LIG A   1      -8.350  -0.996 126.450  0.00  0.00    +0.068 A 
ATOM      2  C   LIG A   1      -7.951  -1.542 127.691  0.00  0.00    +0.148 A 
ATOM      3  C   LIG A   1      -8.204  -2.873 128.054  0.00  0.00    +0.018 A 
ATOM      4  C   LIG A   1      -8.886  -3.700 127.170  0.00  0.00    +0.015 A 
ATOM      5  C   LIG A   1      -9.289  -3.199 125.935  0.00  0.00    +0.047 A 
ATOM      6  C   LIG A   1      -9.035  -1.862 125.570  0.00  0.00    +0.129 A 
ATOM      7  C   LIG A   1      -7.724  -3.391 129.324  0.00  0.00    +0.018 A 
ATOM      8  C   LIG A   1      -7.042  -2.587 130.138  0.00  0.00    +0.092 A 
ATOM      9  C   LIG A   1      -6.764  -1.186 129.810  0.00  0.00    +0.337 A 
ATOM     10  O   LIG A   1      -6.115  -0.476 130.579  0.00  0.00    -0.245 OA
ATOM     11  O   LIG A   1      -7.254  -0.709 128.605  0.00  0.00    -0.422 OA
ENDROOT
BRANCH   6  12
ATOM     12  O   LIG A   1      -9.404  -1.380 124.337  0.00  0.00    -0.495 OA
ATOM     13  C   LIG A   1      -9.058  -2.209 123.229  0.00  0.00    +0.277 C 
ENDBRANCH   6  12
BRANCH   1  14
ATOM     14  C   LIG A   1      -8.012   0.464 126.111  0.00  0.00    +0.184 C 
BRANCH  14  15
ATOM     15  O   LIG A   1      -9.147   1.143 125.558  0.00  0.00    -0.384 OA
ATOM     16  H   LIG A   1      -9.615   0.445 125.058  0.00  0.00    +0.210 HD
ENDBRANCH  14  15
BRANCH  14  17
ATOM     17  C   LIG A   1      -6.773   0.615 125.162  0.00  0.00    +0.173 C 
BRANCH  17  18
ATOM     18  C   LIG A   1      -5.868   1.814 125.454  0.00  0.00    -0.049 C 
ATOM     19  C   LIG A   1      -6.009   2.986 124.807  0.00  0.00    +0.010 C 
ATOM     20  C   LIG A   1      -4.811   1.675 126.524  0.00  0.00    +0.041 C 
ENDBRANCH  17  18
BRANCH  17  21
ATOM     21  O   LIG A   1      -7.214   0.724 123.802  0.00  0.00    -0.385 OA
ATOM     22  H   LIG A   1      -7.217  -0.179 123.442  0.00  0.00    +0.210 HD
ENDBRANCH  17  21
ENDBRANCH  14  17
ENDBRANCH   1  14
TORSDOF 6
ENDMDL
MODEL 8
REMARK VINA RESULT:      -5.6      2.000      6.105
REMARK  Name = NuBBE_931
REMARK  8 active torsions:
REMARK  status: ('A' for Active; 'I' for Inactive)
REMARK    1  A    between atoms: C_1  and  C_3
REMARK    2  A    between atoms: C_1  and  O_9
REMARK    3  A    between atoms: C_1  and  C_10
REMARK    4  A    between atoms: C_3  and  C_5
REMARK    5  A    between atoms: C_3  and  O_8
REMARK    6  A    between atoms: C_5  and  C_7
REMARK    7  A    between atoms: C_15  and  O_16
REMARK    8  A    between atoms: O_16  and  C_17
REMARK                            x       y       z     vdW  Elec       q    Type
REMARK                         _______ _______ _______ _____ _____    ______ ____
ROOT
ATOM      1  C   LIG A   1      -7.629   0.653 124.639  0.00  0.00    +0.068 A 
ATOM      2  C   LIG A   1      -6.728   1.713 124.892  0.00  0.00    +0.148 A 
ATOM      3  C   LIG A   1      -6.896   2.999 124.361  0.00  0.00    +0.018 A 
ATOM      4  C   LIG A   1      -7.986   3.256 123.538  0.00  0.00    +0.015 A 
ATOM      5  C   LIG A   1      -8.899   2.239 123.272  0.00  0.00    +0.047 A 
ATOM      6  C   LIG A   1      -8.730   0.947 123.805  0.00  0.00    +0.129 A 
ATOM      7  C   LIG A   1      -5.962   4.061 124.698  0.00  0.00    +0.018 A 
ATOM      8  C   LIG A   1      -4.946   3.796 125.518  0.00  0.00    +0.092 A 
ATOM      9  C   LIG A   1      -4.719   2.466 126.088  0.00  0.00    +0.337 A 
ATOM     10  O   LIG A   1      -3.780   2.262 126.856  0.00  0.00    -0.245 OA
ATOM     11  O   LIG A   1      -5.609   1.465 125.731  0.00  0.00    -0.422 OA
ENDROOT
BRANCH   6  12
ATOM     12  O   LIG A   1      -9.650  -0.046 123.568  0.00  0.00    -0.495 OA
ATOM     13  C   LIG A   1     -10.191  -0.073 122.248  0.00  0.00    +0.277 C 
ENDBRANCH   6  12
BRANCH   1  14
ATOM     14  C   LIG A   1      -7.394  -0.723 125.281  0.00  0.00    +0.184 C 
BRANCH  14  15
ATOM     15  O   LIG A   1      -7.331  -1.754 124.286  0.00  0.00    -0.384 OA
ATOM     16  H   LIG A   1      -7.598  -1.299 123.463  0.00  0.00    +0.210 HD
ENDBRANCH  14  15
BRANCH  14  17
ATOM     17  C   LIG A   1      -8.451  -1.090 126.378  0.00  0.00    +0.173 C 
BRANCH  17  18
ATOM     18  C   LIG A   1      -7.959  -2.049 127.465  0.00  0.00    -0.049 C 
ATOM     19  C   LIG A   1      -7.004  -1.698 128.345  0.00  0.00    +0.010 C 
ATOM     20  C   LIG A   1      -8.596  -3.416 127.562  0.00  0.00    +0.041 C 
ENDBRANCH  17  18
BRANCH  17  21
ATOM     21  O   LIG A   1      -9.602  -1.683 125.764  0.00  0.00    -0.385 OA
ATOM     22  H   LIG A   1     -10.235  -1.857 126.480  0.00  0.00    +0.210 HD
ENDBRANCH  17  21
ENDBRANCH  14  17
ENDBRANCH   1  14
TORSDOF 6
ENDMDL
MODEL 9
REMARK VINA RESULT:      -5.6      7.250      8.421
REMARK  Name = NuBBE_931
REMARK  8 active torsions:
REMARK  status: ('A' for Active; 'I' for Inactive)
REMARK    1  A    between atoms: C_1  and  C_3
REMARK    2  A    between atoms: C_1  and  O_9
REMARK    3  A    between atoms: C_1  and  C_10
REMARK    4  A    between atoms: C_3  and  C_5
REMARK    5  A    between atoms: C_3  and  O_8
REMARK    6  A    between atoms: C_5  and  C_7
REMARK    7  A    between atoms: C_15  and  O_16
REMARK    8  A    between atoms: O_16  and  C_17
REMARK                            x       y       z     vdW  Elec       q    Type
REMARK                         _______ _______ _______ _____ _____    ______ ____
ROOT
ATOM      1  C   LIG A   1      -8.786   4.388 131.553  0.00  0.00    +0.068 A 
ATOM      2  C   LIG A   1      -8.517   3.217 130.808  0.00  0.00    +0.148 A 
ATOM      3  C   LIG A   1      -7.937   2.072 131.371  0.00  0.00    +0.018 A 
ATOM      4  C   LIG A   1      -7.594   2.077 132.718  0.00  0.00    +0.015 A 
ATOM      5  C   LIG A   1      -7.850   3.210 133.486  0.00  0.00    +0.047 A 
ATOM      6  C   LIG A   1      -8.433   4.360 132.921  0.00  0.00    +0.129 A 
ATOM      7  C   LIG A   1      -7.731   0.881 130.565  0.00  0.00    +0.018 A 
ATOM      8  C   LIG A   1      -8.101   0.891 129.285  0.00  0.00    +0.092 A 
ATOM      9  C   LIG A   1      -8.699   2.066 128.646  0.00  0.00    +0.337 A 
ATOM     10  O   LIG A   1      -9.044   2.034 127.466  0.00  0.00    -0.245 OA
ATOM     11  O   LIG A   1      -8.861   3.198 129.430  0.00  0.00    -0.422 OA
ENDROOT
BRANCH   6  12
ATOM     12  O   LIG A   1      -8.715   5.465 133.688  0.00  0.00    -0.495 OA
ATOM     13  C   LIG A   1      -7.858   5.661 134.812  0.00  0.00    +0.277 C 
ENDBRANCH   6  12
BRANCH   1  14
ATOM     14  C   LIG A   1      -9.451   5.594 130.873  0.00  0.00    +0.184 C 
BRANCH  14  15
ATOM     15  O   LIG A   1      -8.907   6.828 131.361  0.00  0.00    -0.384 OA
ATOM     16  H   LIG A   1      -9.634   7.207 131.894  0.00  0.00    +0.210 HD
ENDBRANCH  14  15
BRANCH  14  17
ATOM     17  C   LIG A   1     -11.013   5.601 130.999  0.00  0.00    +0.173 C 
BRANCH  17  18
ATOM     18  C   LIG A   1     -11.732   6.659 130.160  0.00  0.00    -0.049 C 
ATOM     19  C   LIG A   1     -11.500   6.802 128.842  0.00  0.00    +0.010 C 
ATOM     20  C   LIG A   1     -12.754   7.543 130.836  0.00  0.00    +0.041 C 
ENDBRANCH  17  18
BRANCH  17  21
ATOM     21  O   LIG A   1     -11.389   5.802 132.367  0.00  0.00    -0.385 OA
ATOM     22  H   LIG A   1     -11.101   6.701 132.601  0.00  0.00    +0.210 HD
ENDBRANCH  17  21
ENDBRANCH  14  17
ENDBRANCH   1  14
TORSDOF 6
ENDMDL
