MODEL 1
REMARK VINA RESULT:      -7.1      0.000      0.000
REMARK  Name = NuBBE_1640
REMARK  21 active torsions:
REMARK  status: ('A' for Active; 'I' for Inactive)
REMARK    1  A    between atoms: C_1  and  C_2
REMARK    2  A    between atoms: C_6  and  O_8
REMARK    3  A    between atoms: O_8  and  C_9
REMARK    4  A    between atoms: C_9  and  C_11
REMARK    5  A    between atoms: C_14  and  C_16
REMARK    6  A    between atoms: C_14  and  C_33
REMARK    7  A    between atoms: C_16  and  C_17
REMARK    8  A    between atoms: C_17  and  C_18
REMARK    9  A    between atoms: C_18  and  C_19
REMARK   10  A    between atoms: C_18  and  C_32
REMARK   11  A    between atoms: C_19  and  C_20
REMARK   12  A    between atoms: C_20  and  C_21
REMARK   13  A    between atoms: C_21  and  C_22
REMARK   14  A    between atoms: C_22  and  C_23
REMARK   15  A    between atoms: C_22  and  C_29
REMARK   16  A    between atoms: C_23  and  C_24
REMARK   17  A    between atoms: C_24  and  C_25
REMARK   18  A    between atoms: C_25  and  C_26
REMARK   19  A    between atoms: C_26  and  C_27
REMARK   20  A    between atoms: C_26  and  C_28
REMARK   21  A    between atoms: C_29  and  O_31
REMARK                            x       y       z     vdW  Elec       q    Type
REMARK                         _______ _______ _______ _____ _____    ______ ____
ROOT
ATOM      1  C   LIG A   1      -8.214  -2.974 126.958  0.00  0.00    +0.048 C 
ENDROOT
BRANCH   1  11
ATOM      2  C   LIG A   1      -8.592   1.848 128.415  0.00  0.00    +0.048 C 
ATOM      3  C   LIG A   1      -7.281   1.414 127.818  0.00  0.00    -0.005 A 
ATOM      4  C   LIG A   1      -6.956   0.050 127.669  0.00  0.00    +0.128 A 
ATOM      5  C   LIG A   1      -5.733  -0.323 127.107  0.00  0.00    -0.002 A 
ATOM      6  C   LIG A   1      -4.852   0.658 126.653  0.00  0.00    +0.053 A 
ATOM      7  C   LIG A   1      -5.138   2.004 126.850  0.00  0.00    +0.132 A 
ATOM      8  C   LIG A   1      -6.361   2.391 127.395  0.00  0.00    +0.053 A 
ATOM      9  C   LIG A   1      -5.331  -1.761 127.013  0.00  0.00    +0.043 C 
ATOM     10  C   LIG A   1      -5.988  -2.504 128.161  0.00  0.00    +0.052 C 
ATOM     11  C   LIG A   1      -7.511  -2.273 128.154  0.00  0.00    +0.108 C 
ATOM     12  O   LIG A   1      -7.870  -0.867 128.110  0.00  0.00    -0.485 OA
ATOM     13  C   LIG A   1      -8.103  -2.758 129.489  0.00  0.00    +0.056 C 
BRANCH   7  14
ATOM     14  O   LIG A   1      -4.230   3.017 126.490  0.00  0.00    -0.426 OA
BRANCH  14  15
ATOM     15  C   LIG A   1      -3.126   3.254 127.312  0.00  0.00    +0.309 C 
ATOM     16  O   LIG A   1      -3.133   3.605 128.487  0.00  0.00    -0.251 OA
ATOM     17  C   LIG A   1      -1.857   3.011 126.560  0.00  0.00    +0.136 C 
ENDBRANCH  14  15
ENDBRANCH   7  14
ENDBRANCH   1  11
BRANCH   1  18
ATOM     18  C   LIG A   1      -8.737  -2.034 125.852  0.00  0.00    +0.007 C 
BRANCH  18  19
ATOM     19  C   LIG A   1      -8.431  -2.487 124.408  0.00  0.00    -0.014 C 
ATOM     20  C   LIG A   1      -7.357  -3.582 124.407  0.00  0.00    +0.007 C 
BRANCH  19  21
ATOM     21  C   LIG A   1      -8.050  -1.326 123.455  0.00  0.00    +0.003 C 
BRANCH  21  22
ATOM     22  C   LIG A   1      -7.840   0.019 124.182  0.00  0.00    +0.001 C 
BRANCH  22  23
ATOM     23  C   LIG A   1      -7.334   1.153 123.265  0.00  0.00    +0.015 C 
BRANCH  23  24
ATOM     24  C   LIG A   1      -7.144   2.506 124.014  0.00  0.00    +0.098 C 
BRANCH  24  25
ATOM     25  C   LIG A   1      -8.478   3.148 124.284  0.00  0.00    +0.308 C 
ATOM     26  O   LIG A   1      -8.743   3.954 125.184  0.00  0.00    -0.251 OA
BRANCH  25  27
ATOM     27  O   LIG A   1      -9.437   2.739 123.443  0.00  0.00    -0.480 OA
ATOM     28  H   LIG A   1      -9.125   3.021 122.556  0.00  0.00    +0.295 HD
ENDBRANCH  25  27
ENDBRANCH  24  25
BRANCH  24  29
ATOM     29  C   LIG A   1      -6.257   3.495 123.209  0.00  0.00    +0.015 C 
BRANCH  29  30
ATOM     30  C   LIG A   1      -6.080   3.137 121.710  0.00  0.00    +0.001 C 
BRANCH  30  31
ATOM     31  C   LIG A   1      -7.225   3.694 120.836  0.00  0.00    +0.003 C 
BRANCH  31  32
ATOM     32  C   LIG A   1      -6.825   4.800 119.825  0.00  0.00    -0.017 C 
ATOM     33  C   LIG A   1      -5.321   5.079 119.792  0.00  0.00    +0.007 C 
ATOM     34  C   LIG A   1      -7.285   4.408 118.412  0.00  0.00    +0.007 C 
ENDBRANCH  31  32
ENDBRANCH  30  31
ENDBRANCH  29  30
ENDBRANCH  24  29
ENDBRANCH  23  24
ENDBRANCH  22  23
ENDBRANCH  21  22
ENDBRANCH  19  21
ENDBRANCH  18  19
ENDBRANCH   1  18
TORSDOF 15
ENDMDL
MODEL 2
REMARK VINA RESULT:      -7.1      2.606      5.147
REMARK  Name = NuBBE_1640
REMARK  21 active torsions:
REMARK  status: ('A' for Active; 'I' for Inactive)
REMARK    1  A    between atoms: C_1  and  C_2
REMARK    2  A    between atoms: C_6  and  O_8
REMARK    3  A    between atoms: O_8  and  C_9
REMARK    4  A    between atoms: C_9  and  C_11
REMARK    5  A    between atoms: C_14  and  C_16
REMARK    6  A    between atoms: C_14  and  C_33
REMARK    7  A    between atoms: C_16  and  C_17
REMARK    8  A    between atoms: C_17  and  C_18
REMARK    9  A    between atoms: C_18  and  C_19
REMARK   10  A    between atoms: C_18  and  C_32
REMARK   11  A    between atoms: C_19  and  C_20
REMARK   12  A    between atoms: C_20  and  C_21
REMARK   13  A    between atoms: C_21  and  C_22
REMARK   14  A    between atoms: C_22  and  C_23
REMARK   15  A    between atoms: C_22  and  C_29
REMARK   16  A    between atoms: C_23  and  C_24
REMARK   17  A    between atoms: C_24  and  C_25
REMARK   18  A    between atoms: C_25  and  C_26
REMARK   19  A    between atoms: C_26  and  C_27
REMARK   20  A    between atoms: C_26  and  C_28
REMARK   21  A    between atoms: C_29  and  O_31
REMARK                            x       y       z     vdW  Elec       q    Type
REMARK                         _______ _______ _______ _____ _____    ______ ____
ROOT
ATOM      1  C   LIG A   1      -7.777  -0.320 124.716  0.00  0.00    +0.048 C 
ENDROOT
BRANCH   1  11
ATOM      2  C   LIG A   1      -9.089  -3.727 128.208  0.00  0.00    +0.048 C 
ATOM      3  C   LIG A   1      -7.685  -3.188 128.269  0.00  0.00    -0.005 A 
ATOM      4  C   LIG A   1      -7.118  -2.487 127.186  0.00  0.00    +0.128 A 
ATOM      5  C   LIG A   1      -5.813  -1.996 127.274  0.00  0.00    -0.002 A 
ATOM      6  C   LIG A   1      -5.089  -2.162 128.454  0.00  0.00    +0.053 A 
ATOM      7  C   LIG A   1      -5.618  -2.903 129.504  0.00  0.00    +0.132 A 
ATOM      8  C   LIG A   1      -6.924  -3.387 129.436  0.00  0.00    +0.053 A 
ATOM      9  C   LIG A   1      -5.160  -1.321 126.110  0.00  0.00    +0.043 C 
ATOM     10  C   LIG A   1      -5.753  -1.905 124.841  0.00  0.00    +0.052 C 
ATOM     11  C   LIG A   1      -7.289  -1.789 124.858  0.00  0.00    +0.108 C 
ATOM     12  O   LIG A   1      -7.885  -2.334 126.064  0.00  0.00    -0.485 OA
ATOM     13  C   LIG A   1      -7.875  -2.664 123.735  0.00  0.00    +0.056 C 
BRANCH   7  14
ATOM     14  O   LIG A   1      -4.880  -3.170 130.672  0.00  0.00    -0.426 OA
BRANCH  14  15
ATOM     15  C   LIG A   1      -4.067  -2.163 131.198  0.00  0.00    +0.309 C 
ATOM     16  O   LIG A   1      -2.846  -2.083 131.138  0.00  0.00    -0.251 OA
ATOM     17  C   LIG A   1      -4.903  -1.126 131.877  0.00  0.00    +0.136 C 
ENDBRANCH  14  15
ENDBRANCH   7  14
ENDBRANCH   1  11
BRANCH   1  18
ATOM     18  C   LIG A   1      -9.284  -0.096 124.958  0.00  0.00    +0.007 C 
BRANCH  18  19
ATOM     19  C   LIG A   1      -9.907   1.077 124.170  0.00  0.00    -0.014 C 
ATOM     20  C   LIG A   1     -10.131   0.678 122.706  0.00  0.00    +0.007 C 
BRANCH  19  21
ATOM     21  C   LIG A   1      -9.107   2.399 124.277  0.00  0.00    +0.003 C 
BRANCH  21  22
ATOM     22  C   LIG A   1      -8.406   2.797 122.961  0.00  0.00    +0.001 C 
BRANCH  22  23
ATOM     23  C   LIG A   1      -6.871   2.640 122.998  0.00  0.00    +0.015 C 
BRANCH  23  24
ATOM     24  C   LIG A   1      -6.119   3.999 123.126  0.00  0.00    +0.098 C 
BRANCH  24  25
ATOM     25  C   LIG A   1      -5.298   4.261 121.892  0.00  0.00    +0.308 C 
ATOM     26  O   LIG A   1      -4.632   5.274 121.648  0.00  0.00    -0.251 OA
BRANCH  25  27
ATOM     27  O   LIG A   1      -5.360   3.265 120.998  0.00  0.00    -0.480 OA
ATOM     28  H   LIG A   1      -6.261   3.335 120.613  0.00  0.00    +0.295 HD
ENDBRANCH  25  27
ENDBRANCH  24  25
BRANCH  24  29
ATOM     29  C   LIG A   1      -5.192   4.035 124.371  0.00  0.00    +0.015 C 
BRANCH  29  30
ATOM     30  C   LIG A   1      -5.676   3.174 125.567  0.00  0.00    +0.001 C 
BRANCH  30  31
ATOM     31  C   LIG A   1      -4.534   2.342 126.190  0.00  0.00    +0.003 C 
BRANCH  31  32
ATOM     32  C   LIG A   1      -3.665   3.073 127.246  0.00  0.00    -0.017 C 
ATOM     33  C   LIG A   1      -3.724   2.429 128.633  0.00  0.00    +0.007 C 
ATOM     34  C   LIG A   1      -2.200   3.112 126.782  0.00  0.00    +0.007 C 
ENDBRANCH  31  32
ENDBRANCH  30  31
ENDBRANCH  29  30
ENDBRANCH  24  29
ENDBRANCH  23  24
ENDBRANCH  22  23
ENDBRANCH  21  22
ENDBRANCH  19  21
ENDBRANCH  18  19
ENDBRANCH   1  18
TORSDOF 15
ENDMDL
MODEL 3
REMARK VINA RESULT:      -7.0      2.993      5.802
REMARK  Name = NuBBE_1640
REMARK  21 active torsions:
REMARK  status: ('A' for Active; 'I' for Inactive)
REMARK    1  A    between atoms: C_1  and  C_2
REMARK    2  A    between atoms: C_6  and  O_8
REMARK    3  A    between atoms: O_8  and  C_9
REMARK    4  A    between atoms: C_9  and  C_11
REMARK    5  A    between atoms: C_14  and  C_16
REMARK    6  A    between atoms: C_14  and  C_33
REMARK    7  A    between atoms: C_16  and  C_17
REMARK    8  A    between atoms: C_17  and  C_18
REMARK    9  A    between atoms: C_18  and  C_19
REMARK   10  A    between atoms: C_18  and  C_32
REMARK   11  A    between atoms: C_19  and  C_20
REMARK   12  A    between atoms: C_20  and  C_21
REMARK   13  A    between atoms: C_21  and  C_22
REMARK   14  A    between atoms: C_22  and  C_23
REMARK   15  A    between atoms: C_22  and  C_29
REMARK   16  A    between atoms: C_23  and  C_24
REMARK   17  A    between atoms: C_24  and  C_25
REMARK   18  A    between atoms: C_25  and  C_26
REMARK   19  A    between atoms: C_26  and  C_27
REMARK   20  A    between atoms: C_26  and  C_28
REMARK   21  A    between atoms: C_29  and  O_31
REMARK                            x       y       z     vdW  Elec       q    Type
REMARK                         _______ _______ _______ _____ _____    ______ ____
ROOT
ATOM      1  C   LIG A   1      -6.195  -1.704 131.010  0.00  0.00    +0.048 C 
ENDROOT
BRANCH   1  11
ATOM      2  C   LIG A   1      -5.040  -0.189 126.331  0.00  0.00    +0.048 C 
ATOM      3  C   LIG A   1      -6.345  -0.915 126.514  0.00  0.00    -0.005 A 
ATOM      4  C   LIG A   1      -6.623  -1.646 127.686  0.00  0.00    +0.128 A 
ATOM      5  C   LIG A   1      -7.846  -2.306 127.828  0.00  0.00    -0.002 A 
ATOM      6  C   LIG A   1      -8.809  -2.204 126.826  0.00  0.00    +0.053 A 
ATOM      7  C   LIG A   1      -8.520  -1.535 125.641  0.00  0.00    +0.132 A 
ATOM      8  C   LIG A   1      -7.311  -0.859 125.492  0.00  0.00    +0.053 A 
ATOM      9  C   LIG A   1      -8.132  -3.155 129.027  0.00  0.00    +0.043 C 
ATOM     10  C   LIG A   1      -6.813  -3.715 129.526  0.00  0.00    +0.052 C 
ATOM     11  C   LIG A   1      -5.806  -2.578 129.784  0.00  0.00    +0.108 C 
ATOM     12  O   LIG A   1      -5.650  -1.691 128.646  0.00  0.00    -0.485 OA
ATOM     13  C   LIG A   1      -4.402  -3.179 129.973  0.00  0.00    +0.056 C 
BRANCH   7  14
ATOM     14  O   LIG A   1      -9.434  -1.492 124.571  0.00  0.00    -0.426 OA
BRANCH  14  15
ATOM     15  C   LIG A   1      -9.118  -2.167 123.390  0.00  0.00    +0.309 C 
ATOM     16  O   LIG A   1      -8.489  -1.737 122.431  0.00  0.00    -0.251 OA
ATOM     17  C   LIG A   1      -9.658  -3.561 123.431  0.00  0.00    +0.136 C 
ENDBRANCH  14  15
ENDBRANCH   7  14
ENDBRANCH   1  11
BRANCH   1  18
ATOM     18  C   LIG A   1      -6.253  -0.184 130.749  0.00  0.00    +0.007 C 
BRANCH  18  19
ATOM     19  C   LIG A   1      -7.629   0.471 130.998  0.00  0.00    -0.014 C 
ATOM     20  C   LIG A   1      -8.581  -0.525 131.673  0.00  0.00    +0.007 C 
BRANCH  19  21
ATOM     21  C   LIG A   1      -8.268   1.088 129.729  0.00  0.00    +0.003 C 
BRANCH  21  22
ATOM     22  C   LIG A   1      -7.254   1.828 128.831  0.00  0.00    +0.001 C 
BRANCH  22  23
ATOM     23  C   LIG A   1      -7.803   2.191 127.435  0.00  0.00    +0.015 C 
BRANCH  23  24
ATOM     24  C   LIG A   1      -7.118   3.445 126.815  0.00  0.00    +0.098 C 
BRANCH  24  25
ATOM     25  C   LIG A   1      -8.153   4.388 126.261  0.00  0.00    +0.308 C 
ATOM     26  O   LIG A   1      -8.624   4.380 125.118  0.00  0.00    -0.251 OA
BRANCH  25  27
ATOM     27  O   LIG A   1      -8.539   5.320 127.142  0.00  0.00    -0.480 OA
ATOM     28  H   LIG A   1      -9.390   4.985 127.500  0.00  0.00    +0.295 HD
ENDBRANCH  25  27
ENDBRANCH  24  25
BRANCH  24  29
ATOM     29  C   LIG A   1      -6.121   3.064 125.686  0.00  0.00    +0.015 C 
BRANCH  29  30
ATOM     30  C   LIG A   1      -4.849   3.950 125.616  0.00  0.00    +0.001 C 
BRANCH  30  31
ATOM     31  C   LIG A   1      -4.416   4.462 127.007  0.00  0.00    +0.003 C 
BRANCH  31  32
ATOM     32  C   LIG A   1      -3.243   3.695 127.672  0.00  0.00    -0.017 C 
ATOM     33  C   LIG A   1      -3.701   2.554 128.584  0.00  0.00    +0.007 C 
ATOM     34  C   LIG A   1      -2.314   3.120 126.591  0.00  0.00    +0.007 C 
ENDBRANCH  31  32
ENDBRANCH  30  31
ENDBRANCH  29  30
ENDBRANCH  24  29
ENDBRANCH  23  24
ENDBRANCH  22  23
ENDBRANCH  21  22
ENDBRANCH  19  21
ENDBRANCH  18  19
ENDBRANCH   1  18
TORSDOF 15
ENDMDL
MODEL 4
REMARK VINA RESULT:      -7.0      3.438      7.297
REMARK  Name = NuBBE_1640
REMARK  21 active torsions:
REMARK  status: ('A' for Active; 'I' for Inactive)
REMARK    1  A    between atoms: C_1  and  C_2
REMARK    2  A    between atoms: C_6  and  O_8
REMARK    3  A    between atoms: O_8  and  C_9
REMARK    4  A    between atoms: C_9  and  C_11
REMARK    5  A    between atoms: C_14  and  C_16
REMARK    6  A    between atoms: C_14  and  C_33
REMARK    7  A    between atoms: C_16  and  C_17
REMARK    8  A    between atoms: C_17  and  C_18
REMARK    9  A    between atoms: C_18  and  C_19
REMARK   10  A    between atoms: C_18  and  C_32
REMARK   11  A    between atoms: C_19  and  C_20
REMARK   12  A    between atoms: C_20  and  C_21
REMARK   13  A    between atoms: C_21  and  C_22
REMARK   14  A    between atoms: C_22  and  C_23
REMARK   15  A    between atoms: C_22  and  C_29
REMARK   16  A    between atoms: C_23  and  C_24
REMARK   17  A    between atoms: C_24  and  C_25
REMARK   18  A    between atoms: C_25  and  C_26
REMARK   19  A    between atoms: C_26  and  C_27
REMARK   20  A    between atoms: C_26  and  C_28
REMARK   21  A    between atoms: C_29  and  O_31
REMARK                            x       y       z     vdW  Elec       q    Type
REMARK                         _______ _______ _______ _____ _____    ______ ____
ROOT
ATOM      1  C   LIG A   1      -6.964   0.780 127.778  0.00  0.00    +0.048 C 
ENDROOT
BRANCH   1  11
ATOM      2  C   LIG A   1      -9.621   1.702 131.974  0.00  0.00    +0.048 C 
ATOM      3  C   LIG A   1      -9.376   2.863 131.050  0.00  0.00    -0.005 A 
ATOM      4  C   LIG A   1      -8.403   2.801 130.032  0.00  0.00    +0.128 A 
ATOM      5  C   LIG A   1      -8.201   3.894 129.186  0.00  0.00    -0.002 A 
ATOM      6  C   LIG A   1      -8.995   5.032 129.323  0.00  0.00    +0.053 A 
ATOM      7  C   LIG A   1      -9.915   5.125 130.362  0.00  0.00    +0.132 A 
ATOM      8  C   LIG A   1     -10.138   4.036 131.204  0.00  0.00    +0.053 A 
ATOM      9  C   LIG A   1      -7.121   3.883 128.151  0.00  0.00    +0.043 C 
ATOM     10  C   LIG A   1      -5.999   2.997 128.660  0.00  0.00    +0.052 C 
ATOM     11  C   LIG A   1      -6.535   1.601 129.027  0.00  0.00    +0.108 C 
ATOM     12  O   LIG A   1      -7.671   1.650 129.929  0.00  0.00    -0.485 OA
ATOM     13  C   LIG A   1      -5.464   0.842 129.831  0.00  0.00    +0.056 C 
BRANCH   7  14
ATOM     14  O   LIG A   1     -10.666   6.293 130.587  0.00  0.00    -0.426 OA
BRANCH  14  15
ATOM     15  C   LIG A   1     -11.944   6.388 130.031  0.00  0.00    +0.309 C 
ATOM     16  O   LIG A   1     -12.394   5.754 129.084  0.00  0.00    -0.251 OA
ATOM     17  C   LIG A   1     -12.756   7.404 130.769  0.00  0.00    +0.136 C 
ENDBRANCH  14  15
ENDBRANCH   7  14
ENDBRANCH   1  11
BRANCH   1  18
ATOM     18  C   LIG A   1      -5.909  -0.209 127.241  0.00  0.00    +0.007 C 
BRANCH  18  19
ATOM     19  C   LIG A   1      -5.437   0.057 125.795  0.00  0.00    -0.014 C 
ATOM     20  C   LIG A   1      -6.298   1.147 125.143  0.00  0.00    +0.007 C 
BRANCH  19  21
ATOM     21  C   LIG A   1      -5.377  -1.215 124.912  0.00  0.00    +0.003 C 
BRANCH  21  22
ATOM     22  C   LIG A   1      -6.016  -2.452 125.576  0.00  0.00    +0.001 C 
BRANCH  22  23
ATOM     23  C   LIG A   1      -6.699  -3.414 124.581  0.00  0.00    +0.015 C 
BRANCH  23  24
ATOM     24  C   LIG A   1      -8.224  -3.590 124.847  0.00  0.00    +0.098 C 
BRANCH  24  25
ATOM     25  C   LIG A   1      -9.026  -2.892 123.783  0.00  0.00    +0.308 C 
ATOM     26  O   LIG A   1      -8.699  -1.875 123.158  0.00  0.00    -0.251 OA
BRANCH  25  27
ATOM     27  O   LIG A   1     -10.215  -3.467 123.558  0.00  0.00    -0.480 OA
ATOM     28  H   LIG A   1     -10.863  -2.732 123.634  0.00  0.00    +0.295 HD
ENDBRANCH  25  27
ENDBRANCH  24  25
BRANCH  24  29
ATOM     29  C   LIG A   1      -8.637  -3.039 126.239  0.00  0.00    +0.015 C 
BRANCH  29  30
ATOM     30  C   LIG A   1      -8.765  -4.113 127.352  0.00  0.00    +0.001 C 
BRANCH  30  31
ATOM     31  C   LIG A   1      -8.860  -3.487 128.761  0.00  0.00    +0.003 C 
BRANCH  31  32
ATOM     32  C   LIG A   1      -7.600  -2.721 129.244  0.00  0.00    -0.017 C 
ATOM     33  C   LIG A   1      -7.878  -1.765 130.406  0.00  0.00    +0.007 C 
ATOM     34  C   LIG A   1      -6.514  -3.720 129.675  0.00  0.00    +0.007 C 
ENDBRANCH  31  32
ENDBRANCH  30  31
ENDBRANCH  29  30
ENDBRANCH  24  29
ENDBRANCH  23  24
ENDBRANCH  22  23
ENDBRANCH  21  22
ENDBRANCH  19  21
ENDBRANCH  18  19
ENDBRANCH   1  18
TORSDOF 15
ENDMDL
MODEL 5
REMARK VINA RESULT:      -7.0      2.687      3.580
REMARK  Name = NuBBE_1640
REMARK  21 active torsions:
REMARK  status: ('A' for Active; 'I' for Inactive)
REMARK    1  A    between atoms: C_1  and  C_2
REMARK    2  A    between atoms: C_6  and  O_8
REMARK    3  A    between atoms: O_8  and  C_9
REMARK    4  A    between atoms: C_9  and  C_11
REMARK    5  A    between atoms: C_14  and  C_16
REMARK    6  A    between atoms: C_14  and  C_33
REMARK    7  A    between atoms: C_16  and  C_17
REMARK    8  A    between atoms: C_17  and  C_18
REMARK    9  A    between atoms: C_18  and  C_19
REMARK   10  A    between atoms: C_18  and  C_32
REMARK   11  A    between atoms: C_19  and  C_20
REMARK   12  A    between atoms: C_20  and  C_21
REMARK   13  A    between atoms: C_21  and  C_22
REMARK   14  A    between atoms: C_22  and  C_23
REMARK   15  A    between atoms: C_22  and  C_29
REMARK   16  A    between atoms: C_23  and  C_24
REMARK   17  A    between atoms: C_24  and  C_25
REMARK   18  A    between atoms: C_25  and  C_26
REMARK   19  A    between atoms: C_26  and  C_27
REMARK   20  A    between atoms: C_26  and  C_28
REMARK   21  A    between atoms: C_29  and  O_31
REMARK                            x       y       z     vdW  Elec       q    Type
REMARK                         _______ _______ _______ _____ _____    ______ ____
ROOT
ATOM      1  C   LIG A   1      -7.126  -2.496 126.974  0.00  0.00    +0.048 C 
ENDROOT
BRANCH   1  11
ATOM      2  C   LIG A   1      -8.515   1.407 129.866  0.00  0.00    +0.048 C 
ATOM      3  C   LIG A   1      -7.068   0.999 129.915  0.00  0.00    -0.005 A 
ATOM      4  C   LIG A   1      -6.635  -0.243 129.407  0.00  0.00    +0.128 A 
ATOM      5  C   LIG A   1      -5.284  -0.591 129.463  0.00  0.00    -0.002 A 
ATOM      6  C   LIG A   1      -4.357   0.310 129.983  0.00  0.00    +0.053 A 
ATOM      7  C   LIG A   1      -4.782   1.511 130.540  0.00  0.00    +0.132 A 
ATOM      8  C   LIG A   1      -6.125   1.880 130.477  0.00  0.00    +0.053 A 
ATOM      9  C   LIG A   1      -4.812  -1.936 129.006  0.00  0.00    +0.043 C 
ATOM     10  C   LIG A   1      -5.944  -2.924 129.221  0.00  0.00    +0.052 C 
ATOM     11  C   LIG A   1      -7.228  -2.435 128.525  0.00  0.00    +0.108 C 
ATOM     12  O   LIG A   1      -7.587  -1.076 128.887  0.00  0.00    -0.485 OA
ATOM     13  C   LIG A   1      -8.421  -3.272 129.020  0.00  0.00    +0.056 C 
BRANCH   7  14
ATOM     14  O   LIG A   1      -3.885   2.403 131.156  0.00  0.00    -0.426 OA
BRANCH  14  15
ATOM     15  C   LIG A   1      -3.961   3.761 130.839  0.00  0.00    +0.309 C 
ATOM     16  O   LIG A   1      -4.435   4.661 131.523  0.00  0.00    -0.251 OA
ATOM     17  C   LIG A   1      -3.358   4.013 129.494  0.00  0.00    +0.136 C 
ENDBRANCH  14  15
ENDBRANCH   7  14
ENDBRANCH   1  11
BRANCH   1  18
ATOM     18  C   LIG A   1      -8.447  -2.791 126.234  0.00  0.00    +0.007 C 
BRANCH  18  19
ATOM     19  C   LIG A   1      -8.298  -3.602 124.929  0.00  0.00    -0.014 C 
ATOM     20  C   LIG A   1      -6.865  -3.494 124.391  0.00  0.00    +0.007 C 
BRANCH  19  21
ATOM     21  C   LIG A   1      -9.336  -3.232 123.839  0.00  0.00    +0.003 C 
BRANCH  21  22
ATOM     22  C   LIG A   1      -8.799  -2.227 122.799  0.00  0.00    +0.001 C 
BRANCH  22  23
ATOM     23  C   LIG A   1      -9.563  -0.885 122.773  0.00  0.00    +0.015 C 
BRANCH  23  24
ATOM     24  C   LIG A   1      -9.077   0.117 123.863  0.00  0.00    +0.098 C 
BRANCH  24  25
ATOM     25  C   LIG A   1     -10.037   1.269 123.980  0.00  0.00    +0.308 C 
ATOM     26  O   LIG A   1     -11.272   1.202 124.017  0.00  0.00    -0.251 OA
BRANCH  25  27
ATOM     27  O   LIG A   1      -9.427   2.461 124.017  0.00  0.00    -0.480 OA
ATOM     28  H   LIG A   1      -9.087   2.536 124.936  0.00  0.00    +0.295 HD
ENDBRANCH  25  27
ENDBRANCH  24  25
BRANCH  24  29
ATOM     29  C   LIG A   1      -7.657   0.667 123.555  0.00  0.00    +0.015 C 
BRANCH  29  30
ATOM     30  C   LIG A   1      -6.559   0.231 124.560  0.00  0.00    +0.001 C 
BRANCH  30  31
ATOM     31  C   LIG A   1      -6.732   0.900 125.941  0.00  0.00    +0.003 C 
BRANCH  31  32
ATOM     32  C   LIG A   1      -6.023   2.268 126.122  0.00  0.00    -0.017 C 
ATOM     33  C   LIG A   1      -6.787   3.234 127.029  0.00  0.00    +0.007 C 
ATOM     34  C   LIG A   1      -4.616   2.054 126.702  0.00  0.00    +0.007 C 
ENDBRANCH  31  32
ENDBRANCH  30  31
ENDBRANCH  29  30
ENDBRANCH  24  29
ENDBRANCH  23  24
ENDBRANCH  22  23
ENDBRANCH  21  22
ENDBRANCH  19  21
ENDBRANCH  18  19
ENDBRANCH   1  18
TORSDOF 15
ENDMDL
MODEL 6
REMARK VINA RESULT:      -7.0      2.701      4.238
REMARK  Name = NuBBE_1640
REMARK  21 active torsions:
REMARK  status: ('A' for Active; 'I' for Inactive)
REMARK    1  A    between atoms: C_1  and  C_2
REMARK    2  A    between atoms: C_6  and  O_8
REMARK    3  A    between atoms: O_8  and  C_9
REMARK    4  A    between atoms: C_9  and  C_11
REMARK    5  A    between atoms: C_14  and  C_16
REMARK    6  A    between atoms: C_14  and  C_33
REMARK    7  A    between atoms: C_16  and  C_17
REMARK    8  A    between atoms: C_17  and  C_18
REMARK    9  A    between atoms: C_18  and  C_19
REMARK   10  A    between atoms: C_18  and  C_32
REMARK   11  A    between atoms: C_19  and  C_20
REMARK   12  A    between atoms: C_20  and  C_21
REMARK   13  A    between atoms: C_21  and  C_22
REMARK   14  A    between atoms: C_22  and  C_23
REMARK   15  A    between atoms: C_22  and  C_29
REMARK   16  A    between atoms: C_23  and  C_24
REMARK   17  A    between atoms: C_24  and  C_25
REMARK   18  A    between atoms: C_25  and  C_26
REMARK   19  A    between atoms: C_26  and  C_27
REMARK   20  A    between atoms: C_26  and  C_28
REMARK   21  A    between atoms: C_29  and  O_31
REMARK                            x       y       z     vdW  Elec       q    Type
REMARK                         _______ _______ _______ _____ _____    ______ ____
ROOT
ATOM      1  C   LIG A   1      -6.273  -2.941 130.186  0.00  0.00    +0.048 C 
ENDROOT
BRANCH   1  11
ATOM      2  C   LIG A   1      -8.543   1.572 130.150  0.00  0.00    +0.048 C 
ATOM      3  C   LIG A   1      -7.063   1.548 129.880  0.00  0.00    -0.005 A 
ATOM      4  C   LIG A   1      -6.281   0.411 130.169  0.00  0.00    +0.128 A 
ATOM      5  C   LIG A   1      -4.909   0.417 129.903  0.00  0.00    -0.002 A 
ATOM      6  C   LIG A   1      -4.323   1.534 129.310  0.00  0.00    +0.053 A 
ATOM      7  C   LIG A   1      -5.075   2.680 129.077  0.00  0.00    +0.132 A 
ATOM      8  C   LIG A   1      -6.447   2.684 129.323  0.00  0.00    +0.053 A 
ATOM      9  C   LIG A   1      -4.044  -0.746 130.275  0.00  0.00    +0.043 C 
ATOM     10  C   LIG A   1      -4.661  -1.415 131.490  0.00  0.00    +0.052 C 
ATOM     11  C   LIG A   1      -6.131  -1.784 131.216  0.00  0.00    +0.108 C 
ATOM     12  O   LIG A   1      -6.915  -0.664 130.727  0.00  0.00    -0.485 OA
ATOM     13  C   LIG A   1      -6.815  -2.156 132.543  0.00  0.00    +0.056 C 
BRANCH   7  14
ATOM     14  O   LIG A   1      -4.496   3.858 128.567  0.00  0.00    -0.426 OA
BRANCH  14  15
ATOM     15  C   LIG A   1      -4.802   4.245 127.260  0.00  0.00    +0.309 C 
ATOM     16  O   LIG A   1      -5.665   5.038 126.900  0.00  0.00    -0.251 OA
ATOM     17  C   LIG A   1      -3.900   3.552 126.290  0.00  0.00    +0.136 C 
ENDBRANCH  14  15
ENDBRANCH   7  14
ENDBRANCH   1  11
BRANCH   1  18
ATOM     18  C   LIG A   1      -7.717  -3.271 129.754  0.00  0.00    +0.007 C 
BRANCH  18  19
ATOM     19  C   LIG A   1      -8.120  -2.744 128.360  0.00  0.00    -0.014 C 
ATOM     20  C   LIG A   1      -8.908  -3.813 127.592  0.00  0.00    +0.007 C 
BRANCH  19  21
ATOM     21  C   LIG A   1      -6.930  -2.213 127.522  0.00  0.00    +0.003 C 
BRANCH  21  22
ATOM     22  C   LIG A   1      -7.113  -0.754 127.055  0.00  0.00    +0.001 C 
BRANCH  22  23
ATOM     23  C   LIG A   1      -8.252  -0.564 126.030  0.00  0.00    +0.015 C 
BRANCH  23  24
ATOM     24  C   LIG A   1      -8.098   0.730 125.176  0.00  0.00    +0.098 C 
BRANCH  24  25
ATOM     25  C   LIG A   1      -9.448   1.322 124.874  0.00  0.00    +0.308 C 
ATOM     26  O   LIG A   1     -10.481   0.703 124.592  0.00  0.00    -0.251 OA
BRANCH  25  27
ATOM     27  O   LIG A   1      -9.453   2.662 124.905  0.00  0.00    -0.480 OA
ATOM     28  H   LIG A   1      -8.874   2.928 124.158  0.00  0.00    +0.295 HD
ENDBRANCH  25  27
ENDBRANCH  24  25
BRANCH  24  29
ATOM     29  C   LIG A   1      -7.350   0.460 123.842  0.00  0.00    +0.015 C 
BRANCH  29  30
ATOM     30  C   LIG A   1      -7.598  -0.945 123.231  0.00  0.00    +0.001 C 
BRANCH  30  31
ATOM     31  C   LIG A   1      -6.284  -1.722 123.000  0.00  0.00    +0.003 C 
BRANCH  31  32
ATOM     32  C   LIG A   1      -5.957  -2.820 124.047  0.00  0.00    -0.017 C 
ATOM     33  C   LIG A   1      -7.128  -3.764 124.324  0.00  0.00    +0.007 C 
ATOM     34  C   LIG A   1      -4.753  -3.651 123.575  0.00  0.00    +0.007 C 
ENDBRANCH  31  32
ENDBRANCH  30  31
ENDBRANCH  29  30
ENDBRANCH  24  29
ENDBRANCH  23  24
ENDBRANCH  22  23
ENDBRANCH  21  22
ENDBRANCH  19  21
ENDBRANCH  18  19
ENDBRANCH   1  18
TORSDOF 15
ENDMDL
MODEL 7
REMARK VINA RESULT:      -6.9      3.829      6.625
REMARK  Name = NuBBE_1640
REMARK  21 active torsions:
REMARK  status: ('A' for Active; 'I' for Inactive)
REMARK    1  A    between atoms: C_1  and  C_2
REMARK    2  A    between atoms: C_6  and  O_8
REMARK    3  A    between atoms: O_8  and  C_9
REMARK    4  A    between atoms: C_9  and  C_11
REMARK    5  A    between atoms: C_14  and  C_16
REMARK    6  A    between atoms: C_14  and  C_33
REMARK    7  A    between atoms: C_16  and  C_17
REMARK    8  A    between atoms: C_17  and  C_18
REMARK    9  A    between atoms: C_18  and  C_19
REMARK   10  A    between atoms: C_18  and  C_32
REMARK   11  A    between atoms: C_19  and  C_20
REMARK   12  A    between atoms: C_20  and  C_21
REMARK   13  A    between atoms: C_21  and  C_22
REMARK   14  A    between atoms: C_22  and  C_23
REMARK   15  A    between atoms: C_22  and  C_29
REMARK   16  A    between atoms: C_23  and  C_24
REMARK   17  A    between atoms: C_24  and  C_25
REMARK   18  A    between atoms: C_25  and  C_26
REMARK   19  A    between atoms: C_26  and  C_27
REMARK   20  A    between atoms: C_26  and  C_28
REMARK   21  A    between atoms: C_29  and  O_31
REMARK                            x       y       z     vdW  Elec       q    Type
REMARK                         _______ _______ _______ _____ _____    ______ ____
ROOT
ATOM      1  C   LIG A   1      -8.273   0.239 130.518  0.00  0.00    +0.048 C 
ENDROOT
BRANCH   1  11
ATOM      2  C   LIG A   1      -8.909   3.866 133.976  0.00  0.00    +0.048 C 
ATOM      3  C   LIG A   1      -9.199   4.226 132.545  0.00  0.00    -0.005 A 
ATOM      4  C   LIG A   1      -8.766   3.412 131.479  0.00  0.00    +0.128 A 
ATOM      5  C   LIG A   1      -9.054   3.771 130.160  0.00  0.00    -0.002 A 
ATOM      6  C   LIG A   1      -9.810   4.913 129.902  0.00  0.00    +0.053 A 
ATOM      7  C   LIG A   1     -10.189   5.753 130.943  0.00  0.00    +0.132 A 
ATOM      8  C   LIG A   1      -9.922   5.400 132.265  0.00  0.00    +0.053 A 
ATOM      9  C   LIG A   1      -8.536   2.967 129.008  0.00  0.00    +0.043 C 
ATOM     10  C   LIG A   1      -7.228   2.329 129.438  0.00  0.00    +0.052 C 
ATOM     11  C   LIG A   1      -7.420   1.521 130.735  0.00  0.00    +0.108 C 
ATOM     12  O   LIG A   1      -8.049   2.291 131.793  0.00  0.00    -0.485 OA
ATOM     13  C   LIG A   1      -6.041   1.161 131.316  0.00  0.00    +0.056 C 
BRANCH   7  14
ATOM     14  O   LIG A   1     -10.872   6.962 130.711  0.00  0.00    -0.426 OA
BRANCH  14  15
ATOM     15  C   LIG A   1     -12.269   6.957 130.717  0.00  0.00    +0.309 C 
ATOM     16  O   LIG A   1     -13.010   7.038 131.690  0.00  0.00    -0.251 OA
ATOM     17  C   LIG A   1     -12.792   6.846 129.322  0.00  0.00    +0.136 C 
ENDBRANCH  14  15
ENDBRANCH   7  14
ENDBRANCH   1  11
BRANCH   1  18
ATOM     18  C   LIG A   1      -7.618  -0.853 129.646  0.00  0.00    +0.007 C 
BRANCH  18  19
ATOM     19  C   LIG A   1      -7.995  -2.303 130.019  0.00  0.00    -0.014 C 
ATOM     20  C   LIG A   1      -7.338  -2.702 131.347  0.00  0.00    +0.007 C 
BRANCH  19  21
ATOM     21  C   LIG A   1      -7.686  -3.336 128.907  0.00  0.00    +0.003 C 
BRANCH  21  22
ATOM     22  C   LIG A   1      -8.906  -3.666 128.022  0.00  0.00    +0.001 C 
BRANCH  22  23
ATOM     23  C   LIG A   1      -8.594  -3.693 126.510  0.00  0.00    +0.015 C 
BRANCH  23  24
ATOM     24  C   LIG A   1      -9.198  -2.482 125.738  0.00  0.00    +0.098 C 
BRANCH  24  25
ATOM     25  C   LIG A   1      -8.989  -2.648 124.257  0.00  0.00    +0.308 C 
ATOM     26  O   LIG A   1      -9.867  -2.695 123.387  0.00  0.00    -0.251 OA
BRANCH  25  27
ATOM     27  O   LIG A   1      -7.699  -2.779 123.920  0.00  0.00    -0.480 OA
ATOM     28  H   LIG A   1      -7.333  -1.870 123.986  0.00  0.00    +0.295 HD
ENDBRANCH  25  27
ENDBRANCH  24  25
BRANCH  24  29
ATOM     29  C   LIG A   1      -8.574  -1.134 126.192  0.00  0.00    +0.015 C 
BRANCH  29  30
ATOM     30  C   LIG A   1      -9.477   0.108 125.971  0.00  0.00    +0.001 C 
BRANCH  30  31
ATOM     31  C   LIG A   1      -8.671   1.341 125.506  0.00  0.00    +0.003 C 
BRANCH  31  32
ATOM     32  C   LIG A   1      -8.504   1.498 123.972  0.00  0.00    -0.017 C 
ATOM     33  C   LIG A   1      -7.245   0.822 123.424  0.00  0.00    +0.007 C 
ATOM     34  C   LIG A   1      -9.730   0.916 123.250  0.00  0.00    +0.007 C 
ENDBRANCH  31  32
ENDBRANCH  30  31
ENDBRANCH  29  30
ENDBRANCH  24  29
ENDBRANCH  23  24
ENDBRANCH  22  23
ENDBRANCH  21  22
ENDBRANCH  19  21
ENDBRANCH  18  19
ENDBRANCH   1  18
TORSDOF 15
ENDMDL
MODEL 8
REMARK VINA RESULT:      -6.8      2.155      5.946
REMARK  Name = NuBBE_1640
REMARK  21 active torsions:
REMARK  status: ('A' for Active; 'I' for Inactive)
REMARK    1  A    between atoms: C_1  and  C_2
REMARK    2  A    between atoms: C_6  and  O_8
REMARK    3  A    between atoms: O_8  and  C_9
REMARK    4  A    between atoms: C_9  and  C_11
REMARK    5  A    between atoms: C_14  and  C_16
REMARK    6  A    between atoms: C_14  and  C_33
REMARK    7  A    between atoms: C_16  and  C_17
REMARK    8  A    between atoms: C_17  and  C_18
REMARK    9  A    between atoms: C_18  and  C_19
REMARK   10  A    between atoms: C_18  and  C_32
REMARK   11  A    between atoms: C_19  and  C_20
REMARK   12  A    between atoms: C_20  and  C_21
REMARK   13  A    between atoms: C_21  and  C_22
REMARK   14  A    between atoms: C_22  and  C_23
REMARK   15  A    between atoms: C_22  and  C_29
REMARK   16  A    between atoms: C_23  and  C_24
REMARK   17  A    between atoms: C_24  and  C_25
REMARK   18  A    between atoms: C_25  and  C_26
REMARK   19  A    between atoms: C_26  and  C_27
REMARK   20  A    between atoms: C_26  and  C_28
REMARK   21  A    between atoms: C_29  and  O_31
REMARK                            x       y       z     vdW  Elec       q    Type
REMARK                         _______ _______ _______ _____ _____    ______ ____
ROOT
ATOM      1  C   LIG A   1      -5.399   3.715 127.358  0.00  0.00    +0.048 C 
ENDROOT
BRANCH   1  11
ATOM      2  C   LIG A   1      -5.370  -0.819 125.130  0.00  0.00    +0.048 C 
ATOM      3  C   LIG A   1      -5.446  -0.795 126.632  0.00  0.00    -0.005 A 
ATOM      4  C   LIG A   1      -5.149   0.372 127.365  0.00  0.00    +0.128 A 
ATOM      5  C   LIG A   1      -5.232   0.365 128.759  0.00  0.00    -0.002 A 
ATOM      6  C   LIG A   1      -5.651  -0.787 129.423  0.00  0.00    +0.053 A 
ATOM      7  C   LIG A   1      -5.888  -1.959 128.712  0.00  0.00    +0.132 A 
ATOM      8  C   LIG A   1      -5.824  -1.963 127.320  0.00  0.00    +0.053 A 
ATOM      9  C   LIG A   1      -4.844   1.566 129.564  0.00  0.00    +0.043 C 
ATOM     10  C   LIG A   1      -3.778   2.319 128.790  0.00  0.00    +0.052 C 
ATOM     11  C   LIG A   1      -4.270   2.645 127.367  0.00  0.00    +0.108 C 
ATOM     12  O   LIG A   1      -4.766   1.479 126.659  0.00  0.00    -0.485 OA
ATOM     13  C   LIG A   1      -3.077   3.110 126.513  0.00  0.00    +0.056 C 
BRANCH   7  14
ATOM     14  O   LIG A   1      -6.222  -3.164 129.358  0.00  0.00    -0.426 OA
BRANCH  14  15
ATOM     15  C   LIG A   1      -7.437  -3.246 130.042  0.00  0.00    +0.309 C 
ATOM     16  O   LIG A   1      -7.623  -3.128 131.248  0.00  0.00    -0.251 OA
ATOM     17  C   LIG A   1      -8.556  -3.499 129.083  0.00  0.00    +0.136 C 
ENDBRANCH  14  15
ENDBRANCH   7  14
ENDBRANCH   1  11
BRANCH   1  18
ATOM     18  C   LIG A   1      -6.625   3.377 126.484  0.00  0.00    +0.007 C 
BRANCH  18  19
ATOM     19  C   LIG A   1      -7.951   3.204 127.256  0.00  0.00    -0.014 C 
ATOM     20  C   LIG A   1      -7.871   3.899 128.621  0.00  0.00    +0.007 C 
BRANCH  19  21
ATOM     21  C   LIG A   1      -8.403   1.729 127.402  0.00  0.00    +0.003 C 
BRANCH  21  22
ATOM     22  C   LIG A   1      -8.630   1.022 126.049  0.00  0.00    +0.001 C 
BRANCH  22  23
ATOM     23  C   LIG A   1      -9.341   1.899 124.996  0.00  0.00    +0.015 C 
BRANCH  23  24
ATOM     24  C   LIG A   1      -8.961   1.527 123.531  0.00  0.00    +0.098 C 
BRANCH  24  25
ATOM     25  C   LIG A   1      -8.775   2.772 122.706  0.00  0.00    +0.308 C 
ATOM     26  O   LIG A   1      -9.067   2.918 121.513  0.00  0.00    -0.251 OA
BRANCH  25  27
ATOM     27  O   LIG A   1      -8.207   3.775 123.388  0.00  0.00    -0.480 OA
ATOM     28  H   LIG A   1      -8.713   3.819 124.229  0.00  0.00    +0.295 HD
ENDBRANCH  25  27
ENDBRANCH  24  25
BRANCH  24  29
ATOM     29  C   LIG A   1     -10.037   0.629 122.863  0.00  0.00    +0.015 C 
BRANCH  29  30
ATOM     30  C   LIG A   1      -9.542  -0.781 122.449  0.00  0.00    +0.001 C 
BRANCH  30  31
ATOM     31  C   LIG A   1      -8.401  -1.290 123.357  0.00  0.00    +0.003 C 
BRANCH  31  32
ATOM     32  C   LIG A   1      -8.644  -2.661 124.041  0.00  0.00    -0.017 C 
ATOM     33  C   LIG A   1      -9.019  -2.545 125.520  0.00  0.00    +0.007 C 
ATOM     34  C   LIG A   1      -9.760  -3.421 123.307  0.00  0.00    +0.007 C 
ENDBRANCH  31  32
ENDBRANCH  30  31
ENDBRANCH  29  30
ENDBRANCH  24  29
ENDBRANCH  23  24
ENDBRANCH  22  23
ENDBRANCH  21  22
ENDBRANCH  19  21
ENDBRANCH  18  19
ENDBRANCH   1  18
TORSDOF 15
ENDMDL
MODEL 9
REMARK VINA RESULT:      -6.7      4.384      6.957
REMARK  Name = NuBBE_1640
REMARK  21 active torsions:
REMARK  status: ('A' for Active; 'I' for Inactive)
REMARK    1  A    between atoms: C_1  and  C_2
REMARK    2  A    between atoms: C_6  and  O_8
REMARK    3  A    between atoms: O_8  and  C_9
REMARK    4  A    between atoms: C_9  and  C_11
REMARK    5  A    between atoms: C_14  and  C_16
REMARK    6  A    between atoms: C_14  and  C_33
REMARK    7  A    between atoms: C_16  and  C_17
REMARK    8  A    between atoms: C_17  and  C_18
REMARK    9  A    between atoms: C_18  and  C_19
REMARK   10  A    between atoms: C_18  and  C_32
REMARK   11  A    between atoms: C_19  and  C_20
REMARK   12  A    between atoms: C_20  and  C_21
REMARK   13  A    between atoms: C_21  and  C_22
REMARK   14  A    between atoms: C_22  and  C_23
REMARK   15  A    between atoms: C_22  and  C_29
REMARK   16  A    between atoms: C_23  and  C_24
REMARK   17  A    between atoms: C_24  and  C_25
REMARK   18  A    between atoms: C_25  and  C_26
REMARK   19  A    between atoms: C_26  and  C_27
REMARK   20  A    between atoms: C_26  and  C_28
REMARK   21  A    between atoms: C_29  and  O_31
REMARK                            x       y       z     vdW  Elec       q    Type
REMARK                         _______ _______ _______ _____ _____    ______ ____
ROOT
ATOM      1  C   LIG A   1      -6.824   3.589 132.161  0.00  0.00    +0.048 C 
ENDROOT
BRANCH   1  11
ATOM      2  C   LIG A   1     -11.515   3.689 130.291  0.00  0.00    +0.048 C 
ATOM      3  C   LIG A   1     -10.736   4.975 130.254  0.00  0.00    -0.005 A 
ATOM      4  C   LIG A   1      -9.562   5.146 131.015  0.00  0.00    +0.128 A 
ATOM      5  C   LIG A   1      -8.857   6.351 130.958  0.00  0.00    -0.002 A 
ATOM      6  C   LIG A   1      -9.294   7.369 130.112  0.00  0.00    +0.053 A 
ATOM      7  C   LIG A   1     -10.483   7.232 129.404  0.00  0.00    +0.132 A 
ATOM      8  C   LIG A   1     -11.188   6.030 129.440  0.00  0.00    +0.053 A 
ATOM      9  C   LIG A   1      -7.655   6.586 131.817  0.00  0.00    +0.043 C 
ATOM     10  C   LIG A   1      -7.824   5.773 133.087  0.00  0.00    +0.052 C 
ATOM     11  C   LIG A   1      -8.080   4.291 132.751  0.00  0.00    +0.108 C 
ATOM     12  O   LIG A   1      -9.168   4.104 131.809  0.00  0.00    -0.485 OA
ATOM     13  C   LIG A   1      -8.563   3.561 134.016  0.00  0.00    +0.056 C 
BRANCH   7  14
ATOM     14  O   LIG A   1     -11.002   8.274 128.614  0.00  0.00    -0.426 OA
BRANCH  14  15
ATOM     15  C   LIG A   1     -12.383   8.485 128.601  0.00  0.00    +0.309 C 
ATOM     16  O   LIG A   1     -13.190   8.087 127.768  0.00  0.00    -0.251 OA
ATOM     17  C   LIG A   1     -12.795   9.289 129.792  0.00  0.00    +0.136 C 
ENDBRANCH  14  15
ENDBRANCH   7  14
ENDBRANCH   1  11
BRANCH   1  18
ATOM     18  C   LIG A   1      -7.108   2.476 131.132  0.00  0.00    +0.007 C 
BRANCH  18  19
ATOM     19  C   LIG A   1      -6.483   2.698 129.737  0.00  0.00    -0.014 C 
ATOM     20  C   LIG A   1      -5.885   4.107 129.637  0.00  0.00    +0.007 C 
BRANCH  19  21
ATOM     21  C   LIG A   1      -7.454   2.415 128.563  0.00  0.00    +0.003 C 
BRANCH  21  22
ATOM     22  C   LIG A   1      -6.751   1.851 127.311  0.00  0.00    +0.001 C 
BRANCH  22  23
ATOM     23  C   LIG A   1      -6.992   2.681 126.031  0.00  0.00    +0.015 C 
BRANCH  23  24
ATOM     24  C   LIG A   1      -6.972   4.218 126.286  0.00  0.00    +0.098 C 
BRANCH  24  25
ATOM     25  C   LIG A   1      -8.326   4.813 126.008  0.00  0.00    +0.308 C 
ATOM     26  O   LIG A   1      -8.901   5.684 126.671  0.00  0.00    -0.251 OA
BRANCH  25  27
ATOM     27  O   LIG A   1      -8.925   4.279 124.936  0.00  0.00    -0.480 OA
ATOM     28  H   LIG A   1      -9.857   4.581 124.997  0.00  0.00    +0.295 HD
ENDBRANCH  25  27
ENDBRANCH  24  25
BRANCH  24  29
ATOM     29  C   LIG A   1      -5.911   4.938 125.409  0.00  0.00    +0.015 C 
BRANCH  29  30
ATOM     30  C   LIG A   1      -5.179   4.023 124.392  0.00  0.00    +0.001 C 
BRANCH  30  31
ATOM     31  C   LIG A   1      -5.564   4.347 122.932  0.00  0.00    +0.003 C 
BRANCH  31  32
ATOM     32  C   LIG A   1      -6.195   3.181 122.126  0.00  0.00    -0.017 C 
ATOM     33  C   LIG A   1      -7.690   3.366 121.857  0.00  0.00    +0.007 C 
ATOM     34  C   LIG A   1      -5.468   3.020 120.782  0.00  0.00    +0.007 C 
ENDBRANCH  31  32
ENDBRANCH  30  31
ENDBRANCH  29  30
ENDBRANCH  24  29
ENDBRANCH  23  24
ENDBRANCH  22  23
ENDBRANCH  21  22
ENDBRANCH  19  21
ENDBRANCH  18  19
ENDBRANCH   1  18
TORSDOF 15
ENDMDL
