MODEL 1
REMARK VINA RESULT:      -8.4      0.000      0.000
REMARK  Name = NuBBE_992
REMARK  9 active torsions:
REMARK  status: ('A' for Active; 'I' for Inactive)
REMARK    1  A    between atoms: C_1  and  C_2
REMARK    2  A    between atoms: C_9  and  O_23
REMARK    3  A    between atoms: C_11  and  O_19
REMARK    4  A    between atoms: O_19  and  C_20
REMARK    5  A    between atoms: C_20  and  C_21
REMARK    6  A    between atoms: O_23  and  C_24
REMARK    7  A    between atoms: C_24  and  C_25
REMARK    8  A    between atoms: C_29  and  C_31
REMARK    9  A    between atoms: C_31  and  C_32
REMARK                            x       y       z     vdW  Elec       q    Type
REMARK                         _______ _______ _______ _____ _____    ______ ____
ROOT
ATOM      1  C   LIG A   1      -4.095  -4.245 130.433  0.00  0.00    +0.012 C 
ATOM      2  C   LIG A   1      -4.996  -2.998 130.595  0.00  0.00    -0.019 C 
ATOM      3  C   LIG A   1      -6.498  -3.450 130.576  0.00  0.00    +0.006 C 
ATOM      4  C   LIG A   1      -7.132  -3.246 129.179  0.00  0.00    -0.003 C 
ATOM      5  C   LIG A   1      -8.555  -3.792 129.081  0.00  0.00    +0.004 C 
ATOM      6  C   LIG A   1      -9.006  -3.746 127.632  0.00  0.00    +0.004 C 
ATOM      7  C   LIG A   1      -8.914  -2.350 126.971  0.00  0.00    +0.002 C 
ATOM      8  C   LIG A   1      -9.171  -2.581 125.459  0.00  0.00    +0.055 C 
ATOM      9  C   LIG A   1      -8.535  -1.562 124.513  0.00  0.00    +0.248 C 
ATOM     10  C   LIG A   1      -7.127  -1.099 125.017  0.00  0.00    +0.253 C 
ATOM     11  C   LIG A   1      -6.572  -1.934 126.183  0.00  0.00    +0.092 C 
ATOM     12  C   LIG A   1      -7.583  -1.571 127.270  0.00  0.00    +0.006 C 
ATOM     13  C   LIG A   1      -7.134  -1.762 128.744  0.00  0.00    +0.001 C 
ATOM     14  C   LIG A   1      -5.811  -1.067 129.116  0.00  0.00    +0.005 C 
ATOM     15  C   LIG A   1      -4.698  -2.057 129.400  0.00  0.00    +0.008 C 
ATOM     16  C   LIG A   1      -7.776  -0.057 126.982  0.00  0.00    +0.172 C 
ATOM     17  O   LIG A   1      -7.296   0.190 125.656  0.00  0.00    -0.336 OA
ATOM     18  C   LIG A   1      -7.233  -2.695 131.691  0.00  0.00    +0.079 C 
ATOM     19  C   LIG A   1      -6.147  -2.039 132.484  0.00  0.00    +0.137 C 
ATOM     20  C   LIG A   1      -4.756  -2.401 132.014  0.00  0.00    +0.061 C 
ATOM     21  O   LIG A   1      -6.384  -1.319 133.449  0.00  0.00    -0.297 OA
ENDROOT
BRANCH  20  22
ATOM     22  C   LIG A   1      -3.804  -1.208 132.178  0.00  0.00    +0.008 C 
ATOM     23  C   LIG A   1      -2.609  -1.439 133.093  0.00  0.00    +0.004 C 
ENDBRANCH  20  22
BRANCH  10  24
ATOM     24  O   LIG A   1      -6.193  -0.936 123.943  0.00  0.00    -0.429 OA
BRANCH  24  25
ATOM     25  C   LIG A   1      -6.177  -1.915 123.000  0.00  0.00    +0.306 C 
ATOM     26  C   LIG A   1      -5.088  -2.898 123.306  0.00  0.00    +0.136 C 
ATOM     27  O   LIG A   1      -6.912  -1.982 122.033  0.00  0.00    -0.251 OA
ENDBRANCH  24  25
ENDBRANCH  10  24
BRANCH   9  28
ATOM     28  O   LIG A   1      -9.438  -0.435 124.392  0.00  0.00    -0.455 OA
BRANCH  28  29
ATOM     29  C   LIG A   1      -9.672   0.023 123.136  0.00  0.00    +0.304 C 
ATOM     30  C   LIG A   1      -9.333   1.475 123.051  0.00  0.00    +0.136 C 
ATOM     31  O   LIG A   1     -10.162  -0.628 122.220  0.00  0.00    -0.251 OA
ENDBRANCH  28  29
ENDBRANCH   9  28
TORSDOF 5
ENDMDL
MODEL 2
REMARK VINA RESULT:      -8.1      1.892      7.879
REMARK  Name = NuBBE_992
REMARK  9 active torsions:
REMARK  status: ('A' for Active; 'I' for Inactive)
REMARK    1  A    between atoms: C_1  and  C_2
REMARK    2  A    between atoms: C_9  and  O_23
REMARK    3  A    between atoms: C_11  and  O_19
REMARK    4  A    between atoms: O_19  and  C_20
REMARK    5  A    between atoms: C_20  and  C_21
REMARK    6  A    between atoms: O_23  and  C_24
REMARK    7  A    between atoms: C_24  and  C_25
REMARK    8  A    between atoms: C_29  and  C_31
REMARK    9  A    between atoms: C_31  and  C_32
REMARK                            x       y       z     vdW  Elec       q    Type
REMARK                         _______ _______ _______ _____ _____    ______ ____
ROOT
ATOM      1  C   LIG A   1      -9.727   0.703 125.523  0.00  0.00    +0.012 C 
ATOM      2  C   LIG A   1      -8.530  -0.232 125.229  0.00  0.00    -0.019 C 
ATOM      3  C   LIG A   1      -8.943  -1.709 125.563  0.00  0.00    +0.006 C 
ATOM      4  C   LIG A   1      -8.432  -2.135 126.960  0.00  0.00    -0.003 C 
ATOM      5  C   LIG A   1      -8.922  -3.520 127.379  0.00  0.00    +0.004 C 
ATOM      6  C   LIG A   1      -8.557  -3.757 128.834  0.00  0.00    +0.004 C 
ATOM      7  C   LIG A   1      -7.053  -3.592 129.157  0.00  0.00    +0.002 C 
ATOM      8  C   LIG A   1      -6.947  -3.623 130.704  0.00  0.00    +0.055 C 
ATOM      9  C   LIG A   1      -5.758  -2.872 131.305  0.00  0.00    +0.248 C 
ATOM     10  C   LIG A   1      -5.437  -1.560 130.513  0.00  0.00    +0.253 C 
ATOM     11  C   LIG A   1      -6.512  -1.167 129.487  0.00  0.00    +0.092 C 
ATOM     12  C   LIG A   1      -6.378  -2.332 128.507  0.00  0.00    +0.006 C 
ATOM     13  C   LIG A   1      -6.890  -2.099 127.059  0.00  0.00    +0.001 C 
ATOM     14  C   LIG A   1      -6.312  -0.856 126.357  0.00  0.00    +0.005 C 
ATOM     15  C   LIG A   1      -7.358   0.221 126.135  0.00  0.00    +0.008 C 
ATOM     16  C   LIG A   1      -4.834  -2.506 128.485  0.00  0.00    +0.172 C 
ATOM     17  O   LIG A   1      -4.314  -1.842 129.642  0.00  0.00    -0.336 OA
ATOM     18  C   LIG A   1      -8.436  -2.609 124.430  0.00  0.00    +0.079 C 
ATOM     19  C   LIG A   1      -7.984  -1.662 123.365  0.00  0.00    +0.137 C 
ATOM     20  C   LIG A   1      -8.258  -0.211 123.694  0.00  0.00    +0.061 C 
ATOM     21  O   LIG A   1      -7.486  -2.048 122.312  0.00  0.00    -0.297 OA
ENDROOT
BRANCH  20  22
ATOM     22  C   LIG A   1      -7.143   0.687 123.140  0.00  0.00    +0.008 C 
ATOM     23  C   LIG A   1      -7.511   2.151 122.947  0.00  0.00    +0.004 C 
ENDBRANCH  20  22
BRANCH  10  24
ATOM     24  O   LIG A   1      -5.060  -0.483 131.379  0.00  0.00    -0.429 OA
BRANCH  24  25
ATOM     25  C   LIG A   1      -5.856  -0.267 132.459  0.00  0.00    +0.306 C 
ATOM     26  C   LIG A   1      -5.089  -0.538 133.718  0.00  0.00    +0.136 C 
ATOM     27  O   LIG A   1      -7.024   0.071 132.425  0.00  0.00    -0.251 OA
ENDBRANCH  24  25
ENDBRANCH  10  24
BRANCH   9  28
ATOM     28  O   LIG A   1      -4.617  -3.767 131.309  0.00  0.00    -0.455 OA
BRANCH  28  29
ATOM     29  C   LIG A   1      -3.936  -3.876 132.478  0.00  0.00    +0.304 C 
ATOM     30  C   LIG A   1      -4.628  -4.841 133.384  0.00  0.00    +0.136 C 
ATOM     31  O   LIG A   1      -2.944  -3.226 132.788  0.00  0.00    -0.251 OA
ENDBRANCH  28  29
ENDBRANCH   9  28
TORSDOF 5
ENDMDL
MODEL 3
REMARK VINA RESULT:      -7.9      4.460      5.815
REMARK  Name = NuBBE_992
REMARK  9 active torsions:
REMARK  status: ('A' for Active; 'I' for Inactive)
REMARK    1  A    between atoms: C_1  and  C_2
REMARK    2  A    between atoms: C_9  and  O_23
REMARK    3  A    between atoms: C_11  and  O_19
REMARK    4  A    between atoms: O_19  and  C_20
REMARK    5  A    between atoms: C_20  and  C_21
REMARK    6  A    between atoms: O_23  and  C_24
REMARK    7  A    between atoms: C_24  and  C_25
REMARK    8  A    between atoms: C_29  and  C_31
REMARK    9  A    between atoms: C_31  and  C_32
REMARK                            x       y       z     vdW  Elec       q    Type
REMARK                         _______ _______ _______ _____ _____    ______ ____
ROOT
ATOM      1  C   LIG A   1      -1.617   3.145 126.745  0.00  0.00    +0.012 C 
ATOM      2  C   LIG A   1      -3.012   3.502 127.310  0.00  0.00    -0.019 C 
ATOM      3  C   LIG A   1      -3.788   2.175 127.626  0.00  0.00    +0.006 C 
ATOM      4  C   LIG A   1      -4.771   1.813 126.487  0.00  0.00    -0.003 C 
ATOM      5  C   LIG A   1      -5.454   0.462 126.693  0.00  0.00    +0.004 C 
ATOM      6  C   LIG A   1      -6.221   0.095 125.435  0.00  0.00    +0.004 C 
ATOM      7  C   LIG A   1      -7.248   1.157 124.974  0.00  0.00    +0.002 C 
ATOM      8  C   LIG A   1      -7.718   0.707 123.567  0.00  0.00    +0.055 C 
ATOM      9  C   LIG A   1      -8.199   1.822 122.637  0.00  0.00    +0.248 C 
ATOM     10  C   LIG A   1      -7.357   3.130 122.812  0.00  0.00    +0.253 C 
ATOM     11  C   LIG A   1      -6.089   2.951 123.663  0.00  0.00    +0.092 C 
ATOM     12  C   LIG A   1      -6.723   2.637 125.017  0.00  0.00    +0.006 C 
ATOM     13  C   LIG A   1      -5.856   2.894 126.279  0.00  0.00    +0.001 C 
ATOM     14  C   LIG A   1      -5.262   4.311 126.383  0.00  0.00    +0.005 C 
ATOM     15  C   LIG A   1      -3.754   4.319 126.222  0.00  0.00    +0.008 C 
ATOM     16  C   LIG A   1      -7.920   3.627 125.004  0.00  0.00    +0.172 C 
ATOM     17  O   LIG A   1      -8.124   4.033 123.646  0.00  0.00    -0.336 OA
ATOM     18  C   LIG A   1      -4.472   2.340 128.988  0.00  0.00    +0.079 C 
ATOM     19  C   LIG A   1      -3.898   3.603 129.550  0.00  0.00    +0.137 C 
ATOM     20  C   LIG A   1      -2.816   4.210 128.685  0.00  0.00    +0.061 C 
ATOM     21  O   LIG A   1      -4.251   4.057 130.634  0.00  0.00    -0.297 OA
ENDROOT
BRANCH  20  22
ATOM     22  C   LIG A   1      -2.867   5.742 128.757  0.00  0.00    +0.008 C 
ATOM     23  C   LIG A   1      -1.881   6.389 129.720  0.00  0.00    +0.004 C 
ENDBRANCH  20  22
BRANCH  10  24
ATOM     24  O   LIG A   1      -7.112   3.788 121.563  0.00  0.00    -0.429 OA
BRANCH  24  25
ATOM     25  C   LIG A   1      -5.919   3.532 120.966  0.00  0.00    +0.306 C 
ATOM     26  C   LIG A   1      -5.245   4.820 120.602  0.00  0.00    +0.136 C 
ATOM     27  O   LIG A   1      -5.463   2.428 120.732  0.00  0.00    -0.251 OA
ENDBRANCH  24  25
ENDBRANCH  10  24
BRANCH   9  28
ATOM     28  O   LIG A   1      -9.601   2.067 122.917  0.00  0.00    -0.455 OA
BRANCH  28  29
ATOM     29  C   LIG A   1     -10.376   0.974 123.131  0.00  0.00    +0.304 C 
ATOM     30  C   LIG A   1     -10.875   0.971 124.540  0.00  0.00    +0.136 C 
ATOM     31  O   LIG A   1     -10.581   0.075 122.323  0.00  0.00    -0.251 OA
ENDBRANCH  28  29
ENDBRANCH   9  28
TORSDOF 5
ENDMDL
MODEL 4
REMARK VINA RESULT:      -7.8      3.949      7.581
REMARK  Name = NuBBE_992
REMARK  9 active torsions:
REMARK  status: ('A' for Active; 'I' for Inactive)
REMARK    1  A    between atoms: C_1  and  C_2
REMARK    2  A    between atoms: C_9  and  O_23
REMARK    3  A    between atoms: C_11  and  O_19
REMARK    4  A    between atoms: O_19  and  C_20
REMARK    5  A    between atoms: C_20  and  C_21
REMARK    6  A    between atoms: O_23  and  C_24
REMARK    7  A    between atoms: C_24  and  C_25
REMARK    8  A    between atoms: C_29  and  C_31
REMARK    9  A    between atoms: C_31  and  C_32
REMARK                            x       y       z     vdW  Elec       q    Type
REMARK                         _______ _______ _______ _____ _____    ______ ____
ROOT
ATOM      1  C   LIG A   1      -8.756  -3.422 127.002  0.00  0.00    +0.012 C 
ATOM      2  C   LIG A   1      -7.972  -2.350 126.208  0.00  0.00    -0.019 C 
ATOM      3  C   LIG A   1      -6.581  -2.122 126.897  0.00  0.00    +0.006 C 
ATOM      4  C   LIG A   1      -6.601  -0.873 127.810  0.00  0.00    -0.003 C 
ATOM      5  C   LIG A   1      -5.307  -0.687 128.600  0.00  0.00    +0.004 C 
ATOM      6  C   LIG A   1      -5.502   0.423 129.618  0.00  0.00    +0.004 C 
ATOM      7  C   LIG A   1      -5.971   1.771 129.021  0.00  0.00    +0.002 C 
ATOM      8  C   LIG A   1      -6.345   2.662 130.234  0.00  0.00    +0.055 C 
ATOM      9  C   LIG A   1      -7.396   3.741 129.968  0.00  0.00    +0.248 C 
ATOM     10  C   LIG A   1      -8.501   3.246 128.975  0.00  0.00    +0.253 C 
ATOM     11  C   LIG A   1      -8.454   1.737 128.687  0.00  0.00    +0.092 C 
ATOM     12  C   LIG A   1      -7.117   1.650 127.953  0.00  0.00    +0.006 C 
ATOM     13  C   LIG A   1      -6.898   0.426 127.024  0.00  0.00    +0.001 C 
ATOM     14  C   LIG A   1      -7.999   0.204 125.970  0.00  0.00    +0.005 C 
ATOM     15  C   LIG A   1      -8.812  -1.048 126.239  0.00  0.00    +0.008 C 
ATOM     16  C   LIG A   1      -7.182   2.944 127.095  0.00  0.00    +0.172 C 
ATOM     17  O   LIG A   1      -8.185   3.787 127.669  0.00  0.00    -0.336 OA
ATOM     18  C   LIG A   1      -5.514  -2.053 125.798  0.00  0.00    +0.079 C 
ATOM     19  C   LIG A   1      -6.223  -2.485 124.554  0.00  0.00    +0.137 C 
ATOM     20  C   LIG A   1      -7.650  -2.925 124.795  0.00  0.00    +0.061 C 
ATOM     21  O   LIG A   1      -5.666  -2.520 123.461  0.00  0.00    -0.297 OA
ENDROOT
BRANCH  20  22
ATOM     22  C   LIG A   1      -8.540  -2.541 123.605  0.00  0.00    +0.008 C 
ATOM     23  C   LIG A   1      -9.723  -3.463 123.344  0.00  0.00    +0.004 C 
ENDBRANCH  20  22
BRANCH  10  24
ATOM     24  O   LIG A   1      -9.805   3.713 129.340  0.00  0.00    -0.429 OA
BRANCH  24  25
ATOM     25  C   LIG A   1     -10.106   3.698 130.665  0.00  0.00    +0.306 C 
ATOM     26  C   LIG A   1     -10.359   5.095 131.145  0.00  0.00    +0.136 C 
ATOM     27  O   LIG A   1     -10.142   2.710 131.375  0.00  0.00    -0.251 OA
ENDBRANCH  24  25
ENDBRANCH  10  24
BRANCH   9  28
ATOM     28  O   LIG A   1      -6.716   4.911 129.446  0.00  0.00    -0.455 OA
BRANCH  28  29
ATOM     29  C   LIG A   1      -6.006   5.647 130.337  0.00  0.00    +0.304 C 
ATOM     30  C   LIG A   1      -6.935   6.397 131.235  0.00  0.00    +0.136 C 
ATOM     31  O   LIG A   1      -4.785   5.752 130.362  0.00  0.00    -0.251 OA
ENDBRANCH  28  29
ENDBRANCH   9  28
TORSDOF 5
ENDMDL
MODEL 5
REMARK VINA RESULT:      -7.8      2.010      3.457
REMARK  Name = NuBBE_992
REMARK  9 active torsions:
REMARK  status: ('A' for Active; 'I' for Inactive)
REMARK    1  A    between atoms: C_1  and  C_2
REMARK    2  A    between atoms: C_9  and  O_23
REMARK    3  A    between atoms: C_11  and  O_19
REMARK    4  A    between atoms: O_19  and  C_20
REMARK    5  A    between atoms: C_20  and  C_21
REMARK    6  A    between atoms: O_23  and  C_24
REMARK    7  A    between atoms: C_24  and  C_25
REMARK    8  A    between atoms: C_29  and  C_31
REMARK    9  A    between atoms: C_31  and  C_32
REMARK                            x       y       z     vdW  Elec       q    Type
REMARK                         _______ _______ _______ _____ _____    ______ ____
ROOT
ATOM      1  C   LIG A   1      -7.605  -2.343 131.245  0.00  0.00    +0.012 C 
ATOM      2  C   LIG A   1      -6.400  -2.125 130.299  0.00  0.00    -0.019 C 
ATOM      3  C   LIG A   1      -6.054  -0.596 130.258  0.00  0.00    +0.006 C 
ATOM      4  C   LIG A   1      -6.662   0.087 129.009  0.00  0.00    -0.003 C 
ATOM      5  C   LIG A   1      -6.459   1.601 128.996  0.00  0.00    +0.004 C 
ATOM      6  C   LIG A   1      -7.269   2.201 127.861  0.00  0.00    +0.004 C 
ATOM      7  C   LIG A   1      -6.970   1.601 126.466  0.00  0.00    +0.002 C 
ATOM      8  C   LIG A   1      -8.063   2.163 125.521  0.00  0.00    +0.055 C 
ATOM      9  C   LIG A   1      -8.406   1.294 124.310  0.00  0.00    +0.248 C 
ATOM     10  C   LIG A   1      -8.363  -0.232 124.658  0.00  0.00    +0.253 C 
ATOM     11  C   LIG A   1      -8.250  -0.531 126.162  0.00  0.00    +0.092 C 
ATOM     12  C   LIG A   1      -6.858   0.035 126.438  0.00  0.00    +0.006 C 
ATOM     13  C   LIG A   1      -6.112  -0.503 127.689  0.00  0.00    +0.001 C 
ATOM     14  C   LIG A   1      -5.994  -2.036 127.767  0.00  0.00    +0.005 C 
ATOM     15  C   LIG A   1      -6.824  -2.623 128.893  0.00  0.00    +0.008 C 
ATOM     16  C   LIG A   1      -6.108  -0.422 125.156  0.00  0.00    +0.172 C 
ATOM     17  O   LIG A   1      -7.099  -0.752 124.177  0.00  0.00    -0.336 OA
ATOM     18  C   LIG A   1      -4.530  -0.453 130.346  0.00  0.00    +0.079 C 
ATOM     19  C   LIG A   1      -4.040  -1.824 130.688  0.00  0.00    +0.137 C 
ATOM     20  C   LIG A   1      -5.154  -2.820 130.925  0.00  0.00    +0.061 C 
ATOM     21  O   LIG A   1      -2.847  -2.082 130.809  0.00  0.00    -0.297 OA
ENDROOT
BRANCH  20  22
ATOM     22  C   LIG A   1      -4.742  -4.215 130.433  0.00  0.00    +0.008 C 
ATOM     23  C   LIG A   1      -5.491  -5.382 131.061  0.00  0.00    +0.004 C 
ENDBRANCH  20  22
BRANCH  10  24
ATOM     24  O   LIG A   1      -9.412  -0.965 124.013  0.00  0.00    -0.429 OA
BRANCH  24  25
ATOM     25  C   LIG A   1      -9.031  -2.011 123.235  0.00  0.00    +0.306 C 
ATOM     26  C   LIG A   1      -9.377  -3.302 123.912  0.00  0.00    +0.136 C 
ATOM     27  O   LIG A   1      -8.468  -1.929 122.159  0.00  0.00    -0.251 OA
ENDBRANCH  24  25
ENDBRANCH  10  24
BRANCH   9  28
ATOM     28  O   LIG A   1      -7.469   1.610 123.250  0.00  0.00    -0.455 OA
BRANCH  28  29
ATOM     29  C   LIG A   1      -7.676   2.775 122.585  0.00  0.00    +0.304 C 
ATOM     30  C   LIG A   1      -6.372   3.459 122.337  0.00  0.00    +0.136 C 
ATOM     31  O   LIG A   1      -8.771   3.245 122.295  0.00  0.00    -0.251 OA
ENDBRANCH  28  29
ENDBRANCH   9  28
TORSDOF 5
ENDMDL
MODEL 6
REMARK VINA RESULT:      -7.8      6.131      9.466
REMARK  Name = NuBBE_992
REMARK  9 active torsions:
REMARK  status: ('A' for Active; 'I' for Inactive)
REMARK    1  A    between atoms: C_1  and  C_2
REMARK    2  A    between atoms: C_9  and  O_23
REMARK    3  A    between atoms: C_11  and  O_19
REMARK    4  A    between atoms: O_19  and  C_20
REMARK    5  A    between atoms: C_20  and  C_21
REMARK    6  A    between atoms: O_23  and  C_24
REMARK    7  A    between atoms: C_24  and  C_25
REMARK    8  A    between atoms: C_29  and  C_31
REMARK    9  A    between atoms: C_31  and  C_32
REMARK                            x       y       z     vdW  Elec       q    Type
REMARK                         _______ _______ _______ _____ _____    ______ ____
ROOT
ATOM      1  C   LIG A   1      -9.040   7.519 129.607  0.00  0.00    +0.012 C 
ATOM      2  C   LIG A   1     -10.062   6.545 130.237  0.00  0.00    -0.019 C 
ATOM      3  C   LIG A   1      -9.835   6.501 131.789  0.00  0.00    +0.006 C 
ATOM      4  C   LIG A   1      -8.993   5.270 132.201  0.00  0.00    -0.003 C 
ATOM      5  C   LIG A   1      -8.638   5.257 133.687  0.00  0.00    +0.004 C 
ATOM      6  C   LIG A   1      -7.639   4.144 133.950  0.00  0.00    +0.004 C 
ATOM      7  C   LIG A   1      -8.101   2.741 133.490  0.00  0.00    +0.002 C 
ATOM      8  C   LIG A   1      -6.857   1.824 133.616  0.00  0.00    +0.055 C 
ATOM      9  C   LIG A   1      -6.820   0.619 132.675  0.00  0.00    +0.248 C 
ATOM     10  C   LIG A   1      -7.416   0.960 131.268  0.00  0.00    +0.253 C 
ATOM     11  C   LIG A   1      -7.665   2.460 131.038  0.00  0.00    +0.092 C 
ATOM     12  C   LIG A   1      -8.767   2.704 132.068  0.00  0.00    +0.006 C 
ATOM     13  C   LIG A   1      -9.686   3.935 131.841  0.00  0.00    +0.001 C 
ATOM     14  C   LIG A   1     -10.349   4.005 130.453  0.00  0.00    +0.005 C 
ATOM     15  C   LIG A   1      -9.813   5.149 129.613  0.00  0.00    +0.008 C 
ATOM     16  C   LIG A   1      -9.600   1.403 131.904  0.00  0.00    +0.172 C 
ATOM     17  O   LIG A   1      -8.771   0.447 131.234  0.00  0.00    -0.336 OA
ATOM     18  C   LIG A   1     -11.208   6.553 132.470  0.00  0.00    +0.079 C 
ATOM     19  C   LIG A   1     -12.166   6.878 131.368  0.00  0.00    +0.137 C 
ATOM     20  C   LIG A   1     -11.490   7.139 130.040  0.00  0.00    +0.061 C 
ATOM     21  O   LIG A   1     -13.375   6.969 131.557  0.00  0.00    -0.297 OA
ENDROOT
BRANCH  20  22
ATOM     22  C   LIG A   1     -12.363   6.632 128.884  0.00  0.00    +0.008 C 
ATOM     23  C   LIG A   1     -13.055   7.709 128.060  0.00  0.00    +0.004 C 
ENDBRANCH  20  22
BRANCH  10  24
ATOM     24  O   LIG A   1      -6.685   0.338 130.205  0.00  0.00    -0.429 OA
BRANCH  24  25
ATOM     25  C   LIG A   1      -7.420  -0.309 129.262  0.00  0.00    +0.306 C 
ATOM     26  C   LIG A   1      -7.453  -1.777 129.563  0.00  0.00    +0.136 C 
ATOM     27  O   LIG A   1      -7.953   0.207 128.298  0.00  0.00    -0.251 OA
ENDBRANCH  24  25
ENDBRANCH  10  24
BRANCH   9  28
ATOM     28  O   LIG A   1      -7.555  -0.463 133.301  0.00  0.00    -0.455 OA
BRANCH  28  29
ATOM     29  C   LIG A   1      -6.938  -1.671 133.342  0.00  0.00    +0.304 C 
ATOM     30  C   LIG A   1      -7.953  -2.756 133.500  0.00  0.00    +0.136 C 
ATOM     31  O   LIG A   1      -5.726  -1.853 133.332  0.00  0.00    -0.251 OA
ENDBRANCH  28  29
ENDBRANCH   9  28
TORSDOF 5
ENDMDL
MODEL 7
REMARK VINA RESULT:      -7.7      4.114      8.427
REMARK  Name = NuBBE_992
REMARK  9 active torsions:
REMARK  status: ('A' for Active; 'I' for Inactive)
REMARK    1  A    between atoms: C_1  and  C_2
REMARK    2  A    between atoms: C_9  and  O_23
REMARK    3  A    between atoms: C_11  and  O_19
REMARK    4  A    between atoms: O_19  and  C_20
REMARK    5  A    between atoms: C_20  and  C_21
REMARK    6  A    between atoms: O_23  and  C_24
REMARK    7  A    between atoms: C_24  and  C_25
REMARK    8  A    between atoms: C_29  and  C_31
REMARK    9  A    between atoms: C_31  and  C_32
REMARK                            x       y       z     vdW  Elec       q    Type
REMARK                         _______ _______ _______ _____ _____    ______ ____
ROOT
ATOM      1  C   LIG A   1      -6.390  -1.147 122.844  0.00  0.00    +0.012 C 
ATOM      2  C   LIG A   1      -7.456  -0.306 123.585  0.00  0.00    -0.019 C 
ATOM      3  C   LIG A   1      -7.397   1.171 123.058  0.00  0.00    +0.006 C 
ATOM      4  C   LIG A   1      -6.581   2.077 124.011  0.00  0.00    -0.003 C 
ATOM      5  C   LIG A   1      -6.388   3.493 123.472  0.00  0.00    +0.004 C 
ATOM      6  C   LIG A   1      -5.403   4.233 124.359  0.00  0.00    +0.004 C 
ATOM      7  C   LIG A   1      -5.786   4.271 125.858  0.00  0.00    +0.002 C 
ATOM      8  C   LIG A   1      -4.545   4.836 126.597  0.00  0.00    +0.055 C 
ATOM      9  C   LIG A   1      -4.384   4.402 128.055  0.00  0.00    +0.248 C 
ATOM     10  C   LIG A   1      -4.832   2.917 128.273  0.00  0.00    +0.253 C 
ATOM     11  C   LIG A   1      -5.083   2.139 126.971  0.00  0.00    +0.092 C 
ATOM     12  C   LIG A   1      -6.294   2.902 126.438  0.00  0.00    +0.006 C 
ATOM     13  C   LIG A   1      -7.206   2.161 125.423  0.00  0.00    +0.001 C 
ATOM     14  C   LIG A   1      -7.716   0.786 125.892  0.00  0.00    +0.005 C 
ATOM     15  C   LIG A   1      -7.114  -0.357 125.095  0.00  0.00    +0.008 C 
ATOM     16  C   LIG A   1      -7.079   3.142 127.757  0.00  0.00    +0.172 C 
ATOM     17  O   LIG A   1      -6.165   2.944 128.840  0.00  0.00    -0.336 OA
ATOM     18  C   LIG A   1      -8.836   1.655 122.844  0.00  0.00    +0.079 C 
ATOM     19  C   LIG A   1      -9.675   0.426 122.989  0.00  0.00    +0.137 C 
ATOM     20  C   LIG A   1      -8.865  -0.837 123.182  0.00  0.00    +0.061 C 
ATOM     21  O   LIG A   1     -10.899   0.455 122.905  0.00  0.00    -0.297 OA
ENDROOT
BRANCH  20  22
ATOM     22  C   LIG A   1      -9.599  -1.809 124.117  0.00  0.00    +0.008 C 
ATOM     23  C   LIG A   1      -9.386  -3.288 123.828  0.00  0.00    +0.004 C 
ENDBRANCH  20  22
BRANCH  10  24
ATOM     24  O   LIG A   1      -3.979   2.224 129.191  0.00  0.00    -0.429 OA
BRANCH  24  25
ATOM     25  C   LIG A   1      -4.595   1.518 130.176  0.00  0.00    +0.306 C 
ATOM     26  C   LIG A   1      -4.456   2.238 131.482  0.00  0.00    +0.136 C 
ATOM     27  O   LIG A   1      -5.156   0.447 130.037  0.00  0.00    -0.251 OA
ENDBRANCH  24  25
ENDBRANCH  10  24
BRANCH   9  28
ATOM     28  O   LIG A   1      -5.162   5.304 128.880  0.00  0.00    -0.455 OA
BRANCH  28  29
ATOM     29  C   LIG A   1      -4.466   6.222 129.598  0.00  0.00    +0.304 C 
ATOM     30  C   LIG A   1      -3.130   5.668 129.973  0.00  0.00    +0.136 C 
ATOM     31  O   LIG A   1      -4.888   7.315 129.958  0.00  0.00    -0.251 OA
ENDBRANCH  28  29
ENDBRANCH   9  28
TORSDOF 5
ENDMDL
MODEL 8
REMARK VINA RESULT:      -7.6      1.889      3.047
REMARK  Name = NuBBE_992
REMARK  9 active torsions:
REMARK  status: ('A' for Active; 'I' for Inactive)
REMARK    1  A    between atoms: C_1  and  C_2
REMARK    2  A    between atoms: C_9  and  O_23
REMARK    3  A    between atoms: C_11  and  O_19
REMARK    4  A    between atoms: O_19  and  C_20
REMARK    5  A    between atoms: C_20  and  C_21
REMARK    6  A    between atoms: O_23  and  C_24
REMARK    7  A    between atoms: C_24  and  C_25
REMARK    8  A    between atoms: C_29  and  C_31
REMARK    9  A    between atoms: C_31  and  C_32
REMARK                            x       y       z     vdW  Elec       q    Type
REMARK                         _______ _______ _______ _____ _____    ______ ____
ROOT
ATOM      1  C   LIG A   1      -7.584  -3.135 132.820  0.00  0.00    +0.012 C 
ATOM      2  C   LIG A   1      -6.417  -2.794 131.864  0.00  0.00    -0.019 C 
ATOM      3  C   LIG A   1      -6.327  -1.236 131.706  0.00  0.00    +0.006 C 
ATOM      4  C   LIG A   1      -7.018  -0.761 130.405  0.00  0.00    -0.003 C 
ATOM      5  C   LIG A   1      -7.068   0.760 130.274  0.00  0.00    +0.004 C 
ATOM      6  C   LIG A   1      -7.947   1.130 129.093  0.00  0.00    +0.004 C 
ATOM      7  C   LIG A   1      -7.529   0.483 127.751  0.00  0.00    +0.002 C 
ATOM      8  C   LIG A   1      -8.684   0.782 126.760  0.00  0.00    +0.055 C 
ATOM      9  C   LIG A   1      -8.859  -0.222 125.619  0.00  0.00    +0.248 C 
ATOM     10  C   LIG A   1      -8.571  -1.689 126.086  0.00  0.00    +0.253 C 
ATOM     11  C   LIG A   1      -8.435  -1.849 127.609  0.00  0.00    +0.092 C 
ATOM     12  C   LIG A   1      -7.160  -1.041 127.845  0.00  0.00    +0.006 C 
ATOM     13  C   LIG A   1      -6.357  -1.350 129.137  0.00  0.00    +0.001 C 
ATOM     14  C   LIG A   1      -5.989  -2.832 129.335  0.00  0.00    +0.005 C 
ATOM     15  C   LIG A   1      -6.729  -3.461 130.501  0.00  0.00    +0.008 C 
ATOM     16  C   LIG A   1      -6.324  -1.464 126.605  0.00  0.00    +0.172 C 
ATOM     17  O   LIG A   1      -7.230  -2.027 125.652  0.00  0.00    -0.336 OA
ATOM     18  C   LIG A   1      -4.849  -0.836 131.788  0.00  0.00    +0.079 C 
ATOM     19  C   LIG A   1      -4.145  -2.077 132.238  0.00  0.00    +0.137 C 
ATOM     20  C   LIG A   1      -5.083  -3.223 132.548  0.00  0.00    +0.061 C 
ATOM     21  O   LIG A   1      -2.928  -2.124 132.383  0.00  0.00    -0.297 OA
ENDROOT
BRANCH  20  22
ATOM     22  C   LIG A   1      -4.439  -4.563 132.168  0.00  0.00    +0.008 C 
ATOM     23  C   LIG A   1      -4.208  -5.532 133.319  0.00  0.00    +0.004 C 
ENDBRANCH  20  22
BRANCH  10  24
ATOM     24  O   LIG A   1      -9.473  -2.632 125.496  0.00  0.00    -0.429 OA
BRANCH  24  25
ATOM     25  C   LIG A   1      -8.951  -3.469 124.561  0.00  0.00    +0.306 C 
ATOM     26  C   LIG A   1      -9.426  -3.069 123.198  0.00  0.00    +0.136 C 
ATOM     27  O   LIG A   1      -8.226  -4.420 124.785  0.00  0.00    -0.251 OA
ENDBRANCH  24  25
ENDBRANCH  10  24
BRANCH   9  28
ATOM     28  O   LIG A   1      -7.969   0.163 124.542  0.00  0.00    -0.455 OA
BRANCH  28  29
ATOM     29  C   LIG A   1      -8.427   1.115 123.689  0.00  0.00    +0.304 C 
ATOM     30  C   LIG A   1      -9.774   0.729 123.170  0.00  0.00    +0.136 C 
ATOM     31  O   LIG A   1      -7.806   2.108 123.329  0.00  0.00    -0.251 OA
ENDBRANCH  28  29
ENDBRANCH   9  28
TORSDOF 5
ENDMDL
MODEL 9
REMARK VINA RESULT:      -7.6      1.686      2.242
REMARK  Name = NuBBE_992
REMARK  9 active torsions:
REMARK  status: ('A' for Active; 'I' for Inactive)
REMARK    1  A    between atoms: C_1  and  C_2
REMARK    2  A    between atoms: C_9  and  O_23
REMARK    3  A    between atoms: C_11  and  O_19
REMARK    4  A    between atoms: O_19  and  C_20
REMARK    5  A    between atoms: C_20  and  C_21
REMARK    6  A    between atoms: O_23  and  C_24
REMARK    7  A    between atoms: C_24  and  C_25
REMARK    8  A    between atoms: C_29  and  C_31
REMARK    9  A    between atoms: C_31  and  C_32
REMARK                            x       y       z     vdW  Elec       q    Type
REMARK                         _______ _______ _______ _____ _____    ______ ____
ROOT
ATOM      1  C   LIG A   1      -3.909  -2.435 130.534  0.00  0.00    +0.012 C 
ATOM      2  C   LIG A   1      -5.226  -1.653 130.747  0.00  0.00    -0.019 C 
ATOM      3  C   LIG A   1      -6.436  -2.585 130.390  0.00  0.00    +0.006 C 
ATOM      4  C   LIG A   1      -6.958  -2.309 128.959  0.00  0.00    -0.003 C 
ATOM      5  C   LIG A   1      -8.052  -3.282 128.522  0.00  0.00    +0.004 C 
ATOM      6  C   LIG A   1      -8.341  -3.074 127.046  0.00  0.00    +0.004 C 
ATOM      7  C   LIG A   1      -8.719  -1.624 126.660  0.00  0.00    +0.002 C 
ATOM      8  C   LIG A   1      -8.719  -1.586 125.110  0.00  0.00    +0.055 C 
ATOM      9  C   LIG A   1      -8.425  -0.224 124.478  0.00  0.00    +0.248 C 
ATOM     10  C   LIG A   1      -7.355   0.577 125.293  0.00  0.00    +0.253 C 
ATOM     11  C   LIG A   1      -6.643  -0.249 126.377  0.00  0.00    +0.092 C 
ATOM     12  C   LIG A   1      -7.819  -0.517 127.316  0.00  0.00    +0.006 C 
ATOM     13  C   LIG A   1      -7.479  -0.863 128.791  0.00  0.00    +0.001 C 
ATOM     14  C   LIG A   1      -6.562   0.150 129.502  0.00  0.00    +0.005 C 
ATOM     15  C   LIG A   1      -5.190  -0.425 129.802  0.00  0.00    +0.008 C 
ATOM     16  C   LIG A   1      -8.541   0.858 127.263  0.00  0.00    +0.172 C 
ATOM     17  O   LIG A   1      -8.062   1.547 126.103  0.00  0.00    -0.336 OA
ATOM     18  C   LIG A   1      -7.508  -2.405 131.471  0.00  0.00    +0.079 C 
ATOM     19  C   LIG A   1      -6.835  -1.605 132.542  0.00  0.00    +0.137 C 
ATOM     20  C   LIG A   1      -5.371  -1.343 132.268  0.00  0.00    +0.061 C 
ATOM     21  O   LIG A   1      -7.421  -1.250 133.560  0.00  0.00    -0.297 OA
ENDROOT
BRANCH  20  22
ATOM     22  C   LIG A   1      -4.964   0.039 132.797  0.00  0.00    +0.008 C 
ATOM     23  C   LIG A   1      -3.486   0.211 133.119  0.00  0.00    +0.004 C 
ENDBRANCH  20  22
BRANCH  10  24
ATOM     24  O   LIG A   1      -6.451   1.292 124.442  0.00  0.00    -0.429 OA
BRANCH  24  25
ATOM     25  C   LIG A   1      -5.971   2.470 124.921  0.00  0.00    +0.306 C 
ATOM     26  C   LIG A   1      -6.419   3.598 124.043  0.00  0.00    +0.136 C 
ATOM     27  O   LIG A   1      -5.260   2.601 125.900  0.00  0.00    -0.251 OA
ENDBRANCH  24  25
ENDBRANCH  10  24
BRANCH   9  28
ATOM     28  O   LIG A   1      -9.672   0.512 124.396  0.00  0.00    -0.455 OA
BRANCH  28  29
ATOM     29  C   LIG A   1     -10.098   0.846 123.152  0.00  0.00    +0.304 C 
ATOM     30  C   LIG A   1      -9.370   2.058 122.672  0.00  0.00    +0.136 C 
ATOM     31  O   LIG A   1     -11.001   0.291 122.535  0.00  0.00    -0.251 OA
ENDBRANCH  28  29
ENDBRANCH   9  28
TORSDOF 5
ENDMDL
