MODEL 1
REMARK VINA RESULT:      -7.0      0.000      0.000
REMARK  Name = NuBBE_1190
REMARK  11 active torsions:
REMARK  status: ('A' for Active; 'I' for Inactive)
REMARK    1  A    between atoms: C_1  and  O_2
REMARK    2  A    between atoms: C_1  and  C_15
REMARK    3  A    between atoms: O_2  and  C_3
REMARK    4  A    between atoms: C_3  and  C_5
REMARK    5  A    between atoms: C_6  and  C_7
REMARK    6  A    between atoms: C_9  and  O_10
REMARK    7  A    between atoms: C_11  and  O_14
REMARK    8  A    between atoms: C_17  and  O_19
REMARK    9  A    between atoms: C_20  and  O_22
REMARK   10  A    between atoms: C_23  and  O_29
REMARK   11  A    between atoms: C_25  and  O_28
REMARK                            x       y       z     vdW  Elec       q    Type
REMARK                         _______ _______ _______ _____ _____    ______ ____
ROOT
ATOM      1  C   LIG A   1      -9.430   0.478 125.790  0.00  0.00    +0.267 C 
ENDROOT
BRANCH   1   2
ATOM      2  C   LIG A   1      -8.278  -0.357 125.203  0.00  0.00    +0.190 C 
ATOM      3  C   LIG A   1      -8.650  -1.833 124.983  0.00  0.00    +0.178 C 
ATOM      4  C   LIG A   1      -7.442  -2.620 124.484  0.00  0.00    +0.179 C 
ATOM      5  C   LIG A   1      -6.272  -2.419 125.439  0.00  0.00    +0.201 C 
ATOM      6  C   LIG A   1      -5.996  -0.912 125.595  0.00  0.00    +0.279 C 
ATOM      7  O   LIG A   1      -7.157  -0.257 126.096  0.00  0.00    -0.340 OA
BRANCH   3   8
ATOM      8  O   LIG A   1      -9.708  -1.984 124.035  0.00  0.00    -0.386 OA
ATOM      9  H   LIG A   1     -10.248  -1.162 124.088  0.00  0.00    +0.210 HD
ENDBRANCH   3   8
BRANCH   4  10
ATOM     10  O   LIG A   1      -7.764  -4.020 124.427  0.00  0.00    -0.386 OA
ATOM     11  H   LIG A   1      -8.495  -4.085 123.777  0.00  0.00    +0.210 HD
ENDBRANCH   4  10
BRANCH   6  12
ATOM     12  O   LIG A   1      -4.925  -0.713 126.511  0.00  0.00    -0.365 OA
ATOM     13  H   LIG A   1      -4.964  -1.466 127.129  0.00  0.00    +0.213 HD
ENDBRANCH   6  12
BRANCH   5  14
ATOM     14  O   LIG A   1      -5.112  -3.108 124.954  0.00  0.00    -0.384 OA
ATOM     15  H   LIG A   1      -4.777  -3.603 125.731  0.00  0.00    +0.210 HD
ENDBRANCH   5  14
ENDBRANCH   1   2
BRANCH   1  16
ATOM     16  O   LIG A   1      -9.654   1.677 125.026  0.00  0.00    -0.459 OA
BRANCH  16  17
ATOM     17  C   LIG A   1     -10.021   1.517 123.738  0.00  0.00    +0.332 C 
ATOM     18  O   LIG A   1     -10.932   0.796 123.335  0.00  0.00    -0.246 OA
BRANCH  17  19
ATOM     19  C   LIG A   1      -9.233   2.363 122.834  0.00  0.00    +0.092 C 
ATOM     20  C   LIG A   1      -7.895   2.463 122.889  0.00  0.00    +0.015 C 
BRANCH  20  21
ATOM     21  C   LIG A   1      -7.110   3.241 121.922  0.00  0.00    -0.021 A 
ATOM     22  C   LIG A   1      -7.683   3.587 120.690  0.00  0.00    +0.057 A 
ATOM     23  C   LIG A   1      -6.960   4.371 119.796  0.00  0.00    +0.159 A 
ATOM     24  C   LIG A   1      -5.683   4.820 120.122  0.00  0.00    +0.158 A 
ATOM     25  C   LIG A   1      -5.110   4.504 121.341  0.00  0.00    +0.050 A 
ATOM     26  C   LIG A   1      -5.826   3.719 122.243  0.00  0.00    +0.012 A 
BRANCH  23  27
ATOM     27  O   LIG A   1      -7.465   4.731 118.577  0.00  0.00    -0.503 OA
ATOM     28  H   LIG A   1      -6.730   4.763 117.939  0.00  0.00    +0.292 HD
ENDBRANCH  23  27
BRANCH  24  29
ATOM     29  O   LIG A   1      -4.982   5.589 119.240  0.00  0.00    -0.503 OA
ATOM     30  H   LIG A   1      -4.199   5.886 119.744  0.00  0.00    +0.292 HD
ENDBRANCH  24  29
ENDBRANCH  20  21
ENDBRANCH  17  19
ENDBRANCH  16  17
ENDBRANCH   1  16
TORSDOF 11
ENDMDL
MODEL 2
REMARK VINA RESULT:      -6.8      1.711      3.117
REMARK  Name = NuBBE_1190
REMARK  11 active torsions:
REMARK  status: ('A' for Active; 'I' for Inactive)
REMARK    1  A    between atoms: C_1  and  O_2
REMARK    2  A    between atoms: C_1  and  C_15
REMARK    3  A    between atoms: O_2  and  C_3
REMARK    4  A    between atoms: C_3  and  C_5
REMARK    5  A    between atoms: C_6  and  C_7
REMARK    6  A    between atoms: C_9  and  O_10
REMARK    7  A    between atoms: C_11  and  O_14
REMARK    8  A    between atoms: C_17  and  O_19
REMARK    9  A    between atoms: C_20  and  O_22
REMARK   10  A    between atoms: C_23  and  O_29
REMARK   11  A    between atoms: C_25  and  O_28
REMARK                            x       y       z     vdW  Elec       q    Type
REMARK                         _______ _______ _______ _____ _____    ______ ____
ROOT
ATOM      1  C   LIG A   1      -8.539   1.409 126.686  0.00  0.00    +0.267 C 
ENDROOT
BRANCH   1   2
ATOM      2  C   LIG A   1      -8.312   0.451 125.504  0.00  0.00    +0.190 C 
ATOM      3  C   LIG A   1      -9.430   0.515 124.449  0.00  0.00    +0.178 C 
ATOM      4  C   LIG A   1      -9.188  -0.518 123.352  0.00  0.00    +0.179 C 
ATOM      5  C   LIG A   1      -9.015  -1.896 123.977  0.00  0.00    +0.201 C 
ATOM      6  C   LIG A   1      -7.886  -1.842 125.022  0.00  0.00    +0.279 C 
ATOM      7  O   LIG A   1      -8.202  -0.883 126.027  0.00  0.00    -0.340 OA
BRANCH   3   8
ATOM      8  O   LIG A   1      -9.519   1.805 123.840  0.00  0.00    -0.386 OA
ATOM      9  H   LIG A   1      -9.006   2.418 124.414  0.00  0.00    +0.210 HD
ENDBRANCH   3   8
BRANCH   4  10
ATOM     10  O   LIG A   1     -10.314  -0.548 122.457  0.00  0.00    -0.386 OA
ATOM     11  H   LIG A   1     -10.441   0.384 122.178  0.00  0.00    +0.210 HD
ENDBRANCH   4  10
BRANCH   6  12
ATOM     12  O   LIG A   1      -7.739  -3.118 125.635  0.00  0.00    -0.365 OA
ATOM     13  H   LIG A   1      -7.963  -3.769 124.945  0.00  0.00    +0.213 HD
ENDBRANCH   6  12
BRANCH   5  14
ATOM     14  O   LIG A   1      -8.734  -2.869 122.963  0.00  0.00    -0.384 OA
ATOM     15  H   LIG A   1      -8.330  -3.620 123.447  0.00  0.00    +0.210 HD
ENDBRANCH   5  14
ENDBRANCH   1   2
BRANCH   1  16
ATOM     16  O   LIG A   1      -8.183   2.761 126.345  0.00  0.00    -0.459 OA
BRANCH  16  17
ATOM     17  C   LIG A   1      -6.866   3.036 126.247  0.00  0.00    +0.332 C 
ATOM     18  O   LIG A   1      -6.008   2.745 127.078  0.00  0.00    -0.246 OA
BRANCH  17  19
ATOM     19  C   LIG A   1      -6.536   3.691 124.976  0.00  0.00    +0.092 C 
ATOM     20  C   LIG A   1      -6.353   3.027 123.823  0.00  0.00    +0.015 C 
BRANCH  20  21
ATOM     21  C   LIG A   1      -6.113   3.700 122.541  0.00  0.00    -0.021 A 
ATOM     22  C   LIG A   1      -5.091   4.656 122.446  0.00  0.00    +0.057 A 
ATOM     23  C   LIG A   1      -4.827   5.255 121.218  0.00  0.00    +0.159 A 
ATOM     24  C   LIG A   1      -5.560   4.903 120.088  0.00  0.00    +0.158 A 
ATOM     25  C   LIG A   1      -6.560   3.949 120.159  0.00  0.00    +0.050 A 
ATOM     26  C   LIG A   1      -6.832   3.343 121.385  0.00  0.00    +0.012 A 
BRANCH  23  27
ATOM     27  O   LIG A   1      -3.849   6.199 121.068  0.00  0.00    -0.503 OA
ATOM     28  H   LIG A   1      -4.268   7.078 121.076  0.00  0.00    +0.292 HD
ENDBRANCH  23  27
BRANCH  24  29
ATOM     29  O   LIG A   1      -5.295   5.495 118.888  0.00  0.00    -0.503 OA
ATOM     30  H   LIG A   1      -5.867   6.287 118.874  0.00  0.00    +0.292 HD
ENDBRANCH  24  29
ENDBRANCH  20  21
ENDBRANCH  17  19
ENDBRANCH  16  17
ENDBRANCH   1  16
TORSDOF 11
ENDMDL
MODEL 3
REMARK VINA RESULT:      -6.7      6.404      8.705
REMARK  Name = NuBBE_1190
REMARK  11 active torsions:
REMARK  status: ('A' for Active; 'I' for Inactive)
REMARK    1  A    between atoms: C_1  and  O_2
REMARK    2  A    between atoms: C_1  and  C_15
REMARK    3  A    between atoms: O_2  and  C_3
REMARK    4  A    between atoms: C_3  and  C_5
REMARK    5  A    between atoms: C_6  and  C_7
REMARK    6  A    between atoms: C_9  and  O_10
REMARK    7  A    between atoms: C_11  and  O_14
REMARK    8  A    between atoms: C_17  and  O_19
REMARK    9  A    between atoms: C_20  and  O_22
REMARK   10  A    between atoms: C_23  and  O_29
REMARK   11  A    between atoms: C_25  and  O_28
REMARK                            x       y       z     vdW  Elec       q    Type
REMARK                         _______ _______ _______ _____ _____    ______ ____
ROOT
ATOM      1  C   LIG A   1      -7.999   2.016 129.110  0.00  0.00    +0.267 C 
ENDROOT
BRANCH   1   2
ATOM      2  C   LIG A   1      -7.365   2.578 127.825  0.00  0.00    +0.190 C 
ATOM      3  C   LIG A   1      -6.433   3.774 128.082  0.00  0.00    +0.178 C 
ATOM      4  C   LIG A   1      -5.909   4.335 126.763  0.00  0.00    +0.179 C 
ATOM      5  C   LIG A   1      -7.080   4.659 125.845  0.00  0.00    +0.201 C 
ATOM      6  C   LIG A   1      -7.950   3.401 125.669  0.00  0.00    +0.279 C 
ATOM      7  O   LIG A   1      -8.427   2.961 126.937  0.00  0.00    -0.340 OA
BRANCH   3   8
ATOM      8  O   LIG A   1      -5.313   3.416 128.895  0.00  0.00    -0.386 OA
ATOM      9  H   LIG A   1      -4.820   2.724 128.397  0.00  0.00    +0.210 HD
ENDBRANCH   3   8
BRANCH   4  10
ATOM     10  O   LIG A   1      -5.162   5.539 127.011  0.00  0.00    -0.386 OA
ATOM     11  H   LIG A   1      -5.829   6.197 127.299  0.00  0.00    +0.210 HD
ENDBRANCH   4  10
BRANCH   6  12
ATOM     12  O   LIG A   1      -9.066   3.702 124.837  0.00  0.00    -0.365 OA
ATOM     13  H   LIG A   1      -9.041   3.047 124.116  0.00  0.00    +0.213 HD
ENDBRANCH   6  12
BRANCH   5  14
ATOM     14  O   LIG A   1      -6.602   5.136 124.581  0.00  0.00    -0.384 OA
ATOM     15  H   LIG A   1      -5.873   4.525 124.346  0.00  0.00    +0.210 HD
ENDBRANCH   5  14
ENDBRANCH   1   2
BRANCH   1  16
ATOM     16  O   LIG A   1      -8.086   3.020 130.137  0.00  0.00    -0.459 OA
BRANCH  16  17
ATOM     17  C   LIG A   1      -9.313   3.272 130.638  0.00  0.00    +0.332 C 
ATOM     18  O   LIG A   1      -9.921   2.563 131.437  0.00  0.00    -0.246 OA
BRANCH  17  19
ATOM     19  C   LIG A   1      -9.849   4.552 130.160  0.00  0.00    +0.092 C 
ATOM     20  C   LIG A   1     -10.969   5.114 130.643  0.00  0.00    +0.015 C 
BRANCH  20  21
ATOM     21  C   LIG A   1     -11.445   6.437 130.221  0.00  0.00    -0.021 A 
ATOM     22  C   LIG A   1     -10.941   7.008 129.043  0.00  0.00    +0.057 A 
ATOM     23  C   LIG A   1     -11.432   8.237 128.614  0.00  0.00    +0.159 A 
ATOM     24  C   LIG A   1     -12.424   8.894 129.337  0.00  0.00    +0.158 A 
ATOM     25  C   LIG A   1     -12.946   8.337 130.492  0.00  0.00    +0.050 A 
ATOM     26  C   LIG A   1     -12.460   7.106 130.930  0.00  0.00    +0.012 A 
BRANCH  23  27
ATOM     27  O   LIG A   1     -10.971   8.844 127.478  0.00  0.00    -0.503 OA
ATOM     28  H   LIG A   1     -11.107   8.236 126.730  0.00  0.00    +0.292 HD
ENDBRANCH  23  27
BRANCH  24  29
ATOM     29  O   LIG A   1     -12.900  10.098 128.909  0.00  0.00    -0.503 OA
ATOM     30  H   LIG A   1     -12.540  10.744 129.549  0.00  0.00    +0.292 HD
ENDBRANCH  24  29
ENDBRANCH  20  21
ENDBRANCH  17  19
ENDBRANCH  16  17
ENDBRANCH   1  16
TORSDOF 11
ENDMDL
MODEL 4
REMARK VINA RESULT:      -6.6      5.550      9.226
REMARK  Name = NuBBE_1190
REMARK  11 active torsions:
REMARK  status: ('A' for Active; 'I' for Inactive)
REMARK    1  A    between atoms: C_1  and  O_2
REMARK    2  A    between atoms: C_1  and  C_15
REMARK    3  A    between atoms: O_2  and  C_3
REMARK    4  A    between atoms: C_3  and  C_5
REMARK    5  A    between atoms: C_6  and  C_7
REMARK    6  A    between atoms: C_9  and  O_10
REMARK    7  A    between atoms: C_11  and  O_14
REMARK    8  A    between atoms: C_17  and  O_19
REMARK    9  A    between atoms: C_20  and  O_22
REMARK   10  A    between atoms: C_23  and  O_29
REMARK   11  A    between atoms: C_25  and  O_28
REMARK                            x       y       z     vdW  Elec       q    Type
REMARK                         _______ _______ _______ _____ _____    ______ ____
ROOT
ATOM      1  C   LIG A   1      -9.975   4.101 130.534  0.00  0.00    +0.267 C 
ENDROOT
BRANCH   1   2
ATOM      2  C   LIG A   1     -10.831   5.237 129.948  0.00  0.00    +0.190 C 
ATOM      3  C   LIG A   1      -9.997   6.325 129.249  0.00  0.00    +0.178 C 
ATOM      4  C   LIG A   1     -10.897   7.461 128.770  0.00  0.00    +0.179 C 
ATOM      5  C   LIG A   1     -11.728   7.981 129.936  0.00  0.00    +0.201 C 
ATOM      6  C   LIG A   1     -12.507   6.812 130.566  0.00  0.00    +0.279 C 
ATOM      7  O   LIG A   1     -11.597   5.813 131.018  0.00  0.00    -0.340 OA
BRANCH   3   8
ATOM      8  O   LIG A   1      -9.282   5.812 128.124  0.00  0.00    -0.386 OA
ATOM      9  H   LIG A   1      -9.810   5.054 127.782  0.00  0.00    +0.210 HD
ENDBRANCH   3   8
BRANCH   4  10
ATOM     10  O   LIG A   1     -10.090   8.534 128.254  0.00  0.00    -0.386 OA
ATOM     11  H   LIG A   1      -9.569   8.851 129.022  0.00  0.00    +0.210 HD
ENDBRANCH   4  10
BRANCH   6  12
ATOM     12  O   LIG A   1     -13.262   7.283 131.677  0.00  0.00    -0.365 OA
ATOM     13  H   LIG A   1     -13.736   8.072 131.357  0.00  0.00    +0.213 HD
ENDBRANCH   6  12
BRANCH   5  14
ATOM     14  O   LIG A   1     -12.618   9.012 129.489  0.00  0.00    -0.384 OA
ATOM     15  H   LIG A   1     -12.466   9.067 128.522  0.00  0.00    +0.210 HD
ENDBRANCH   5  14
ENDBRANCH   1   2
BRANCH   1  16
ATOM     16  O   LIG A   1      -9.751   3.058 129.568  0.00  0.00    -0.459 OA
BRANCH  16  17
ATOM     17  C   LIG A   1      -8.471   2.818 129.218  0.00  0.00    +0.332 C 
ATOM     18  O   LIG A   1      -7.519   3.568 129.421  0.00  0.00    -0.246 OA
BRANCH  17  19
ATOM     19  C   LIG A   1      -8.311   1.498 128.596  0.00  0.00    +0.092 C 
ATOM     20  C   LIG A   1      -8.701   1.215 127.343  0.00  0.00    +0.015 C 
BRANCH  20  21
ATOM     21  C   LIG A   1      -8.454  -0.082 126.701  0.00  0.00    -0.021 A 
ATOM     22  C   LIG A   1      -9.142  -0.410 125.524  0.00  0.00    +0.057 A 
ATOM     23  C   LIG A   1      -8.868  -1.616 124.886  0.00  0.00    +0.159 A 
ATOM     24  C   LIG A   1      -7.911  -2.487 125.400  0.00  0.00    +0.158 A 
ATOM     25  C   LIG A   1      -7.210  -2.171 126.551  0.00  0.00    +0.050 A 
ATOM     26  C   LIG A   1      -7.477  -0.965 127.197  0.00  0.00    +0.012 A 
BRANCH  23  27
ATOM     27  O   LIG A   1      -9.515  -1.992 123.740  0.00  0.00    -0.503 OA
ATOM     28  H   LIG A   1      -9.336  -2.936 123.584  0.00  0.00    +0.292 HD
ENDBRANCH  23  27
BRANCH  24  29
ATOM     29  O   LIG A   1      -7.649  -3.666 124.767  0.00  0.00    -0.503 OA
ATOM     30  H   LIG A   1      -7.531  -3.419 123.829  0.00  0.00    +0.292 HD
ENDBRANCH  24  29
ENDBRANCH  20  21
ENDBRANCH  17  19
ENDBRANCH  16  17
ENDBRANCH   1  16
TORSDOF 11
ENDMDL
MODEL 5
REMARK VINA RESULT:      -6.6      6.605      9.246
REMARK  Name = NuBBE_1190
REMARK  11 active torsions:
REMARK  status: ('A' for Active; 'I' for Inactive)
REMARK    1  A    between atoms: C_1  and  O_2
REMARK    2  A    between atoms: C_1  and  C_15
REMARK    3  A    between atoms: O_2  and  C_3
REMARK    4  A    between atoms: C_3  and  C_5
REMARK    5  A    between atoms: C_6  and  C_7
REMARK    6  A    between atoms: C_9  and  O_10
REMARK    7  A    between atoms: C_11  and  O_14
REMARK    8  A    between atoms: C_17  and  O_19
REMARK    9  A    between atoms: C_20  and  O_22
REMARK   10  A    between atoms: C_23  and  O_29
REMARK   11  A    between atoms: C_25  and  O_28
REMARK                            x       y       z     vdW  Elec       q    Type
REMARK                         _______ _______ _______ _____ _____    ______ ____
ROOT
ATOM      1  C   LIG A   1      -9.848   4.538 130.376  0.00  0.00    +0.267 C 
ENDROOT
BRANCH   1   2
ATOM      2  C   LIG A   1     -10.861   5.565 129.842  0.00  0.00    +0.190 C 
ATOM      3  C   LIG A   1     -10.208   6.691 129.023  0.00  0.00    +0.178 C 
ATOM      4  C   LIG A   1     -11.253   7.718 128.599  0.00  0.00    +0.179 C 
ATOM      5  C   LIG A   1     -12.009   8.214 129.825  0.00  0.00    +0.201 C 
ATOM      6  C   LIG A   1     -12.607   7.009 130.574  0.00  0.00    +0.279 C 
ATOM      7  O   LIG A   1     -11.568   6.117 130.965  0.00  0.00    -0.340 OA
BRANCH   3   8
ATOM      8  O   LIG A   1      -9.563   6.194 127.848  0.00  0.00    -0.386 OA
ATOM      9  H   LIG A   1      -9.813   5.245 127.775  0.00  0.00    +0.210 HD
ENDBRANCH   3   8
BRANCH   4  10
ATOM     10  O   LIG A   1     -10.607   8.835 127.965  0.00  0.00    -0.386 OA
ATOM     11  H   LIG A   1      -9.748   8.484 127.646  0.00  0.00    +0.210 HD
ENDBRANCH   4  10
BRANCH   6  12
ATOM     12  O   LIG A   1     -13.288   7.460 131.740  0.00  0.00    -0.365 OA
ATOM     13  H   LIG A   1     -14.046   6.857 131.851  0.00  0.00    +0.213 HD
ENDBRANCH   6  12
BRANCH   5  14
ATOM     14  O   LIG A   1     -13.032   9.139 129.437  0.00  0.00    -0.384 OA
ATOM     15  H   LIG A   1     -12.566   9.997 129.346  0.00  0.00    +0.210 HD
ENDBRANCH   5  14
ENDBRANCH   1   2
BRANCH   1  16
ATOM     16  O   LIG A   1      -9.264   3.769 129.308  0.00  0.00    -0.459 OA
BRANCH  16  17
ATOM     17  C   LIG A   1      -8.526   2.698 129.664  0.00  0.00    +0.332 C 
ATOM     18  O   LIG A   1      -8.879   1.806 130.432  0.00  0.00    -0.246 OA
BRANCH  17  19
ATOM     19  C   LIG A   1      -7.231   2.670 128.974  0.00  0.00    +0.092 C 
ATOM     20  C   LIG A   1      -6.621   3.767 128.496  0.00  0.00    +0.015 C 
BRANCH  20  21
ATOM     21  C   LIG A   1      -5.285   3.739 127.888  0.00  0.00    -0.021 A 
ATOM     22  C   LIG A   1      -4.357   4.737 128.219  0.00  0.00    +0.057 A 
ATOM     23  C   LIG A   1      -3.073   4.681 127.685  0.00  0.00    +0.159 A 
ATOM     24  C   LIG A   1      -2.704   3.638 126.840  0.00  0.00    +0.158 A 
ATOM     25  C   LIG A   1      -3.601   2.634 126.518  0.00  0.00    +0.050 A 
ATOM     26  C   LIG A   1      -4.889   2.682 127.047  0.00  0.00    +0.012 A 
BRANCH  23  27
ATOM     27  O   LIG A   1      -2.130   5.632 127.965  0.00  0.00    -0.503 OA
ATOM     28  H   LIG A   1      -1.418   5.560 127.306  0.00  0.00    +0.292 HD
ENDBRANCH  23  27
BRANCH  24  29
ATOM     29  O   LIG A   1      -1.443   3.590 126.323  0.00  0.00    -0.503 OA
ATOM     30  H   LIG A   1      -0.882   4.010 127.005  0.00  0.00    +0.292 HD
ENDBRANCH  24  29
ENDBRANCH  20  21
ENDBRANCH  17  19
ENDBRANCH  16  17
ENDBRANCH   1  16
TORSDOF 11
ENDMDL
MODEL 6
REMARK VINA RESULT:      -6.6      8.927     11.542
REMARK  Name = NuBBE_1190
REMARK  11 active torsions:
REMARK  status: ('A' for Active; 'I' for Inactive)
REMARK    1  A    between atoms: C_1  and  O_2
REMARK    2  A    between atoms: C_1  and  C_15
REMARK    3  A    between atoms: O_2  and  C_3
REMARK    4  A    between atoms: C_3  and  C_5
REMARK    5  A    between atoms: C_6  and  C_7
REMARK    6  A    between atoms: C_9  and  O_10
REMARK    7  A    between atoms: C_11  and  O_14
REMARK    8  A    between atoms: C_17  and  O_19
REMARK    9  A    between atoms: C_20  and  O_22
REMARK   10  A    between atoms: C_23  and  O_29
REMARK   11  A    between atoms: C_25  and  O_28
REMARK                            x       y       z     vdW  Elec       q    Type
REMARK                         _______ _______ _______ _____ _____    ______ ____
ROOT
ATOM      1  C   LIG A   1      -9.700   4.947 130.587  0.00  0.00    +0.267 C 
ENDROOT
BRANCH   1   2
ATOM      2  C   LIG A   1     -10.804   5.814 129.959  0.00  0.00    +0.190 C 
ATOM      3  C   LIG A   1     -10.263   6.878 128.990  0.00  0.00    +0.178 C 
ATOM      4  C   LIG A   1     -11.398   7.756 128.471  0.00  0.00    +0.179 C 
ATOM      5  C   LIG A   1     -12.172   8.338 129.648  0.00  0.00    +0.201 C 
ATOM      6  C   LIG A   1     -12.653   7.192 130.556  0.00  0.00    +0.279 C 
ATOM      7  O   LIG A   1     -11.536   6.443 131.024  0.00  0.00    -0.340 OA
BRANCH   3   8
ATOM      8  O   LIG A   1      -9.599   6.293 127.867  0.00  0.00    -0.386 OA
ATOM      9  H   LIG A   1      -9.653   5.317 127.991  0.00  0.00    +0.210 HD
ENDBRANCH   3   8
BRANCH   4  10
ATOM     10  O   LIG A   1     -10.859   8.834 127.687  0.00  0.00    -0.386 OA
ATOM     11  H   LIG A   1     -10.037   9.099 128.152  0.00  0.00    +0.210 HD
ENDBRANCH   4  10
BRANCH   6  12
ATOM     12  O   LIG A   1     -13.350   7.727 131.676  0.00  0.00    -0.365 OA
ATOM     13  H   LIG A   1     -13.499   6.975 132.277  0.00  0.00    +0.213 HD
ENDBRANCH   6  12
BRANCH   5  14
ATOM     14  O   LIG A   1     -13.275   9.121 129.178  0.00  0.00    -0.384 OA
ATOM     15  H   LIG A   1     -14.001   8.475 129.052  0.00  0.00    +0.210 HD
ENDBRANCH   5  14
ENDBRANCH   1   2
BRANCH   1  16
ATOM     16  O   LIG A   1      -8.475   5.688 130.746  0.00  0.00    -0.459 OA
BRANCH  16  17
ATOM     17  C   LIG A   1      -8.115   6.003 132.006  0.00  0.00    +0.332 C 
ATOM     18  O   LIG A   1      -8.884   6.278 132.925  0.00  0.00    -0.246 OA
BRANCH  17  19
ATOM     19  C   LIG A   1      -6.661   5.930 132.196  0.00  0.00    +0.092 C 
ATOM     20  C   LIG A   1      -5.777   6.573 131.416  0.00  0.00    +0.015 C 
BRANCH  20  21
ATOM     21  C   LIG A   1      -4.331   6.565 131.670  0.00  0.00    -0.021 A 
ATOM     22  C   LIG A   1      -3.860   6.251 132.953  0.00  0.00    +0.057 A 
ATOM     23  C   LIG A   1      -2.488   6.191 133.181  0.00  0.00    +0.159 A 
ATOM     24  C   LIG A   1      -1.588   6.425 132.145  0.00  0.00    +0.158 A 
ATOM     25  C   LIG A   1      -2.036   6.718 130.869  0.00  0.00    +0.050 A 
ATOM     26  C   LIG A   1      -3.408   6.781 130.631  0.00  0.00    +0.012 A 
BRANCH  23  27
ATOM     27  O   LIG A   1      -1.972   5.898 134.414  0.00  0.00    -0.503 OA
ATOM     28  H   LIG A   1      -1.032   6.151 134.419  0.00  0.00    +0.292 HD
ENDBRANCH  23  27
BRANCH  24  29
ATOM     29  O   LIG A   1      -0.246   6.363 132.378  0.00  0.00    -0.503 OA
ATOM     30  H   LIG A   1       0.151   6.901 131.664  0.00  0.00    +0.292 HD
ENDBRANCH  24  29
ENDBRANCH  20  21
ENDBRANCH  17  19
ENDBRANCH  16  17
ENDBRANCH   1  16
TORSDOF 11
ENDMDL
MODEL 7
REMARK VINA RESULT:      -6.6      5.960      8.371
REMARK  Name = NuBBE_1190
REMARK  11 active torsions:
REMARK  status: ('A' for Active; 'I' for Inactive)
REMARK    1  A    between atoms: C_1  and  O_2
REMARK    2  A    between atoms: C_1  and  C_15
REMARK    3  A    between atoms: O_2  and  C_3
REMARK    4  A    between atoms: C_3  and  C_5
REMARK    5  A    between atoms: C_6  and  C_7
REMARK    6  A    between atoms: C_9  and  O_10
REMARK    7  A    between atoms: C_11  and  O_14
REMARK    8  A    between atoms: C_17  and  O_19
REMARK    9  A    between atoms: C_20  and  O_22
REMARK   10  A    between atoms: C_23  and  O_29
REMARK   11  A    between atoms: C_25  and  O_28
REMARK                            x       y       z     vdW  Elec       q    Type
REMARK                         _______ _______ _______ _____ _____    ______ ____
ROOT
ATOM      1  C   LIG A   1     -10.067   4.493 130.544  0.00  0.00    +0.267 C 
ENDROOT
BRANCH   1   2
ATOM      2  C   LIG A   1     -11.024   5.562 129.989  0.00  0.00    +0.190 C 
ATOM      3  C   LIG A   1     -10.312   6.636 129.148  0.00  0.00    +0.178 C 
ATOM      4  C   LIG A   1     -11.302   7.709 128.703  0.00  0.00    +0.179 C 
ATOM      5  C   LIG A   1     -12.030   8.268 129.919  0.00  0.00    +0.201 C 
ATOM      6  C   LIG A   1     -12.691   7.112 130.691  0.00  0.00    +0.279 C 
ATOM      7  O   LIG A   1     -11.700   6.173 131.100  0.00  0.00    -0.340 OA
BRANCH   3   8
ATOM      8  O   LIG A   1      -9.695   6.083 127.984  0.00  0.00    -0.386 OA
ATOM      9  H   LIG A   1     -10.045   6.592 127.217  0.00  0.00    +0.210 HD
ENDBRANCH   3   8
BRANCH   4  10
ATOM     10  O   LIG A   1     -10.596   8.777 128.048  0.00  0.00    -0.386 OA
ATOM     11  H   LIG A   1     -10.241   9.330 128.775  0.00  0.00    +0.210 HD
ENDBRANCH   4  10
BRANCH   6  12
ATOM     12  O   LIG A   1     -13.346   7.621 131.847  0.00  0.00    -0.365 OA
ATOM     13  H   LIG A   1     -12.762   7.407 132.597  0.00  0.00    +0.213 HD
ENDBRANCH   6  12
BRANCH   5  14
ATOM     14  O   LIG A   1     -13.001   9.239 129.512  0.00  0.00    -0.384 OA
ATOM     15  H   LIG A   1     -12.970   9.223 128.533  0.00  0.00    +0.210 HD
ENDBRANCH   5  14
ENDBRANCH   1   2
BRANCH   1  16
ATOM     16  O   LIG A   1      -9.862   3.427 129.598  0.00  0.00    -0.459 OA
BRANCH  16  17
ATOM     17  C   LIG A   1      -8.621   2.906 129.530  0.00  0.00    +0.332 C 
ATOM     18  O   LIG A   1      -8.111   2.155 130.359  0.00  0.00    -0.246 OA
BRANCH  17  19
ATOM     19  C   LIG A   1      -7.931   3.292 128.294  0.00  0.00    +0.092 C 
ATOM     20  C   LIG A   1      -7.926   2.540 127.181  0.00  0.00    +0.015 C 
BRANCH  20  21
ATOM     21  C   LIG A   1      -7.309   2.978 125.922  0.00  0.00    -0.021 A 
ATOM     22  C   LIG A   1      -8.105   3.110 124.775  0.00  0.00    +0.057 A 
ATOM     23  C   LIG A   1      -7.533   3.577 123.596  0.00  0.00    +0.159 A 
ATOM     24  C   LIG A   1      -6.185   3.922 123.553  0.00  0.00    +0.158 A 
ATOM     25  C   LIG A   1      -5.389   3.815 124.680  0.00  0.00    +0.050 A 
ATOM     26  C   LIG A   1      -5.953   3.349 125.866  0.00  0.00    +0.012 A 
BRANCH  23  27
ATOM     27  O   LIG A   1      -8.259   3.717 122.445  0.00  0.00    -0.503 OA
ATOM     28  H   LIG A   1      -8.973   3.055 122.451  0.00  0.00    +0.292 HD
ENDBRANCH  23  27
BRANCH  24  29
ATOM     29  O   LIG A   1      -5.632   4.380 122.393  0.00  0.00    -0.503 OA
ATOM     30  H   LIG A   1      -4.748   3.964 122.363  0.00  0.00    +0.292 HD
ENDBRANCH  24  29
ENDBRANCH  20  21
ENDBRANCH  17  19
ENDBRANCH  16  17
ENDBRANCH   1  16
TORSDOF 11
ENDMDL
MODEL 8
REMARK VINA RESULT:      -6.5      8.727     10.637
REMARK  Name = NuBBE_1190
REMARK  11 active torsions:
REMARK  status: ('A' for Active; 'I' for Inactive)
REMARK    1  A    between atoms: C_1  and  O_2
REMARK    2  A    between atoms: C_1  and  C_15
REMARK    3  A    between atoms: O_2  and  C_3
REMARK    4  A    between atoms: C_3  and  C_5
REMARK    5  A    between atoms: C_6  and  C_7
REMARK    6  A    between atoms: C_9  and  O_10
REMARK    7  A    between atoms: C_11  and  O_14
REMARK    8  A    between atoms: C_17  and  O_19
REMARK    9  A    between atoms: C_20  and  O_22
REMARK   10  A    between atoms: C_23  and  O_29
REMARK   11  A    between atoms: C_25  and  O_28
REMARK                            x       y       z     vdW  Elec       q    Type
REMARK                         _______ _______ _______ _____ _____    ______ ____
ROOT
ATOM      1  C   LIG A   1      -9.521   4.887 130.990  0.00  0.00    +0.267 C 
ENDROOT
BRANCH   1   2
ATOM      2  C   LIG A   1     -10.635   5.646 130.249  0.00  0.00    +0.190 C 
ATOM      3  C   LIG A   1     -10.101   6.623 129.188  0.00  0.00    +0.178 C 
ATOM      4  C   LIG A   1     -11.249   7.403 128.554  0.00  0.00    +0.179 C 
ATOM      5  C   LIG A   1     -12.073   8.076 129.645  0.00  0.00    +0.201 C 
ATOM      6  C   LIG A   1     -12.542   7.013 130.655  0.00  0.00    +0.279 C 
ATOM      7  O   LIG A   1     -11.415   6.355 131.225  0.00  0.00    -0.340 OA
BRANCH   3   8
ATOM      8  O   LIG A   1      -9.389   5.948 128.149  0.00  0.00    -0.386 OA
ATOM      9  H   LIG A   1     -10.018   5.301 127.756  0.00  0.00    +0.210 HD
ENDBRANCH   3   8
BRANCH   4  10
ATOM     10  O   LIG A   1     -10.723   8.413 127.676  0.00  0.00    -0.386 OA
ATOM     11  H   LIG A   1     -11.426   9.093 127.621  0.00  0.00    +0.210 HD
ENDBRANCH   4  10
BRANCH   6  12
ATOM     12  O   LIG A   1     -13.286   7.637 131.696  0.00  0.00    -0.365 OA
ATOM     13  H   LIG A   1     -13.971   6.993 131.953  0.00  0.00    +0.213 HD
ENDBRANCH   6  12
BRANCH   5  14
ATOM     14  O   LIG A   1     -13.187   8.768 129.070  0.00  0.00    -0.384 OA
ATOM     15  H   LIG A   1     -13.791   8.057 128.769  0.00  0.00    +0.210 HD
ENDBRANCH   5  14
ENDBRANCH   1   2
BRANCH   1  16
ATOM     16  O   LIG A   1      -9.568   5.133 132.408  0.00  0.00    -0.459 OA
BRANCH  16  17
ATOM     17  C   LIG A   1      -8.471   5.684 132.966  0.00  0.00    +0.332 C 
ATOM     18  O   LIG A   1      -8.310   5.906 134.164  0.00  0.00    -0.246 OA
BRANCH  17  19
ATOM     19  C   LIG A   1      -7.426   5.952 131.971  0.00  0.00    +0.092 C 
ATOM     20  C   LIG A   1      -6.119   6.031 132.271  0.00  0.00    +0.015 C 
BRANCH  20  21
ATOM     21  C   LIG A   1      -5.075   6.209 131.254  0.00  0.00    -0.021 A 
ATOM     22  C   LIG A   1      -4.977   7.432 130.574  0.00  0.00    +0.057 A 
ATOM     23  C   LIG A   1      -3.954   7.620 129.650  0.00  0.00    +0.159 A 
ATOM     24  C   LIG A   1      -3.026   6.612 129.408  0.00  0.00    +0.158 A 
ATOM     25  C   LIG A   1      -3.096   5.406 130.083  0.00  0.00    +0.050 A 
ATOM     26  C   LIG A   1      -4.117   5.208 131.011  0.00  0.00    +0.012 A 
BRANCH  23  27
ATOM     27  O   LIG A   1      -3.816   8.788 128.951  0.00  0.00    -0.503 OA
ATOM     28  H   LIG A   1      -4.120   8.637 128.039  0.00  0.00    +0.292 HD
ENDBRANCH  23  27
BRANCH  24  29
ATOM     29  O   LIG A   1      -2.025   6.805 128.501  0.00  0.00    -0.503 OA
ATOM     30  H   LIG A   1      -1.325   6.180 128.773  0.00  0.00    +0.292 HD
ENDBRANCH  24  29
ENDBRANCH  20  21
ENDBRANCH  17  19
ENDBRANCH  16  17
ENDBRANCH   1  16
TORSDOF 11
ENDMDL
MODEL 9
REMARK VINA RESULT:      -6.5      1.589      2.331
REMARK  Name = NuBBE_1190
REMARK  11 active torsions:
REMARK  status: ('A' for Active; 'I' for Inactive)
REMARK    1  A    between atoms: C_1  and  O_2
REMARK    2  A    between atoms: C_1  and  C_15
REMARK    3  A    between atoms: O_2  and  C_3
REMARK    4  A    between atoms: C_3  and  C_5
REMARK    5  A    between atoms: C_6  and  C_7
REMARK    6  A    between atoms: C_9  and  O_10
REMARK    7  A    between atoms: C_11  and  O_14
REMARK    8  A    between atoms: C_17  and  O_19
REMARK    9  A    between atoms: C_20  and  O_22
REMARK   10  A    between atoms: C_23  and  O_29
REMARK   11  A    between atoms: C_25  and  O_28
REMARK                            x       y       z     vdW  Elec       q    Type
REMARK                         _______ _______ _______ _____ _____    ______ ____
ROOT
ATOM      1  C   LIG A   1      -9.241   0.210 124.652  0.00  0.00    +0.267 C 
ENDROOT
BRANCH   1   2
ATOM      2  C   LIG A   1      -8.336  -1.033 124.603  0.00  0.00    +0.190 C 
ATOM      3  C   LIG A   1      -7.451  -1.188 125.852  0.00  0.00    +0.178 C 
ATOM      4  C   LIG A   1      -6.519  -2.387 125.701  0.00  0.00    +0.179 C 
ATOM      5  C   LIG A   1      -5.730  -2.260 124.404  0.00  0.00    +0.201 C 
ATOM      6  C   LIG A   1      -6.709  -2.097 123.227  0.00  0.00    +0.279 C 
ATOM      7  O   LIG A   1      -7.517  -0.941 123.426  0.00  0.00    -0.340 OA
BRANCH   3   8
ATOM      8  O   LIG A   1      -8.226  -1.368 127.039  0.00  0.00    -0.386 OA
ATOM      9  H   LIG A   1      -7.921  -2.212 127.444  0.00  0.00    +0.210 HD
ENDBRANCH   3   8
BRANCH   4  10
ATOM     10  O   LIG A   1      -5.600  -2.428 126.806  0.00  0.00    -0.386 OA
ATOM     11  H   LIG A   1      -6.066  -1.978 127.541  0.00  0.00    +0.210 HD
ENDBRANCH   4  10
BRANCH   6  12
ATOM     12  O   LIG A   1      -5.980  -1.945 122.014  0.00  0.00    -0.365 OA
ATOM     13  H   LIG A   1      -6.148  -2.758 121.503  0.00  0.00    +0.213 HD
ENDBRANCH   6  12
BRANCH   5  14
ATOM     14  O   LIG A   1      -4.889  -3.405 124.221  0.00  0.00    -0.384 OA
ATOM     15  H   LIG A   1      -4.669  -3.399 123.266  0.00  0.00    +0.210 HD
ENDBRANCH   5  14
ENDBRANCH   1   2
BRANCH   1  16
ATOM     16  O   LIG A   1      -9.058   0.948 125.874  0.00  0.00    -0.459 OA
BRANCH  16  17
ATOM     17  C   LIG A   1      -8.620   2.218 125.758  0.00  0.00    +0.332 C 
ATOM     18  O   LIG A   1      -8.259   2.941 126.684  0.00  0.00    -0.246 OA
BRANCH  17  19
ATOM     19  C   LIG A   1      -8.560   2.651 124.357  0.00  0.00    +0.092 C 
ATOM     20  C   LIG A   1      -7.432   3.056 123.752  0.00  0.00    +0.015 C 
BRANCH  20  21
ATOM     21  C   LIG A   1      -7.367   3.400 122.327  0.00  0.00    -0.021 A 
ATOM     22  C   LIG A   1      -8.555   3.499 121.587  0.00  0.00    +0.057 A 
ATOM     23  C   LIG A   1      -8.497   3.878 120.250  0.00  0.00    +0.159 A 
ATOM     24  C   LIG A   1      -7.276   4.170 119.649  0.00  0.00    +0.158 A 
ATOM     25  C   LIG A   1      -6.096   4.096 120.368  0.00  0.00    +0.050 A 
ATOM     26  C   LIG A   1      -6.143   3.717 121.709  0.00  0.00    +0.012 A 
BRANCH  23  27
ATOM     27  O   LIG A   1      -9.623   3.981 119.479  0.00  0.00    -0.503 OA
ATOM     28  H   LIG A   1      -9.698   3.176 118.937  0.00  0.00    +0.292 HD
ENDBRANCH  23  27
BRANCH  24  29
ATOM     29  O   LIG A   1      -7.230   4.542 118.338  0.00  0.00    -0.503 OA
ATOM     30  H   LIG A   1      -6.275   4.598 118.134  0.00  0.00    +0.292 HD
ENDBRANCH  24  29
ENDBRANCH  20  21
ENDBRANCH  17  19
ENDBRANCH  16  17
ENDBRANCH   1  16
TORSDOF 11
ENDMDL
