MODEL 1
REMARK VINA RESULT:      -6.7      0.000      0.000
REMARK  Name = NuBBE_1341
REMARK  5 active torsions:
REMARK  status: ('A' for Active; 'I' for Inactive)
REMARK    1  A    between atoms: C_1  and  C_2
REMARK    2  A    between atoms: C_5  and  C_6
REMARK    3  A    between atoms: C_6  and  C_7
REMARK    4  A    between atoms: C_6  and  C_8
REMARK    5  A    between atoms: C_13  and  C_14
REMARK                            x       y       z     vdW  Elec       q    Type
REMARK                         _______ _______ _______ _____ _____    ______ ____
ROOT
ATOM      1  C   LIG A   1      -8.344   0.990 123.204  0.00  0.00    +0.044 C 
ATOM      2  C   LIG A   1      -8.141  -0.037 124.290  0.00  0.00    -0.043 A 
ATOM      3  C   LIG A   1      -8.877   0.105 125.468  0.00  0.00    +0.004 A 
ATOM      4  C   LIG A   1      -8.733  -0.811 126.503  0.00  0.00    +0.005 A 
ATOM      5  C   LIG A   1      -7.849  -1.903 126.403  0.00  0.00    -0.037 A 
ATOM      6  C   LIG A   1      -7.085  -2.067 125.206  0.00  0.00    -0.014 A 
ATOM      7  C   LIG A   1      -7.239  -1.123 124.146  0.00  0.00    -0.015 A 
ATOM      8  C   LIG A   1      -6.485  -1.296 122.963  0.00  0.00    +0.009 A 
ATOM      9  C   LIG A   1      -5.592  -2.353 122.796  0.00  0.00    +0.004 A 
ATOM     10  C   LIG A   1      -5.415  -3.273 123.817  0.00  0.00    -0.050 A 
ATOM     11  C   LIG A   1      -4.484  -4.437 123.653  0.00  0.00    +0.044 C 
ATOM     12  C   LIG A   1      -6.166  -3.127 124.993  0.00  0.00    +0.012 A 
ENDROOT
BRANCH   5  13
ATOM     13  C   LIG A   1      -7.801  -2.822 127.625  0.00  0.00    +0.014 C 
ATOM     14  C   LIG A   1      -7.676  -2.067 128.951  0.00  0.00    +0.012 C 
ATOM     15  C   LIG A   1      -8.913  -3.874 127.644  0.00  0.00    +0.012 C 
ENDBRANCH   5  13
TORSDOF 1
ENDMDL
MODEL 2
REMARK VINA RESULT:      -6.2      2.109      4.370
REMARK  Name = NuBBE_1341
REMARK  5 active torsions:
REMARK  status: ('A' for Active; 'I' for Inactive)
REMARK    1  A    between atoms: C_1  and  C_2
REMARK    2  A    between atoms: C_5  and  C_6
REMARK    3  A    between atoms: C_6  and  C_7
REMARK    4  A    between atoms: C_6  and  C_8
REMARK    5  A    between atoms: C_13  and  C_14
REMARK                            x       y       z     vdW  Elec       q    Type
REMARK                         _______ _______ _______ _____ _____    ______ ____
ROOT
ATOM      1  C   LIG A   1      -9.568  -3.356 123.356  0.00  0.00    +0.044 C 
ATOM      2  C   LIG A   1      -8.800  -2.301 124.112  0.00  0.00    -0.043 A 
ATOM      3  C   LIG A   1      -8.326  -1.199 123.396  0.00  0.00    +0.004 A 
ATOM      4  C   LIG A   1      -7.613  -0.196 124.039  0.00  0.00    +0.005 A 
ATOM      5  C   LIG A   1      -7.344  -0.251 125.420  0.00  0.00    -0.037 A 
ATOM      6  C   LIG A   1      -7.818  -1.370 126.173  0.00  0.00    -0.014 A 
ATOM      7  C   LIG A   1      -8.552  -2.397 125.506  0.00  0.00    -0.015 A 
ATOM      8  C   LIG A   1      -9.024  -3.497 126.258  0.00  0.00    +0.009 A 
ATOM      9  C   LIG A   1      -8.794  -3.617 127.627  0.00  0.00    +0.004 A 
ATOM     10  C   LIG A   1      -8.072  -2.639 128.293  0.00  0.00    -0.050 A 
ATOM     11  C   LIG A   1      -7.836  -2.727 129.771  0.00  0.00    +0.044 C 
ATOM     12  C   LIG A   1      -7.608  -1.533 127.566  0.00  0.00    +0.012 A 
ENDROOT
BRANCH   5  13
ATOM     13  C   LIG A   1      -6.546   0.928 125.982  0.00  0.00    +0.014 C 
ATOM     14  C   LIG A   1      -5.063   0.615 126.192  0.00  0.00    +0.012 C 
ATOM     15  C   LIG A   1      -6.775   2.237 125.223  0.00  0.00    +0.012 C 
ENDBRANCH   5  13
TORSDOF 1
ENDMDL
MODEL 3
REMARK VINA RESULT:      -6.0      1.897      5.126
REMARK  Name = NuBBE_1341
REMARK  5 active torsions:
REMARK  status: ('A' for Active; 'I' for Inactive)
REMARK    1  A    between atoms: C_1  and  C_2
REMARK    2  A    between atoms: C_5  and  C_6
REMARK    3  A    between atoms: C_6  and  C_7
REMARK    4  A    between atoms: C_6  and  C_8
REMARK    5  A    between atoms: C_13  and  C_14
REMARK                            x       y       z     vdW  Elec       q    Type
REMARK                         _______ _______ _______ _____ _____    ______ ____
ROOT
ATOM      1  C   LIG A   1      -9.774  -4.312 128.480  0.00  0.00    +0.044 C 
ATOM      2  C   LIG A   1      -8.723  -3.557 127.705  0.00  0.00    -0.043 A 
ATOM      3  C   LIG A   1      -9.008  -3.211 126.383  0.00  0.00    +0.004 A 
ATOM      4  C   LIG A   1      -8.079  -2.515 125.621  0.00  0.00    +0.005 A 
ATOM      5  C   LIG A   1      -6.829  -2.136 126.147  0.00  0.00    -0.037 A 
ATOM      6  C   LIG A   1      -6.514  -2.481 127.499  0.00  0.00    -0.014 A 
ATOM      7  C   LIG A   1      -7.475  -3.196 128.276  0.00  0.00    -0.015 A 
ATOM      8  C   LIG A   1      -7.160  -3.527 129.614  0.00  0.00    +0.009 A 
ATOM      9  C   LIG A   1      -5.943  -3.185 130.199  0.00  0.00    +0.004 A 
ATOM     10  C   LIG A   1      -4.989  -2.504 129.459  0.00  0.00    -0.050 A 
ATOM     11  C   LIG A   1      -3.683  -2.097 130.072  0.00  0.00    +0.044 C 
ATOM     12  C   LIG A   1      -5.289  -2.153 128.134  0.00  0.00    +0.012 A 
ENDROOT
BRANCH   5  13
ATOM     13  C   LIG A   1      -5.914  -1.376 125.185  0.00  0.00    +0.014 C 
ATOM     14  C   LIG A   1      -5.583  -2.159 123.912  0.00  0.00    +0.012 C 
ATOM     15  C   LIG A   1      -6.381   0.053 124.898  0.00  0.00    +0.012 C 
ENDBRANCH   5  13
TORSDOF 1
ENDMDL
MODEL 4
REMARK VINA RESULT:      -5.9     17.211     19.621
REMARK  Name = NuBBE_1341
REMARK  5 active torsions:
REMARK  status: ('A' for Active; 'I' for Inactive)
REMARK    1  A    between atoms: C_1  and  C_2
REMARK    2  A    between atoms: C_5  and  C_6
REMARK    3  A    between atoms: C_6  and  C_7
REMARK    4  A    between atoms: C_6  and  C_8
REMARK    5  A    between atoms: C_13  and  C_14
REMARK                            x       y       z     vdW  Elec       q    Type
REMARK                         _______ _______ _______ _____ _____    ______ ____
ROOT
ATOM      1  C   LIG A   1      -4.421  12.608 138.941  0.00  0.00    +0.044 C 
ATOM      2  C   LIG A   1      -5.885  12.463 139.270  0.00  0.00    -0.043 A 
ATOM      3  C   LIG A   1      -6.520  13.528 139.911  0.00  0.00    +0.004 A 
ATOM      4  C   LIG A   1      -7.867  13.453 140.238  0.00  0.00    +0.005 A 
ATOM      5  C   LIG A   1      -8.635  12.310 139.938  0.00  0.00    -0.037 A 
ATOM      6  C   LIG A   1      -8.007  11.206 139.283  0.00  0.00    -0.014 A 
ATOM      7  C   LIG A   1      -6.621  11.293 138.949  0.00  0.00    -0.015 A 
ATOM      8  C   LIG A   1      -6.008  10.199 138.295  0.00  0.00    +0.009 A 
ATOM      9  C   LIG A   1      -6.706   9.039 137.968  0.00  0.00    +0.004 A 
ATOM     10  C   LIG A   1      -8.048   8.928 138.296  0.00  0.00    -0.050 A 
ATOM     11  C   LIG A   1      -8.832   7.703 137.930  0.00  0.00    +0.044 C 
ATOM     12  C   LIG A   1      -8.678  10.008 138.932  0.00  0.00    +0.012 A 
ENDROOT
BRANCH   5  13
ATOM     13  C   LIG A   1     -10.104  12.378 140.361  0.00  0.00    +0.014 C 
ATOM     14  C   LIG A   1     -10.308  12.261 141.874  0.00  0.00    +0.012 C 
ATOM     15  C   LIG A   1     -10.864  13.557 139.750  0.00  0.00    +0.012 C 
ENDBRANCH   5  13
TORSDOF 1
ENDMDL
MODEL 5
REMARK VINA RESULT:      -5.9      2.021      4.750
REMARK  Name = NuBBE_1341
REMARK  5 active torsions:
REMARK  status: ('A' for Active; 'I' for Inactive)
REMARK    1  A    between atoms: C_1  and  C_2
REMARK    2  A    between atoms: C_5  and  C_6
REMARK    3  A    between atoms: C_6  and  C_7
REMARK    4  A    between atoms: C_6  and  C_8
REMARK    5  A    between atoms: C_13  and  C_14
REMARK                            x       y       z     vdW  Elec       q    Type
REMARK                         _______ _______ _______ _____ _____    ______ ____
ROOT
ATOM      1  C   LIG A   1      -7.915  -3.083 130.232  0.00  0.00    +0.044 C 
ATOM      2  C   LIG A   1      -7.919  -2.874 128.739  0.00  0.00    -0.043 A 
ATOM      3  C   LIG A   1      -8.688  -3.741 127.960  0.00  0.00    +0.004 A 
ATOM      4  C   LIG A   1      -8.731  -3.597 126.579  0.00  0.00    +0.005 A 
ATOM      5  C   LIG A   1      -8.007  -2.583 125.921  0.00  0.00    -0.037 A 
ATOM      6  C   LIG A   1      -7.211  -1.685 126.698  0.00  0.00    -0.014 A 
ATOM      7  C   LIG A   1      -7.174  -1.839 128.117  0.00  0.00    -0.015 A 
ATOM      8  C   LIG A   1      -6.390  -0.942 128.880  0.00  0.00    +0.009 A 
ATOM      9  C   LIG A   1      -5.649   0.083 128.295  0.00  0.00    +0.004 A 
ATOM     10  C   LIG A   1      -5.659   0.241 126.918  0.00  0.00    -0.050 A 
ATOM     11  C   LIG A   1      -4.895   1.354 126.265  0.00  0.00    +0.044 C 
ATOM     12  C   LIG A   1      -6.442  -0.629 126.146  0.00  0.00    +0.012 A 
ENDROOT
BRANCH   5  13
ATOM     13  C   LIG A   1      -8.155  -2.554 124.398  0.00  0.00    +0.014 C 
ATOM     14  C   LIG A   1      -6.877  -2.954 123.654  0.00  0.00    +0.012 C 
ATOM     15  C   LIG A   1      -9.393  -3.295 123.890  0.00  0.00    +0.012 C 
ENDBRANCH   5  13
TORSDOF 1
ENDMDL
MODEL 6
REMARK VINA RESULT:      -5.9      2.131      3.437
REMARK  Name = NuBBE_1341
REMARK  5 active torsions:
REMARK  status: ('A' for Active; 'I' for Inactive)
REMARK    1  A    between atoms: C_1  and  C_2
REMARK    2  A    between atoms: C_5  and  C_6
REMARK    3  A    between atoms: C_6  and  C_7
REMARK    4  A    between atoms: C_6  and  C_8
REMARK    5  A    between atoms: C_13  and  C_14
REMARK                            x       y       z     vdW  Elec       q    Type
REMARK                         _______ _______ _______ _____ _____    ______ ____
ROOT
ATOM      1  C   LIG A   1      -9.307  -3.270 124.462  0.00  0.00    +0.044 C 
ATOM      2  C   LIG A   1      -8.687  -2.925 125.792  0.00  0.00    -0.043 A 
ATOM      3  C   LIG A   1      -9.068  -3.676 126.906  0.00  0.00    +0.004 A 
ATOM      4  C   LIG A   1      -8.530  -3.405 128.157  0.00  0.00    +0.005 A 
ATOM      5  C   LIG A   1      -7.590  -2.373 128.347  0.00  0.00    -0.037 A 
ATOM      6  C   LIG A   1      -7.186  -1.589 127.222  0.00  0.00    -0.014 A 
ATOM      7  C   LIG A   1      -7.743  -1.875 125.938  0.00  0.00    -0.015 A 
ATOM      8  C   LIG A   1      -7.332  -1.101 124.829  0.00  0.00    +0.009 A 
ATOM      9  C   LIG A   1      -6.408  -0.065 124.944  0.00  0.00    +0.004 A 
ATOM     10  C   LIG A   1      -5.866   0.240 126.183  0.00  0.00    -0.050 A 
ATOM     11  C   LIG A   1      -4.846   1.329 126.331  0.00  0.00    +0.044 C 
ATOM     12  C   LIG A   1      -6.249  -0.527 127.293  0.00  0.00    +0.012 A 
ENDROOT
BRANCH   5  13
ATOM     13  C   LIG A   1      -7.091  -2.197 129.783  0.00  0.00    +0.014 C 
ATOM     14  C   LIG A   1      -7.969  -1.266 130.623  0.00  0.00    +0.012 C 
ATOM     15  C   LIG A   1      -6.781  -3.518 130.489  0.00  0.00    +0.012 C 
ENDBRANCH   5  13
TORSDOF 1
ENDMDL
MODEL 7
REMARK VINA RESULT:      -5.9     16.489     18.980
REMARK  Name = NuBBE_1341
REMARK  5 active torsions:
REMARK  status: ('A' for Active; 'I' for Inactive)
REMARK    1  A    between atoms: C_1  and  C_2
REMARK    2  A    between atoms: C_5  and  C_6
REMARK    3  A    between atoms: C_6  and  C_7
REMARK    4  A    between atoms: C_6  and  C_8
REMARK    5  A    between atoms: C_13  and  C_14
REMARK                            x       y       z     vdW  Elec       q    Type
REMARK                         _______ _______ _______ _____ _____    ______ ____
ROOT
ATOM      1  C   LIG A   1      -8.585   7.696 137.053  0.00  0.00    +0.044 C 
ATOM      2  C   LIG A   1      -8.738   8.916 137.927  0.00  0.00    -0.043 A 
ATOM      3  C   LIG A   1     -10.006   9.198 138.439  0.00  0.00    +0.004 A 
ATOM      4  C   LIG A   1     -10.207  10.307 139.251  0.00  0.00    +0.005 A 
ATOM      5  C   LIG A   1      -9.151  11.179 139.583  0.00  0.00    -0.037 A 
ATOM      6  C   LIG A   1      -7.845  10.910 139.069  0.00  0.00    -0.014 A 
ATOM      7  C   LIG A   1      -7.646   9.767 138.237  0.00  0.00    -0.015 A 
ATOM      8  C   LIG A   1      -6.349   9.504 137.738  0.00  0.00    +0.009 A 
ATOM      9  C   LIG A   1      -5.260  10.324 138.025  0.00  0.00    +0.004 A 
ATOM     10  C   LIG A   1      -5.433  11.447 138.819  0.00  0.00    -0.050 A 
ATOM     11  C   LIG A   1      -4.272  12.329 139.170  0.00  0.00    +0.044 C 
ATOM     12  C   LIG A   1      -6.709  11.716 139.336  0.00  0.00    +0.012 A 
ENDROOT
BRANCH   5  13
ATOM     13  C   LIG A   1      -9.531  12.356 140.484  0.00  0.00    +0.014 C 
ATOM     14  C   LIG A   1     -10.611  13.259 139.884  0.00  0.00    +0.012 C 
ATOM     15  C   LIG A   1      -9.833  11.948 141.928  0.00  0.00    +0.012 C 
ENDBRANCH   5  13
TORSDOF 1
ENDMDL
MODEL 8
REMARK VINA RESULT:      -5.9     16.432     19.163
REMARK  Name = NuBBE_1341
REMARK  5 active torsions:
REMARK  status: ('A' for Active; 'I' for Inactive)
REMARK    1  A    between atoms: C_1  and  C_2
REMARK    2  A    between atoms: C_5  and  C_6
REMARK    3  A    between atoms: C_6  and  C_7
REMARK    4  A    between atoms: C_6  and  C_8
REMARK    5  A    between atoms: C_13  and  C_14
REMARK                            x       y       z     vdW  Elec       q    Type
REMARK                         _______ _______ _______ _____ _____    ______ ____
ROOT
ATOM      1  C   LIG A   1      -4.159  11.989 138.616  0.00  0.00    +0.044 C 
ATOM      2  C   LIG A   1      -5.401  11.136 138.567  0.00  0.00    -0.043 A 
ATOM      3  C   LIG A   1      -5.314   9.889 137.944  0.00  0.00    +0.004 A 
ATOM      4  C   LIG A   1      -6.425   9.059 137.869  0.00  0.00    +0.005 A 
ATOM      5  C   LIG A   1      -7.668   9.441 138.412  0.00  0.00    -0.037 A 
ATOM      6  C   LIG A   1      -7.782  10.713 139.053  0.00  0.00    -0.014 A 
ATOM      7  C   LIG A   1      -6.634  11.560 139.127  0.00  0.00    -0.015 A 
ATOM      8  C   LIG A   1      -6.753  12.814 139.769  0.00  0.00    +0.009 A 
ATOM      9  C   LIG A   1      -7.951  13.256 140.327  0.00  0.00    +0.004 A 
ATOM     10  C   LIG A   1      -9.081  12.457 140.253  0.00  0.00    -0.050 A 
ATOM     11  C   LIG A   1     -10.375  12.893 140.872  0.00  0.00    +0.044 C 
ATOM     12  C   LIG A   1      -8.980  11.202 139.634  0.00  0.00    +0.012 A 
ENDROOT
BRANCH   5  13
ATOM     13  C   LIG A   1      -8.796   8.420 138.249  0.00  0.00    +0.014 C 
ATOM     14  C   LIG A   1      -9.786   8.778 137.138  0.00  0.00    +0.012 C 
ATOM     15  C   LIG A   1      -8.304   6.974 138.161  0.00  0.00    +0.012 C 
ENDBRANCH   5  13
TORSDOF 1
ENDMDL
MODEL 9
REMARK VINA RESULT:      -5.7     16.353     18.620
REMARK  Name = NuBBE_1341
REMARK  5 active torsions:
REMARK  status: ('A' for Active; 'I' for Inactive)
REMARK    1  A    between atoms: C_1  and  C_2
REMARK    2  A    between atoms: C_5  and  C_6
REMARK    3  A    between atoms: C_6  and  C_7
REMARK    4  A    between atoms: C_6  and  C_8
REMARK    5  A    between atoms: C_13  and  C_14
REMARK                            x       y       z     vdW  Elec       q    Type
REMARK                         _______ _______ _______ _____ _____    ______ ____
ROOT
ATOM      1  C   LIG A   1      -7.771  13.453 140.943  0.00  0.00    +0.044 C 
ATOM      2  C   LIG A   1      -7.973  12.220 140.100  0.00  0.00    -0.043 A 
ATOM      3  C   LIG A   1      -9.240  11.633 140.092  0.00  0.00    +0.004 A 
ATOM      4  C   LIG A   1      -9.485  10.495 139.334  0.00  0.00    +0.005 A 
ATOM      5  C   LIG A   1      -8.476   9.897 138.555  0.00  0.00    -0.037 A 
ATOM      6  C   LIG A   1      -7.170  10.480 138.548  0.00  0.00    -0.014 A 
ATOM      7  C   LIG A   1      -6.926  11.650 139.329  0.00  0.00    -0.015 A 
ATOM      8  C   LIG A   1      -5.634  12.224 139.311  0.00  0.00    +0.009 A 
ATOM      9  C   LIG A   1      -4.589  11.686 138.564  0.00  0.00    +0.004 A 
ATOM     10  C   LIG A   1      -4.799  10.542 137.810  0.00  0.00    -0.050 A 
ATOM     11  C   LIG A   1      -3.701   9.958 136.973  0.00  0.00    +0.044 C 
ATOM     12  C   LIG A   1      -6.079   9.966 137.803  0.00  0.00    +0.012 A 
ENDROOT
BRANCH   5  13
ATOM     13  C   LIG A   1      -8.900   8.650 137.777  0.00  0.00    +0.014 C 
ATOM     14  C   LIG A   1      -8.369   7.346 138.380  0.00  0.00    +0.012 C 
ATOM     15  C   LIG A   1     -10.399   8.597 137.476  0.00  0.00    +0.012 C 
ENDBRANCH   5  13
TORSDOF 1
ENDMDL
