MODEL 1
REMARK VINA RESULT:      -6.6      0.000      0.000
REMARK  Name = NuBBE_2472
REMARK  22 active torsions:
REMARK  status: ('A' for Active; 'I' for Inactive)
REMARK    1  A    between atoms: C_1  and  O_2
REMARK    2  A    between atoms: O_2  and  C_3
REMARK    3  A    between atoms: C_4  and  O_5
REMARK    4  A    between atoms: O_5  and  C_6
REMARK    5  A    between atoms: C_6  and  C_7
REMARK    6  A    between atoms: C_11  and  C_12
REMARK    7  A    between atoms: C_12  and  C_13
REMARK    8  A    between atoms: C_13  and  C_15
REMARK    9  A    between atoms: C_13  and  C_33
REMARK   10  A    between atoms: C_15  and  C_17
REMARK   11  A    between atoms: C_15  and  C_22
REMARK   12  A    between atoms: C_17  and  O_18
REMARK   13  A    between atoms: O_18  and  C_19
REMARK   14  A    between atoms: C_19  and  C_20
REMARK   15  A    between atoms: C_22  and  C_23
REMARK   16  A    between atoms: C_26  and  O_27
REMARK   17  A    between atoms: O_27  and  C_28
REMARK   18  A    between atoms: C_29  and  O_30
REMARK   19  A    between atoms: O_30  and  C_31
REMARK   20  A    between atoms: C_33  and  O_34
REMARK   21  A    between atoms: O_34  and  C_35
REMARK   22  A    between atoms: C_35  and  C_36
REMARK                            x       y       z     vdW  Elec       q    Type
REMARK                         _______ _______ _______ _____ _____    ______ ____
ROOT
ATOM      1  C   LIG A   1      -7.062   3.221 123.203  0.00  0.00    +0.038 C 
ENDROOT
BRANCH   1   2
ATOM      2  C   LIG A   1      -5.867   3.529 124.152  0.00  0.00    +0.042 C 
BRANCH   2   7
ATOM      3  C   LIG A   1      -3.894   3.953 127.261  0.00  0.00    +0.163 A 
ATOM      4  C   LIG A   1      -4.895   4.271 128.216  0.00  0.00    +0.173 A 
ATOM      5  C   LIG A   1      -6.243   4.213 127.835  0.00  0.00    +0.050 A 
ATOM      6  C   LIG A   1      -6.612   3.842 126.558  0.00  0.00    +0.007 A 
ATOM      7  C   LIG A   1      -5.616   3.585 125.614  0.00  0.00    -0.043 A 
ATOM      8  C   LIG A   1      -4.309   3.627 125.979  0.00  0.00    +0.053 A 
BRANCH   3  10
ATOM      9  C   LIG A   1      -1.730   3.119 126.659  0.00  0.00    +0.277 C 
ATOM     10  O   LIG A   1      -2.541   3.980 127.504  0.00  0.00    -0.491 OA
ENDBRANCH   3  10
BRANCH   4  11
ATOM     11  O   LIG A   1      -4.600   4.788 129.511  0.00  0.00    -0.422 OA
BRANCH  11  12
ATOM     12  C   LIG A   1      -4.963   4.082 130.684  0.00  0.00    +0.309 C 
ATOM     13  C   LIG A   1      -3.881   3.138 131.084  0.00  0.00    +0.136 C 
ATOM     14  O   LIG A   1      -5.983   4.202 131.360  0.00  0.00    -0.251 OA
ENDBRANCH  11  12
ENDBRANCH   4  11
ENDBRANCH   2   7
ENDBRANCH   1   2
BRANCH   1  15
ATOM     15  C   LIG A   1      -7.819   1.716 123.227  0.00  0.00    +0.038 C 
BRANCH  15  16
ATOM     16  C   LIG A   1      -9.200   1.655 123.936  0.00  0.00    +0.236 C 
BRANCH  16  17
ATOM     17  O   LIG A   1      -9.308   2.016 125.308  0.00  0.00    -0.465 OA
BRANCH  17  18
ATOM     18  C   LIG A   1      -9.367   0.996 126.089  0.00  0.00    +0.304 C 
ATOM     19  C   LIG A   1      -8.663   0.962 127.281  0.00  0.00    +0.136 C 
ATOM     20  O   LIG A   1      -9.782  -0.142 125.623  0.00  0.00    -0.251 OA
ENDBRANCH  17  18
ENDBRANCH  16  17
ENDBRANCH  15  16
BRANCH  15  21
ATOM     21  C   LIG A   1      -7.050   0.289 123.234  0.00  0.00    +0.042 C 
BRANCH  21  22
ATOM     22  C   LIG A   1      -6.486  -0.490 124.455  0.00  0.00    -0.043 A 
ATOM     23  C   LIG A   1      -5.613  -0.001 125.368  0.00  0.00    +0.007 A 
ATOM     24  C   LIG A   1      -5.450  -0.702 126.579  0.00  0.00    +0.050 A 
ATOM     25  C   LIG A   1      -6.180  -1.874 126.957  0.00  0.00    +0.162 A 
ATOM     26  C   LIG A   1      -7.046  -2.419 126.047  0.00  0.00    +0.162 A 
ATOM     27  C   LIG A   1      -6.758  -1.825 124.757  0.00  0.00    +0.053 A 
BRANCH  25  28
ATOM     28  O   LIG A   1      -6.029  -2.474 128.170  0.00  0.00    -0.491 OA
ATOM     29  C   LIG A   1      -4.713  -2.393 128.701  0.00  0.00    +0.277 C 
ENDBRANCH  25  28
BRANCH  26  30
ATOM     30  O   LIG A   1      -7.884  -3.532 126.417  0.00  0.00    -0.491 OA
ATOM     31  C   LIG A   1      -9.266  -3.565 127.079  0.00  0.00    +0.277 C 
ENDBRANCH  26  30
ENDBRANCH  21  22
ENDBRANCH  15  21
ENDBRANCH   1  15
BRANCH   1  32
ATOM     32  C   LIG A   1      -6.605   3.662 121.798  0.00  0.00    +0.236 C 
BRANCH  32  33
ATOM     33  O   LIG A   1      -5.465   4.527 121.909  0.00  0.00    -0.465 OA
BRANCH  33  34
ATOM     34  C   LIG A   1      -5.090   5.195 120.786  0.00  0.00    +0.304 C 
ATOM     35  C   LIG A   1      -5.970   4.775 119.664  0.00  0.00    +0.136 C 
ATOM     36  O   LIG A   1      -4.323   6.150 120.736  0.00  0.00    -0.251 OA
ENDBRANCH  33  34
ENDBRANCH  32  33
ENDBRANCH   1  32
TORSDOF 16
ENDMDL
MODEL 2
REMARK VINA RESULT:      -6.5      3.704      7.684
REMARK  Name = NuBBE_2472
REMARK  22 active torsions:
REMARK  status: ('A' for Active; 'I' for Inactive)
REMARK    1  A    between atoms: C_1  and  O_2
REMARK    2  A    between atoms: O_2  and  C_3
REMARK    3  A    between atoms: C_4  and  O_5
REMARK    4  A    between atoms: O_5  and  C_6
REMARK    5  A    between atoms: C_6  and  C_7
REMARK    6  A    between atoms: C_11  and  C_12
REMARK    7  A    between atoms: C_12  and  C_13
REMARK    8  A    between atoms: C_13  and  C_15
REMARK    9  A    between atoms: C_13  and  C_33
REMARK   10  A    between atoms: C_15  and  C_17
REMARK   11  A    between atoms: C_15  and  C_22
REMARK   12  A    between atoms: C_17  and  O_18
REMARK   13  A    between atoms: O_18  and  C_19
REMARK   14  A    between atoms: C_19  and  C_20
REMARK   15  A    between atoms: C_22  and  C_23
REMARK   16  A    between atoms: C_26  and  O_27
REMARK   17  A    between atoms: O_27  and  C_28
REMARK   18  A    between atoms: C_29  and  O_30
REMARK   19  A    between atoms: O_30  and  C_31
REMARK   20  A    between atoms: C_33  and  O_34
REMARK   21  A    between atoms: O_34  and  C_35
REMARK   22  A    between atoms: C_35  and  C_36
REMARK                            x       y       z     vdW  Elec       q    Type
REMARK                         _______ _______ _______ _____ _____    ______ ____
ROOT
ATOM      1  C   LIG A   1      -7.119  -1.349 131.089  0.00  0.00    +0.038 C 
ENDROOT
BRANCH   1   2
ATOM      2  C   LIG A   1      -8.236  -0.357 130.654  0.00  0.00    +0.042 C 
BRANCH   2   7
ATOM      3  C   LIG A   1      -8.950   3.163 129.735  0.00  0.00    +0.163 A 
ATOM      4  C   LIG A   1      -9.690   3.625 130.855  0.00  0.00    +0.173 A 
ATOM      5  C   LIG A   1      -9.832   2.789 131.971  0.00  0.00    +0.050 A 
ATOM      6  C   LIG A   1      -9.258   1.534 132.003  0.00  0.00    +0.007 A 
ATOM      7  C   LIG A   1      -8.580   1.070 130.875  0.00  0.00    -0.043 A 
ATOM      8  C   LIG A   1      -8.428   1.880 129.796  0.00  0.00    +0.053 A 
BRANCH   3  10
ATOM      9  C   LIG A   1      -7.451   3.696 127.944  0.00  0.00    +0.277 C 
ATOM     10  O   LIG A   1      -8.745   3.879 128.579  0.00  0.00    -0.491 OA
ENDBRANCH   3  10
BRANCH   4  11
ATOM     11  O   LIG A   1     -10.422   4.849 130.853  0.00  0.00    -0.422 OA
BRANCH  11  12
ATOM     12  C   LIG A   1     -10.007   5.955 131.634  0.00  0.00    +0.309 C 
ATOM     13  C   LIG A   1      -8.806   6.600 131.032  0.00  0.00    +0.136 C 
ATOM     14  O   LIG A   1     -10.530   6.409 132.649  0.00  0.00    -0.251 OA
ENDBRANCH  11  12
ENDBRANCH   4  11
ENDBRANCH   2   7
ENDBRANCH   1   2
BRANCH   1  15
ATOM     15  C   LIG A   1      -7.090  -2.929 130.504  0.00  0.00    +0.038 C 
BRANCH  15  16
ATOM     16  C   LIG A   1      -5.705  -3.631 130.496  0.00  0.00    +0.236 C 
BRANCH  16  17
ATOM     17  O   LIG A   1      -4.554  -2.935 130.963  0.00  0.00    -0.465 OA
BRANCH  17  18
ATOM     18  C   LIG A   1      -3.639  -2.827 130.067  0.00  0.00    +0.304 C 
ATOM     19  C   LIG A   1      -3.526  -3.750 129.040  0.00  0.00    +0.136 C 
ATOM     20  O   LIG A   1      -2.603  -2.081 130.298  0.00  0.00    -0.251 OA
ENDBRANCH  17  18
ENDBRANCH  16  17
ENDBRANCH  15  16
BRANCH  15  21
ATOM     21  C   LIG A   1      -8.097  -3.522 129.382  0.00  0.00    +0.042 C 
BRANCH  21  22
ATOM     22  C   LIG A   1      -8.290  -3.041 127.916  0.00  0.00    -0.043 A 
ATOM     23  C   LIG A   1      -9.101  -3.619 126.996  0.00  0.00    +0.007 A 
ATOM     24  C   LIG A   1      -9.415  -2.891 125.833  0.00  0.00    +0.050 A 
ATOM     25  C   LIG A   1      -8.992  -1.551 125.559  0.00  0.00    +0.162 A 
ATOM     26  C   LIG A   1      -8.143  -0.947 126.447  0.00  0.00    +0.162 A 
ATOM     27  C   LIG A   1      -7.615  -1.976 127.320  0.00  0.00    +0.053 A 
BRANCH  25  28
ATOM     28  O   LIG A   1      -9.380  -0.871 124.446  0.00  0.00    -0.491 OA
ATOM     29  C   LIG A   1      -8.972  -1.471 123.223  0.00  0.00    +0.277 C 
ENDBRANCH  25  28
BRANCH  26  30
ATOM     30  O   LIG A   1      -7.775   0.436 126.274  0.00  0.00    -0.491 OA
ATOM     31  C   LIG A   1      -6.682   1.079 125.412  0.00  0.00    +0.277 C 
ENDBRANCH  26  30
ENDBRANCH  21  22
ENDBRANCH  15  21
ENDBRANCH   1  15
BRANCH   1  32
ATOM     32  C   LIG A   1      -7.051  -1.256 132.626  0.00  0.00    +0.236 C 
BRANCH  32  33
ATOM     33  O   LIG A   1      -5.807  -0.661 133.022  0.00  0.00    -0.465 OA
BRANCH  33  34
ATOM     34  C   LIG A   1      -5.850   0.633 133.438  0.00  0.00    +0.304 C 
ATOM     35  C   LIG A   1      -5.161   1.482 132.433  0.00  0.00    +0.136 C 
ATOM     36  O   LIG A   1      -6.533   1.073 134.357  0.00  0.00    -0.251 OA
ENDBRANCH  33  34
ENDBRANCH  32  33
ENDBRANCH   1  32
TORSDOF 16
ENDMDL
MODEL 3
REMARK VINA RESULT:      -6.5      2.913      7.002
REMARK  Name = NuBBE_2472
REMARK  22 active torsions:
REMARK  status: ('A' for Active; 'I' for Inactive)
REMARK    1  A    between atoms: C_1  and  O_2
REMARK    2  A    between atoms: O_2  and  C_3
REMARK    3  A    between atoms: C_4  and  O_5
REMARK    4  A    between atoms: O_5  and  C_6
REMARK    5  A    between atoms: C_6  and  C_7
REMARK    6  A    between atoms: C_11  and  C_12
REMARK    7  A    between atoms: C_12  and  C_13
REMARK    8  A    between atoms: C_13  and  C_15
REMARK    9  A    between atoms: C_13  and  C_33
REMARK   10  A    between atoms: C_15  and  C_17
REMARK   11  A    between atoms: C_15  and  C_22
REMARK   12  A    between atoms: C_17  and  O_18
REMARK   13  A    between atoms: O_18  and  C_19
REMARK   14  A    between atoms: C_19  and  C_20
REMARK   15  A    between atoms: C_22  and  C_23
REMARK   16  A    between atoms: C_26  and  O_27
REMARK   17  A    between atoms: O_27  and  C_28
REMARK   18  A    between atoms: C_29  and  O_30
REMARK   19  A    between atoms: O_30  and  C_31
REMARK   20  A    between atoms: C_33  and  O_34
REMARK   21  A    between atoms: O_34  and  C_35
REMARK   22  A    between atoms: C_35  and  C_36
REMARK                            x       y       z     vdW  Elec       q    Type
REMARK                         _______ _______ _______ _____ _____    ______ ____
ROOT
ATOM      1  C   LIG A   1      -7.568  -0.018 130.829  0.00  0.00    +0.038 C 
ENDROOT
BRANCH   1   2
ATOM      2  C   LIG A   1      -7.659   0.985 129.642  0.00  0.00    +0.042 C 
BRANCH   2   7
ATOM      3  C   LIG A   1      -6.260   3.452 127.255  0.00  0.00    +0.163 A 
ATOM      4  C   LIG A   1      -4.972   2.918 126.986  0.00  0.00    +0.173 A 
ATOM      5  C   LIG A   1      -4.632   1.663 127.508  0.00  0.00    +0.050 A 
ATOM      6  C   LIG A   1      -5.527   0.935 128.266  0.00  0.00    +0.007 A 
ATOM      7  C   LIG A   1      -6.769   1.495 128.569  0.00  0.00    -0.043 A 
ATOM      8  C   LIG A   1      -7.110   2.705 128.056  0.00  0.00    +0.053 A 
BRANCH   3  10
ATOM      9  C   LIG A   1      -7.787   4.629 125.834  0.00  0.00    +0.277 C 
ATOM     10  O   LIG A   1      -6.713   4.672 126.811  0.00  0.00    -0.491 OA
ENDBRANCH   3  10
BRANCH   4  11
ATOM     11  O   LIG A   1      -3.945   3.656 126.327  0.00  0.00    -0.422 OA
BRANCH  11  12
ATOM     12  C   LIG A   1      -2.710   3.927 126.964  0.00  0.00    +0.309 C 
ATOM     13  C   LIG A   1      -1.626   3.081 126.389  0.00  0.00    +0.136 C 
ATOM     14  O   LIG A   1      -2.473   4.755 127.841  0.00  0.00    -0.251 OA
ENDBRANCH  11  12
ENDBRANCH   4  11
ENDBRANCH   2   7
ENDBRANCH   1   2
BRANCH   1  15
ATOM     15  C   LIG A   1      -7.100  -1.617 130.576  0.00  0.00    +0.038 C 
BRANCH  15  16
ATOM     16  C   LIG A   1      -5.571  -1.887 130.554  0.00  0.00    +0.236 C 
BRANCH  16  17
ATOM     17  O   LIG A   1      -5.059  -3.006 129.837  0.00  0.00    -0.465 OA
BRANCH  17  18
ATOM     18  C   LIG A   1      -4.555  -3.903 130.607  0.00  0.00    +0.304 C 
ATOM     19  C   LIG A   1      -5.333  -4.929 131.119  0.00  0.00    +0.136 C 
ATOM     20  O   LIG A   1      -3.425  -3.675 131.201  0.00  0.00    -0.251 OA
ENDBRANCH  17  18
ENDBRANCH  16  17
ENDBRANCH  15  16
BRANCH  15  21
ATOM     21  C   LIG A   1      -7.940  -2.705 129.717  0.00  0.00    +0.042 C 
BRANCH  21  22
ATOM     22  C   LIG A   1      -8.184  -2.734 128.182  0.00  0.00    -0.043 A 
ATOM     23  C   LIG A   1      -8.906  -3.667 127.515  0.00  0.00    +0.007 A 
ATOM     24  C   LIG A   1      -9.305  -3.383 126.195  0.00  0.00    +0.050 A 
ATOM     25  C   LIG A   1      -9.058  -2.154 125.504  0.00  0.00    +0.162 A 
ATOM     26  C   LIG A   1      -8.300  -1.201 126.132  0.00  0.00    +0.162 A 
ATOM     27  C   LIG A   1      -7.649  -1.831 127.262  0.00  0.00    +0.053 A 
BRANCH  25  28
ATOM     28  O   LIG A   1      -9.524  -1.909 124.249  0.00  0.00    -0.491 OA
ATOM     29  C   LIG A   1      -8.846  -2.625 123.225  0.00  0.00    +0.277 C 
ENDBRANCH  25  28
BRANCH  26  30
ATOM     30  O   LIG A   1      -8.114   0.094 125.526  0.00  0.00    -0.491 OA
ATOM     31  C   LIG A   1      -6.964   0.642 124.675  0.00  0.00    +0.277 C 
ENDBRANCH  26  30
ENDBRANCH  21  22
ENDBRANCH  15  21
ENDBRANCH   1  15
BRANCH   1  32
ATOM     32  C   LIG A   1      -8.895   0.124 131.600  0.00  0.00    +0.236 C 
BRANCH  32  33
ATOM     33  O   LIG A   1      -8.771   1.153 132.593  0.00  0.00    -0.465 OA
BRANCH  33  34
ATOM     34  C   LIG A   1      -9.557   2.252 132.441  0.00  0.00    +0.304 C 
ATOM     35  C   LIG A   1      -9.179   3.255 133.470  0.00  0.00    +0.136 C 
ATOM     36  O   LIG A   1     -10.291   2.488 131.488  0.00  0.00    -0.251 OA
ENDBRANCH  33  34
ENDBRANCH  32  33
ENDBRANCH   1  32
TORSDOF 16
ENDMDL
MODEL 4
REMARK VINA RESULT:      -6.5      2.493      5.502
REMARK  Name = NuBBE_2472
REMARK  22 active torsions:
REMARK  status: ('A' for Active; 'I' for Inactive)
REMARK    1  A    between atoms: C_1  and  O_2
REMARK    2  A    between atoms: O_2  and  C_3
REMARK    3  A    between atoms: C_4  and  O_5
REMARK    4  A    between atoms: O_5  and  C_6
REMARK    5  A    between atoms: C_6  and  C_7
REMARK    6  A    between atoms: C_11  and  C_12
REMARK    7  A    between atoms: C_12  and  C_13
REMARK    8  A    between atoms: C_13  and  C_15
REMARK    9  A    between atoms: C_13  and  C_33
REMARK   10  A    between atoms: C_15  and  C_17
REMARK   11  A    between atoms: C_15  and  C_22
REMARK   12  A    between atoms: C_17  and  O_18
REMARK   13  A    between atoms: O_18  and  C_19
REMARK   14  A    between atoms: C_19  and  C_20
REMARK   15  A    between atoms: C_22  and  C_23
REMARK   16  A    between atoms: C_26  and  O_27
REMARK   17  A    between atoms: O_27  and  C_28
REMARK   18  A    between atoms: C_29  and  O_30
REMARK   19  A    between atoms: O_30  and  C_31
REMARK   20  A    between atoms: C_33  and  O_34
REMARK   21  A    between atoms: O_34  and  C_35
REMARK   22  A    between atoms: C_35  and  C_36
REMARK                            x       y       z     vdW  Elec       q    Type
REMARK                         _______ _______ _______ _____ _____    ______ ____
ROOT
ATOM      1  C   LIG A   1      -8.308   0.091 125.587  0.00  0.00    +0.038 C 
ENDROOT
BRANCH   1   2
ATOM      2  C   LIG A   1      -8.750   0.753 126.924  0.00  0.00    +0.042 C 
BRANCH   2   7
ATOM      3  C   LIG A   1      -7.891   3.320 129.457  0.00  0.00    +0.163 A 
ATOM      4  C   LIG A   1      -7.488   2.530 130.565  0.00  0.00    +0.173 A 
ATOM      5  C   LIG A   1      -7.382   1.141 130.410  0.00  0.00    +0.050 A 
ATOM      6  C   LIG A   1      -7.652   0.532 129.201  0.00  0.00    +0.007 A 
ATOM      7  C   LIG A   1      -8.100   1.314 128.135  0.00  0.00    -0.043 A 
ATOM      8  C   LIG A   1      -8.191   2.661 128.275  0.00  0.00    +0.053 A 
BRANCH   3  10
ATOM      9  C   LIG A   1      -9.386   5.170 129.739  0.00  0.00    +0.277 C 
ATOM     10  O   LIG A   1      -8.041   4.686 129.480  0.00  0.00    -0.491 OA
ENDBRANCH   3  10
BRANCH   4  11
ATOM     11  O   LIG A   1      -7.318   3.059 131.879  0.00  0.00    -0.422 OA
BRANCH  11  12
ATOM     12  C   LIG A   1      -7.884   2.419 133.008  0.00  0.00    +0.309 C 
ATOM     13  C   LIG A   1      -9.307   2.826 133.184  0.00  0.00    +0.136 C 
ATOM     14  O   LIG A   1      -7.360   1.600 133.760  0.00  0.00    -0.251 OA
ENDBRANCH  11  12
ENDBRANCH   4  11
ENDBRANCH   2   7
ENDBRANCH   1   2
BRANCH   1  15
ATOM     15  C   LIG A   1      -6.680  -0.187 125.256  0.00  0.00    +0.038 C 
BRANCH  15  16
ATOM     16  C   LIG A   1      -6.349  -1.500 124.496  0.00  0.00    +0.236 C 
BRANCH  16  17
ATOM     17  O   LIG A   1      -7.159  -1.908 123.399  0.00  0.00    -0.465 OA
BRANCH  17  18
ATOM     18  C   LIG A   1      -7.873  -2.944 123.664  0.00  0.00    +0.304 C 
ATOM     19  C   LIG A   1      -9.237  -2.957 123.421  0.00  0.00    +0.136 C 
ATOM     20  O   LIG A   1      -7.416  -3.843 124.479  0.00  0.00    -0.251 OA
ENDBRANCH  17  18
ENDBRANCH  16  17
ENDBRANCH  15  16
BRANCH  15  21
ATOM     21  C   LIG A   1      -5.445   0.336 126.166  0.00  0.00    +0.042 C 
BRANCH  21  22
ATOM     22  C   LIG A   1      -5.043   1.804 126.485  0.00  0.00    -0.043 A 
ATOM     23  C   LIG A   1      -5.318   2.883 125.712  0.00  0.00    +0.007 A 
ATOM     24  C   LIG A   1      -5.181   4.163 126.282  0.00  0.00    +0.050 A 
ATOM     25  C   LIG A   1      -4.825   4.427 127.643  0.00  0.00    +0.162 A 
ATOM     26  C   LIG A   1      -4.505   3.364 128.446  0.00  0.00    +0.162 A 
ATOM     27  C   LIG A   1      -4.295   2.215 127.588  0.00  0.00    +0.053 A 
BRANCH  25  28
ATOM     28  O   LIG A   1      -4.771   5.686 128.158  0.00  0.00    -0.491 OA
ATOM     29  C   LIG A   1      -3.573   6.389 127.856  0.00  0.00    +0.277 C 
ENDBRANCH  25  28
BRANCH  26  30
ATOM     30  O   LIG A   1      -4.246   3.565 129.849  0.00  0.00    -0.491 OA
ATOM     31  C   LIG A   1      -3.943   2.558 130.964  0.00  0.00    +0.277 C 
ENDBRANCH  26  30
ENDBRANCH  21  22
ENDBRANCH  15  21
ENDBRANCH   1  15
BRANCH   1  32
ATOM     32  C   LIG A   1      -9.044   0.863 124.474  0.00  0.00    +0.236 C 
BRANCH  32  33
ATOM     33  O   LIG A   1      -9.461   2.144 124.967  0.00  0.00    -0.465 OA
BRANCH  33  34
ATOM     34  C   LIG A   1      -8.705   3.216 124.610  0.00  0.00    +0.304 C 
ATOM     35  C   LIG A   1      -8.164   2.985 123.245  0.00  0.00    +0.136 C 
ATOM     36  O   LIG A   1      -8.655   4.292 125.195  0.00  0.00    -0.251 OA
ENDBRANCH  33  34
ENDBRANCH  32  33
ENDBRANCH   1  32
TORSDOF 16
ENDMDL
MODEL 5
REMARK VINA RESULT:      -6.4      3.094      8.589
REMARK  Name = NuBBE_2472
REMARK  22 active torsions:
REMARK  status: ('A' for Active; 'I' for Inactive)
REMARK    1  A    between atoms: C_1  and  O_2
REMARK    2  A    between atoms: O_2  and  C_3
REMARK    3  A    between atoms: C_4  and  O_5
REMARK    4  A    between atoms: O_5  and  C_6
REMARK    5  A    between atoms: C_6  and  C_7
REMARK    6  A    between atoms: C_11  and  C_12
REMARK    7  A    between atoms: C_12  and  C_13
REMARK    8  A    between atoms: C_13  and  C_15
REMARK    9  A    between atoms: C_13  and  C_33
REMARK   10  A    between atoms: C_15  and  C_17
REMARK   11  A    between atoms: C_15  and  C_22
REMARK   12  A    between atoms: C_17  and  O_18
REMARK   13  A    between atoms: O_18  and  C_19
REMARK   14  A    between atoms: C_19  and  C_20
REMARK   15  A    between atoms: C_22  and  C_23
REMARK   16  A    between atoms: C_26  and  O_27
REMARK   17  A    between atoms: O_27  and  C_28
REMARK   18  A    between atoms: C_29  and  O_30
REMARK   19  A    between atoms: O_30  and  C_31
REMARK   20  A    between atoms: C_33  and  O_34
REMARK   21  A    between atoms: O_34  and  C_35
REMARK   22  A    between atoms: C_35  and  C_36
REMARK                            x       y       z     vdW  Elec       q    Type
REMARK                         _______ _______ _______ _____ _____    ______ ____
ROOT
ATOM      1  C   LIG A   1      -7.664  -2.133 131.203  0.00  0.00    +0.038 C 
ENDROOT
BRANCH   1   2
ATOM      2  C   LIG A   1      -7.887  -2.732 129.784  0.00  0.00    +0.042 C 
BRANCH   2   7
ATOM      3  C   LIG A   1      -7.552  -2.263 126.122  0.00  0.00    +0.163 A 
ATOM      4  C   LIG A   1      -6.155  -2.064 125.968  0.00  0.00    +0.173 A 
ATOM      5  C   LIG A   1      -5.317  -2.220 127.081  0.00  0.00    +0.050 A 
ATOM      6  C   LIG A   1      -5.823  -2.572 128.316  0.00  0.00    +0.007 A 
ATOM      7  C   LIG A   1      -7.204  -2.710 128.466  0.00  0.00    -0.043 A 
ATOM      8  C   LIG A   1      -8.020  -2.574 127.390  0.00  0.00    +0.053 A 
BRANCH   3  10
ATOM      9  C   LIG A   1      -8.961  -0.784 124.870  0.00  0.00    +0.277 C 
ATOM     10  O   LIG A   1      -8.480  -2.133 125.116  0.00  0.00    -0.491 OA
ENDBRANCH   3  10
BRANCH   4  11
ATOM     11  O   LIG A   1      -5.566  -1.573 124.766  0.00  0.00    -0.422 OA
BRANCH  11  12
ATOM     12  C   LIG A   1      -5.599  -2.330 123.569  0.00  0.00    +0.309 C 
ATOM     13  C   LIG A   1      -4.796  -3.577 123.716  0.00  0.00    +0.136 C 
ATOM     14  O   LIG A   1      -6.210  -2.087 122.532  0.00  0.00    -0.251 OA
ENDBRANCH  11  12
ENDBRANCH   4  11
ENDBRANCH   2   7
ENDBRANCH   1   2
BRANCH   1  15
ATOM     15  C   LIG A   1      -7.136  -0.545 131.398  0.00  0.00    +0.038 C 
BRANCH  15  16
ATOM     16  C   LIG A   1      -7.964   0.337 132.372  0.00  0.00    +0.236 C 
BRANCH  16  17
ATOM     17  O   LIG A   1      -9.285   0.733 132.021  0.00  0.00    -0.465 OA
BRANCH  17  18
ATOM     18  C   LIG A   1      -9.454   2.006 132.066  0.00  0.00    +0.304 C 
ATOM     19  C   LIG A   1      -9.051   2.746 133.166  0.00  0.00    +0.136 C 
ATOM     20  O   LIG A   1     -10.308   2.566 131.266  0.00  0.00    -0.251 OA
ENDBRANCH  17  18
ENDBRANCH  16  17
ENDBRANCH  15  16
BRANCH  15  21
ATOM     21  C   LIG A   1      -6.370   0.324 130.265  0.00  0.00    +0.042 C 
BRANCH  21  22
ATOM     22  C   LIG A   1      -6.955   0.914 128.950  0.00  0.00    -0.043 A 
ATOM     23  C   LIG A   1      -8.270   0.970 128.628  0.00  0.00    +0.007 A 
ATOM     24  C   LIG A   1      -8.661   1.814 127.570  0.00  0.00    +0.050 A 
ATOM     25  C   LIG A   1      -7.785   2.672 126.832  0.00  0.00    +0.162 A 
ATOM     26  C   LIG A   1      -6.444   2.617 127.105  0.00  0.00    +0.162 A 
ATOM     27  C   LIG A   1      -6.205   1.423 127.890  0.00  0.00    +0.053 A 
BRANCH  25  28
ATOM     28  O   LIG A   1      -8.230   3.517 125.861  0.00  0.00    -0.491 OA
ATOM     29  C   LIG A   1      -8.560   2.875 124.636  0.00  0.00    +0.277 C 
ENDBRANCH  25  28
BRANCH  26  30
ATOM     30  O   LIG A   1      -5.535   3.536 126.468  0.00  0.00    -0.491 OA
ATOM     31  C   LIG A   1      -4.848   4.796 127.007  0.00  0.00    +0.277 C 
ENDBRANCH  26  30
ENDBRANCH  21  22
ENDBRANCH  15  21
ENDBRANCH   1  15
BRANCH   1  32
ATOM     32  C   LIG A   1      -6.812  -3.167 131.965  0.00  0.00    +0.236 C 
BRANCH  32  33
ATOM     33  O   LIG A   1      -5.425  -2.811 131.878  0.00  0.00    -0.465 OA
BRANCH  33  34
ATOM     34  C   LIG A   1      -4.562  -3.790 131.497  0.00  0.00    +0.304 C 
ATOM     35  C   LIG A   1      -5.330  -5.042 131.271  0.00  0.00    +0.136 C 
ATOM     36  O   LIG A   1      -3.392  -3.632 131.165  0.00  0.00    -0.251 OA
ENDBRANCH  33  34
ENDBRANCH  32  33
ENDBRANCH   1  32
TORSDOF 16
ENDMDL
MODEL 6
REMARK VINA RESULT:      -6.4      3.708      7.436
REMARK  Name = NuBBE_2472
REMARK  22 active torsions:
REMARK  status: ('A' for Active; 'I' for Inactive)
REMARK    1  A    between atoms: C_1  and  O_2
REMARK    2  A    between atoms: O_2  and  C_3
REMARK    3  A    between atoms: C_4  and  O_5
REMARK    4  A    between atoms: O_5  and  C_6
REMARK    5  A    between atoms: C_6  and  C_7
REMARK    6  A    between atoms: C_11  and  C_12
REMARK    7  A    between atoms: C_12  and  C_13
REMARK    8  A    between atoms: C_13  and  C_15
REMARK    9  A    between atoms: C_13  and  C_33
REMARK   10  A    between atoms: C_15  and  C_17
REMARK   11  A    between atoms: C_15  and  C_22
REMARK   12  A    between atoms: C_17  and  O_18
REMARK   13  A    between atoms: O_18  and  C_19
REMARK   14  A    between atoms: C_19  and  C_20
REMARK   15  A    between atoms: C_22  and  C_23
REMARK   16  A    between atoms: C_26  and  O_27
REMARK   17  A    between atoms: O_27  and  C_28
REMARK   18  A    between atoms: C_29  and  O_30
REMARK   19  A    between atoms: O_30  and  C_31
REMARK   20  A    between atoms: C_33  and  O_34
REMARK   21  A    between atoms: O_34  and  C_35
REMARK   22  A    between atoms: C_35  and  C_36
REMARK                            x       y       z     vdW  Elec       q    Type
REMARK                         _______ _______ _______ _____ _____    ______ ____
ROOT
ATOM      1  C   LIG A   1      -7.284  -1.027 130.883  0.00  0.00    +0.038 C 
ENDROOT
BRANCH   1   2
ATOM      2  C   LIG A   1      -8.543  -0.153 131.151  0.00  0.00    +0.042 C 
BRANCH   2   7
ATOM      3  C   LIG A   1      -9.185   3.219 132.553  0.00  0.00    +0.163 A 
ATOM      4  C   LIG A   1      -9.006   4.057 131.422  0.00  0.00    +0.173 A 
ATOM      5  C   LIG A   1      -8.799   3.472 130.165  0.00  0.00    +0.050 A 
ATOM      6  C   LIG A   1      -8.778   2.101 130.008  0.00  0.00    +0.007 A 
ATOM      7  C   LIG A   1      -8.899   1.288 131.136  0.00  0.00    -0.043 A 
ATOM      8  C   LIG A   1      -9.114   1.848 132.354  0.00  0.00    +0.053 A 
BRANCH   3  10
ATOM      9  C   LIG A   1      -8.204   4.142 134.534  0.00  0.00    +0.277 C 
ATOM     10  O   LIG A   1      -9.387   3.665 133.838  0.00  0.00    -0.491 OA
ENDBRANCH   3  10
BRANCH   4  11
ATOM     11  O   LIG A   1      -8.883   5.475 131.514  0.00  0.00    -0.422 OA
BRANCH  11  12
ATOM     12  C   LIG A   1     -10.026   6.309 131.568  0.00  0.00    +0.309 C 
ATOM     13  C   LIG A   1     -10.262   6.962 130.249  0.00  0.00    +0.136 C 
ATOM     14  O   LIG A   1     -10.792   6.490 132.512  0.00  0.00    -0.251 OA
ENDBRANCH  11  12
ENDBRANCH   4  11
ENDBRANCH   2   7
ENDBRANCH   1   2
BRANCH   1  15
ATOM     15  C   LIG A   1      -7.408  -2.702 130.748  0.00  0.00    +0.038 C 
BRANCH  15  16
ATOM     16  C   LIG A   1      -6.283  -3.529 131.429  0.00  0.00    +0.236 C 
BRANCH  16  17
ATOM     17  O   LIG A   1      -5.401  -4.315 130.636  0.00  0.00    -0.465 OA
BRANCH  17  18
ATOM     18  C   LIG A   1      -4.376  -3.655 130.227  0.00  0.00    +0.304 C 
ATOM     19  C   LIG A   1      -4.235  -3.300 128.896  0.00  0.00    +0.136 C 
ATOM     20  O   LIG A   1      -3.304  -3.624 130.957  0.00  0.00    -0.251 OA
ENDBRANCH  17  18
ENDBRANCH  16  17
ENDBRANCH  15  16
BRANCH  15  21
ATOM     21  C   LIG A   1      -8.094  -3.485 129.506  0.00  0.00    +0.042 C 
BRANCH  21  22
ATOM     22  C   LIG A   1      -8.280  -2.988 128.044  0.00  0.00    -0.043 A 
ATOM     23  C   LIG A   1      -9.039  -3.591 127.097  0.00  0.00    +0.007 A 
ATOM     24  C   LIG A   1      -9.366  -2.859 125.939  0.00  0.00    +0.050 A 
ATOM     25  C   LIG A   1      -9.007  -1.495 125.698  0.00  0.00    +0.162 A 
ATOM     26  C   LIG A   1      -8.210  -0.863 126.615  0.00  0.00    +0.162 A 
ATOM     27  C   LIG A   1      -7.648  -1.879 127.481  0.00  0.00    +0.053 A 
BRANCH  25  28
ATOM     28  O   LIG A   1      -9.407  -0.815 124.588  0.00  0.00    -0.491 OA
ATOM     29  C   LIG A   1      -8.760  -1.223 123.389  0.00  0.00    +0.277 C 
ENDBRANCH  25  28
BRANCH  26  30
ATOM     30  O   LIG A   1      -7.911   0.540 126.473  0.00  0.00    -0.491 OA
ATOM     31  C   LIG A   1      -6.780   1.249 125.719  0.00  0.00    +0.277 C 
ENDBRANCH  26  30
ENDBRANCH  21  22
ENDBRANCH  15  21
ENDBRANCH   1  15
BRANCH   1  32
ATOM     32  C   LIG A   1      -6.228  -0.565 131.907  0.00  0.00    +0.236 C 
BRANCH  32  33
ATOM     33  O   LIG A   1      -5.570   0.616 131.425  0.00  0.00    -0.465 OA
BRANCH  33  34
ATOM     34  C   LIG A   1      -4.753   0.468 130.348  0.00  0.00    +0.304 C 
ATOM     35  C   LIG A   1      -5.166   1.437 129.299  0.00  0.00    +0.136 C 
ATOM     36  O   LIG A   1      -3.712  -0.178 130.315  0.00  0.00    -0.251 OA
ENDBRANCH  33  34
ENDBRANCH  32  33
ENDBRANCH   1  32
TORSDOF 16
ENDMDL
MODEL 7
REMARK VINA RESULT:      -6.3      2.731      7.077
REMARK  Name = NuBBE_2472
REMARK  22 active torsions:
REMARK  status: ('A' for Active; 'I' for Inactive)
REMARK    1  A    between atoms: C_1  and  O_2
REMARK    2  A    between atoms: O_2  and  C_3
REMARK    3  A    between atoms: C_4  and  O_5
REMARK    4  A    between atoms: O_5  and  C_6
REMARK    5  A    between atoms: C_6  and  C_7
REMARK    6  A    between atoms: C_11  and  C_12
REMARK    7  A    between atoms: C_12  and  C_13
REMARK    8  A    between atoms: C_13  and  C_15
REMARK    9  A    between atoms: C_13  and  C_33
REMARK   10  A    between atoms: C_15  and  C_17
REMARK   11  A    between atoms: C_15  and  C_22
REMARK   12  A    between atoms: C_17  and  O_18
REMARK   13  A    between atoms: O_18  and  C_19
REMARK   14  A    between atoms: C_19  and  C_20
REMARK   15  A    between atoms: C_22  and  C_23
REMARK   16  A    between atoms: C_26  and  O_27
REMARK   17  A    between atoms: O_27  and  C_28
REMARK   18  A    between atoms: C_29  and  O_30
REMARK   19  A    between atoms: O_30  and  C_31
REMARK   20  A    between atoms: C_33  and  O_34
REMARK   21  A    between atoms: O_34  and  C_35
REMARK   22  A    between atoms: C_35  and  C_36
REMARK                            x       y       z     vdW  Elec       q    Type
REMARK                         _______ _______ _______ _____ _____    ______ ____
ROOT
ATOM      1  C   LIG A   1      -7.332  -0.459 130.623  0.00  0.00    +0.038 C 
ENDROOT
BRANCH   1   2
ATOM      2  C   LIG A   1      -7.995   0.555 129.646  0.00  0.00    +0.042 C 
BRANCH   2   7
ATOM      3  C   LIG A   1      -5.930   1.621 126.757  0.00  0.00    +0.163 A 
ATOM      4  C   LIG A   1      -6.878   1.649 125.701  0.00  0.00    +0.173 A 
ATOM      5  C   LIG A   1      -8.232   1.436 125.993  0.00  0.00    +0.050 A 
ATOM      6  C   LIG A   1      -8.659   1.211 127.286  0.00  0.00    +0.007 A 
ATOM      7  C   LIG A   1      -7.711   1.132 128.308  0.00  0.00    -0.043 A 
ATOM      8  C   LIG A   1      -6.400   1.351 128.034  0.00  0.00    +0.053 A 
BRANCH   3  10
ATOM      9  C   LIG A   1      -4.120   3.186 126.639  0.00  0.00    +0.277 C 
ATOM     10  O   LIG A   1      -4.577   1.806 126.604  0.00  0.00    -0.491 OA
ENDBRANCH   3  10
BRANCH   4  11
ATOM     11  O   LIG A   1      -6.509   1.743 124.326  0.00  0.00    -0.422 OA
BRANCH  11  12
ATOM     12  C   LIG A   1      -6.487   2.989 123.655  0.00  0.00    +0.309 C 
ATOM     13  C   LIG A   1      -6.565   2.793 122.180  0.00  0.00    +0.136 C 
ATOM     14  O   LIG A   1      -6.454   4.116 124.145  0.00  0.00    -0.251 OA
ENDBRANCH  11  12
ENDBRANCH   4  11
ENDBRANCH   2   7
ENDBRANCH   1   2
BRANCH   1  15
ATOM     15  C   LIG A   1      -7.617  -2.114 130.475  0.00  0.00    +0.038 C 
BRANCH  15  16
ATOM     16  C   LIG A   1      -6.855  -3.031 131.470  0.00  0.00    +0.236 C 
BRANCH  16  17
ATOM     17  O   LIG A   1      -5.433  -3.079 131.444  0.00  0.00    -0.465 OA
BRANCH  17  18
ATOM     18  C   LIG A   1      -4.979  -4.024 130.702  0.00  0.00    +0.304 C 
ATOM     19  C   LIG A   1      -4.076  -3.767 129.682  0.00  0.00    +0.136 C 
ATOM     20  O   LIG A   1      -5.612  -5.156 130.649  0.00  0.00    -0.251 OA
ENDBRANCH  17  18
ENDBRANCH  16  17
ENDBRANCH  15  16
BRANCH  15  21
ATOM     21  C   LIG A   1      -7.998  -2.871 129.094  0.00  0.00    +0.042 C 
BRANCH  21  22
ATOM     22  C   LIG A   1      -7.504  -2.547 127.656  0.00  0.00    -0.043 A 
ATOM     23  C   LIG A   1      -6.267  -2.101 127.328  0.00  0.00    +0.007 A 
ATOM     24  C   LIG A   1      -5.871  -2.165 125.978  0.00  0.00    +0.050 A 
ATOM     25  C   LIG A   1      -6.652  -2.721 124.915  0.00  0.00    +0.162 A 
ATOM     26  C   LIG A   1      -7.921  -3.150 125.200  0.00  0.00    +0.162 A 
ATOM     27  C   LIG A   1      -8.282  -2.620 126.499  0.00  0.00    +0.053 A 
BRANCH  25  28
ATOM     28  O   LIG A   1      -6.192  -2.817 123.637  0.00  0.00    -0.491 OA
ATOM     29  C   LIG A   1      -6.341  -1.628 122.872  0.00  0.00    +0.277 C 
ENDBRANCH  25  28
BRANCH  26  30
ATOM     30  O   LIG A   1      -8.706  -3.816 124.191  0.00  0.00    -0.491 OA
ATOM     31  C   LIG A   1      -9.726  -3.260 123.191  0.00  0.00    +0.277 C 
ENDBRANCH  26  30
ENDBRANCH  21  22
ENDBRANCH  15  21
ENDBRANCH   1  15
BRANCH   1  32
ATOM     32  C   LIG A   1      -7.595   0.090 132.039  0.00  0.00    +0.236 C 
BRANCH  32  33
ATOM     33  O   LIG A   1      -7.491   1.521 132.030  0.00  0.00    -0.465 OA
BRANCH  33  34
ATOM     34  C   LIG A   1      -8.340   2.204 132.843  0.00  0.00    +0.304 C 
ATOM     35  C   LIG A   1      -9.731   2.001 132.360  0.00  0.00    +0.136 C 
ATOM     36  O   LIG A   1      -8.056   2.710 133.923  0.00  0.00    -0.251 OA
ENDBRANCH  33  34
ENDBRANCH  32  33
ENDBRANCH   1  32
TORSDOF 16
ENDMDL
MODEL 8
REMARK VINA RESULT:      -6.3      2.689      5.547
REMARK  Name = NuBBE_2472
REMARK  22 active torsions:
REMARK  status: ('A' for Active; 'I' for Inactive)
REMARK    1  A    between atoms: C_1  and  O_2
REMARK    2  A    between atoms: O_2  and  C_3
REMARK    3  A    between atoms: C_4  and  O_5
REMARK    4  A    between atoms: O_5  and  C_6
REMARK    5  A    between atoms: C_6  and  C_7
REMARK    6  A    between atoms: C_11  and  C_12
REMARK    7  A    between atoms: C_12  and  C_13
REMARK    8  A    between atoms: C_13  and  C_15
REMARK    9  A    between atoms: C_13  and  C_33
REMARK   10  A    between atoms: C_15  and  C_17
REMARK   11  A    between atoms: C_15  and  C_22
REMARK   12  A    between atoms: C_17  and  O_18
REMARK   13  A    between atoms: O_18  and  C_19
REMARK   14  A    between atoms: C_19  and  C_20
REMARK   15  A    between atoms: C_22  and  C_23
REMARK   16  A    between atoms: C_26  and  O_27
REMARK   17  A    between atoms: O_27  and  C_28
REMARK   18  A    between atoms: C_29  and  O_30
REMARK   19  A    between atoms: O_30  and  C_31
REMARK   20  A    between atoms: C_33  and  O_34
REMARK   21  A    between atoms: O_34  and  C_35
REMARK   22  A    between atoms: C_35  and  C_36
REMARK                            x       y       z     vdW  Elec       q    Type
REMARK                         _______ _______ _______ _____ _____    ______ ____
ROOT
ATOM      1  C   LIG A   1      -5.837   0.133 125.442  0.00  0.00    +0.038 C 
ENDROOT
BRANCH   1   2
ATOM      2  C   LIG A   1      -4.775   0.906 126.277  0.00  0.00    +0.042 C 
BRANCH   2   7
ATOM      3  C   LIG A   1      -5.364   4.558 126.523  0.00  0.00    +0.163 A 
ATOM      4  C   LIG A   1      -4.550   4.923 127.627  0.00  0.00    +0.173 A 
ATOM      5  C   LIG A   1      -3.706   3.962 128.200  0.00  0.00    +0.050 A 
ATOM      6  C   LIG A   1      -3.646   2.675 127.705  0.00  0.00    +0.007 A 
ATOM      7  C   LIG A   1      -4.491   2.314 126.655  0.00  0.00    -0.043 A 
ATOM      8  C   LIG A   1      -5.300   3.244 126.086  0.00  0.00    +0.053 A 
BRANCH   3  10
ATOM      9  C   LIG A   1      -7.478   4.798 125.423  0.00  0.00    +0.277 C 
ATOM     10  O   LIG A   1      -6.237   5.402 125.878  0.00  0.00    -0.491 OA
ENDBRANCH   3  10
BRANCH   4  11
ATOM     11  O   LIG A   1      -4.646   6.187 128.282  0.00  0.00    -0.422 OA
BRANCH  11  12
ATOM     12  C   LIG A   1      -3.495   6.971 128.538  0.00  0.00    +0.309 C 
ATOM     13  C   LIG A   1      -3.706   7.839 129.730  0.00  0.00    +0.136 C 
ATOM     14  O   LIG A   1      -2.422   6.965 127.938  0.00  0.00    -0.251 OA
ENDBRANCH  11  12
ENDBRANCH   4  11
ENDBRANCH   2   7
ENDBRANCH   1   2
BRANCH   1  15
ATOM     15  C   LIG A   1      -7.480   0.280 125.784  0.00  0.00    +0.038 C 
BRANCH  15  16
ATOM     16  C   LIG A   1      -8.329   1.061 124.745  0.00  0.00    +0.236 C 
BRANCH  16  17
ATOM     17  O   LIG A   1      -8.514   0.530 123.437  0.00  0.00    -0.465 OA
BRANCH  17  18
ATOM     18  C   LIG A   1      -9.747   0.517 123.074  0.00  0.00    +0.304 C 
ATOM     19  C   LIG A   1     -10.680   1.352 123.667  0.00  0.00    +0.136 C 
ATOM     20  O   LIG A   1     -10.209  -0.502 122.418  0.00  0.00    -0.251 OA
ENDBRANCH  17  18
ENDBRANCH  16  17
ENDBRANCH  15  16
BRANCH  15  21
ATOM     21  C   LIG A   1      -8.118   0.326 127.273  0.00  0.00    +0.042 C 
BRANCH  21  22
ATOM     22  C   LIG A   1      -7.784   1.310 128.430  0.00  0.00    -0.043 A 
ATOM     23  C   LIG A   1      -6.815   1.134 129.361  0.00  0.00    +0.007 A 
ATOM     24  C   LIG A   1      -6.422   2.244 130.132  0.00  0.00    +0.050 A 
ATOM     25  C   LIG A   1      -6.923   3.576 129.977  0.00  0.00    +0.162 A 
ATOM     26  C   LIG A   1      -7.928   3.787 129.071  0.00  0.00    +0.162 A 
ATOM     27  C   LIG A   1      -8.469   2.493 128.706  0.00  0.00    +0.053 A 
BRANCH  25  28
ATOM     28  O   LIG A   1      -6.458   4.626 130.708  0.00  0.00    -0.491 OA
ATOM     29  C   LIG A   1      -5.290   4.338 131.466  0.00  0.00    +0.277 C 
ENDBRANCH  25  28
BRANCH  26  30
ATOM     30  O   LIG A   1      -8.391   5.125 128.799  0.00  0.00    -0.491 OA
ATOM     31  C   LIG A   1      -9.574   5.909 129.378  0.00  0.00    +0.277 C 
ENDBRANCH  26  30
ENDBRANCH  21  22
ENDBRANCH  15  21
ENDBRANCH   1  15
BRANCH   1  32
ATOM     32  C   LIG A   1      -5.343  -1.326 125.386  0.00  0.00    +0.236 C 
BRANCH  32  33
ATOM     33  O   LIG A   1      -5.567  -1.863 124.074  0.00  0.00    -0.465 OA
BRANCH  33  34
ATOM     34  C   LIG A   1      -5.862  -3.188 123.995  0.00  0.00    +0.304 C 
ATOM     35  C   LIG A   1      -4.609  -3.942 123.735  0.00  0.00    +0.136 C 
ATOM     36  O   LIG A   1      -6.925  -3.711 124.311  0.00  0.00    -0.251 OA
ENDBRANCH  33  34
ENDBRANCH  32  33
ENDBRANCH   1  32
TORSDOF 16
ENDMDL
MODEL 9
REMARK VINA RESULT:      -6.3      4.584      7.538
REMARK  Name = NuBBE_2472
REMARK  22 active torsions:
REMARK  status: ('A' for Active; 'I' for Inactive)
REMARK    1  A    between atoms: C_1  and  O_2
REMARK    2  A    between atoms: O_2  and  C_3
REMARK    3  A    between atoms: C_4  and  O_5
REMARK    4  A    between atoms: O_5  and  C_6
REMARK    5  A    between atoms: C_6  and  C_7
REMARK    6  A    between atoms: C_11  and  C_12
REMARK    7  A    between atoms: C_12  and  C_13
REMARK    8  A    between atoms: C_13  and  C_15
REMARK    9  A    between atoms: C_13  and  C_33
REMARK   10  A    between atoms: C_15  and  C_17
REMARK   11  A    between atoms: C_15  and  C_22
REMARK   12  A    between atoms: C_17  and  O_18
REMARK   13  A    between atoms: O_18  and  C_19
REMARK   14  A    between atoms: C_19  and  C_20
REMARK   15  A    between atoms: C_22  and  C_23
REMARK   16  A    between atoms: C_26  and  O_27
REMARK   17  A    between atoms: O_27  and  C_28
REMARK   18  A    between atoms: C_29  and  O_30
REMARK   19  A    between atoms: O_30  and  C_31
REMARK   20  A    between atoms: C_33  and  O_34
REMARK   21  A    between atoms: O_34  and  C_35
REMARK   22  A    between atoms: C_35  and  C_36
REMARK                            x       y       z     vdW  Elec       q    Type
REMARK                         _______ _______ _______ _____ _____    ______ ____
ROOT
ATOM      1  C   LIG A   1      -9.114   5.233 130.730  0.00  0.00    +0.038 C 
ENDROOT
BRANCH   1   2
ATOM      2  C   LIG A   1      -8.246   6.331 131.409  0.00  0.00    +0.042 C 
BRANCH   2   7
ATOM      3  C   LIG A   1      -4.718   6.091 132.524  0.00  0.00    +0.163 A 
ATOM      4  C   LIG A   1      -4.025   6.766 131.485  0.00  0.00    +0.173 A 
ATOM      5  C   LIG A   1      -4.760   7.411 130.482  0.00  0.00    +0.050 A 
ATOM      6  C   LIG A   1      -6.140   7.412 130.492  0.00  0.00    +0.007 A 
ATOM      7  C   LIG A   1      -6.810   6.699 131.488  0.00  0.00    -0.043 A 
ATOM      8  C   LIG A   1      -6.104   6.083 132.471  0.00  0.00    +0.053 A 
BRANCH   3  10
ATOM      9  C   LIG A   1      -4.163   6.072 134.855  0.00  0.00    +0.277 C 
ATOM     10  O   LIG A   1      -4.117   5.415 133.559  0.00  0.00    -0.491 OA
ENDBRANCH   3  10
BRANCH   4  11
ATOM     11  O   LIG A   1      -2.609   6.704 131.326  0.00  0.00    -0.422 OA
BRANCH  11  12
ATOM     12  C   LIG A   1      -1.737   7.320 132.257  0.00  0.00    +0.309 C 
ATOM     13  C   LIG A   1      -0.710   6.351 132.733  0.00  0.00    +0.136 C 
ATOM     14  O   LIG A   1      -1.734   8.488 132.638  0.00  0.00    -0.251 OA
ENDBRANCH  11  12
ENDBRANCH   4  11
ENDBRANCH   2   7
ENDBRANCH   1   2
BRANCH   1  15
ATOM     15  C   LIG A   1      -8.697   3.605 130.848  0.00  0.00    +0.038 C 
BRANCH  15  16
ATOM     16  C   LIG A   1      -8.947   2.933 132.226  0.00  0.00    +0.236 C 
BRANCH  16  17
ATOM     17  O   LIG A   1      -7.846   2.455 132.992  0.00  0.00    -0.465 OA
BRANCH  17  18
ATOM     18  C   LIG A   1      -7.627   3.160 134.044  0.00  0.00    +0.304 C 
ATOM     19  C   LIG A   1      -8.507   4.155 134.438  0.00  0.00    +0.136 C 
ATOM     20  O   LIG A   1      -6.431   3.205 134.545  0.00  0.00    -0.251 OA
ENDBRANCH  17  18
ENDBRANCH  16  17
ENDBRANCH  15  16
BRANCH  15  21
ATOM     21  C   LIG A   1      -7.513   2.886 130.008  0.00  0.00    +0.042 C 
BRANCH  21  22
ATOM     22  C   LIG A   1      -6.162   3.497 129.540  0.00  0.00    -0.043 A 
ATOM     23  C   LIG A   1      -4.966   3.335 130.158  0.00  0.00    +0.007 A 
ATOM     24  C   LIG A   1      -3.798   3.671 129.448  0.00  0.00    +0.050 A 
ATOM     25  C   LIG A   1      -3.758   4.122 128.090  0.00  0.00    +0.162 A 
ATOM     26  C   LIG A   1      -4.947   4.332 127.444  0.00  0.00    +0.162 A 
ATOM     27  C   LIG A   1      -5.995   4.345 128.444  0.00  0.00    +0.053 A 
BRANCH  25  28
ATOM     28  O   LIG A   1      -2.593   4.370 127.432  0.00  0.00    -0.491 OA
ATOM     29  C   LIG A   1      -1.939   3.206 126.943  0.00  0.00    +0.277 C 
ENDBRANCH  25  28
BRANCH  26  30
ATOM     30  O   LIG A   1      -4.962   4.680 126.045  0.00  0.00    -0.491 OA
ATOM     31  C   LIG A   1      -6.114   5.125 125.138  0.00  0.00    +0.277 C 
ENDBRANCH  26  30
ENDBRANCH  21  22
ENDBRANCH  15  21
ENDBRANCH   1  15
BRANCH   1  32
ATOM     32  C   LIG A   1      -9.336   5.712 129.281  0.00  0.00    +0.236 C 
BRANCH  32  33
ATOM     33  O   LIG A   1     -10.672   6.217 129.137  0.00  0.00    -0.465 OA
BRANCH  33  34
ATOM     34  C   LIG A   1     -10.805   7.558 128.955  0.00  0.00    +0.304 C 
ATOM     35  C   LIG A   1     -12.023   8.019 129.669  0.00  0.00    +0.136 C 
ATOM     36  O   LIG A   1      -9.958   8.310 128.486  0.00  0.00    -0.251 OA
ENDBRANCH  33  34
ENDBRANCH  32  33
ENDBRANCH   1  32
TORSDOF 16
ENDMDL
