MODEL 1
REMARK VINA RESULT:      -5.9      0.000      0.000
REMARK  Name = NuBBE_308
REMARK  15 active torsions:
REMARK  status: ('A' for Active; 'I' for Inactive)
REMARK    1  A    between atoms: C_3  and  C_4
REMARK    2  A    between atoms: C_5  and  O_6
REMARK    3  A    between atoms: C_9  and  C_10
REMARK    4  A    between atoms: C_10  and  C_11
REMARK    5  A    between atoms: C_11  and  C_12
REMARK    6  A    between atoms: C_12  and  C_13
REMARK    7  A    between atoms: C_13  and  C_14
REMARK    8  A    between atoms: C_14  and  C_15
REMARK    9  A    between atoms: C_15  and  C_16
REMARK   10  A    between atoms: C_16  and  C_17
REMARK   11  A    between atoms: C_17  and  C_18
REMARK   12  A    between atoms: C_18  and  C_19
REMARK   13  A    between atoms: C_19  and  C_20
REMARK   14  A    between atoms: C_20  and  O_21
REMARK   15  A    between atoms: C_20  and  C_22
REMARK                            x       y       z     vdW  Elec       q    Type
REMARK                         _______ _______ _______ _____ _____    ______ ____
ROOT
ATOM      1  C   LIG A   1      -7.825  -1.774 128.536  0.00  0.00    +0.002 C 
ENDROOT
BRANCH   1   2
ATOM      2  C   LIG A   1      -6.813  -1.012 129.441  0.00  0.00    +0.019 C 
BRANCH   2  10
ATOM      3  H   LIG A   1      -3.711  -1.276 128.051  0.00  0.00    +0.122 HD
ATOM      4  N   LIG A   1      -4.480  -1.681 128.584  0.00  0.00    -0.308 NA
ATOM      5  C   LIG A   1      -3.943  -2.532 129.645  0.00  0.00    +0.079 C 
ATOM      6  C   LIG A   1      -3.240  -3.771 129.090  0.00  0.00    +0.026 C 
ATOM      7  C   LIG A   1      -3.202  -1.760 130.781  0.00  0.00    +0.131 C 
ATOM      8  C   LIG A   1      -4.052  -0.583 131.295  0.00  0.00    +0.034 C 
ATOM      9  C   LIG A   1      -4.597   0.246 130.145  0.00  0.00    +0.021 C 
ATOM     10  C   LIG A   1      -5.340  -0.605 129.108  0.00  0.00    +0.054 C 
BRANCH   7  11
ATOM     11  O   LIG A   1      -2.932  -2.621 131.904  0.00  0.00    -0.390 OA
ATOM     12  H   LIG A   1      -1.995  -2.695 132.013  0.00  0.00    +0.210 HD
ENDBRANCH   7  11
ENDBRANCH   2  10
ENDBRANCH   1   2
BRANCH   1  13
ATOM     13  C   LIG A   1      -8.040  -3.285 128.685  0.00  0.00    +0.000 C 
BRANCH  13  14
ATOM     14  C   LIG A   1      -8.913  -3.955 127.609  0.00  0.00    -0.000 C 
BRANCH  14  15
ATOM     15  C   LIG A   1      -9.146  -3.135 126.303  0.00  0.00    -0.000 C 
BRANCH  15  16
ATOM     16  C   LIG A   1      -8.615  -3.731 124.982  0.00  0.00    -0.000 C 
BRANCH  16  17
ATOM     17  C   LIG A   1      -9.436  -3.326 123.705  0.00  0.00    -0.000 C 
BRANCH  17  18
ATOM     18  C   LIG A   1      -8.840  -2.074 123.003  0.00  0.00    +0.000 C 
BRANCH  18  19
ATOM     19  C   LIG A   1      -7.300  -1.943 122.776  0.00  0.00    +0.002 C 
BRANCH  19  20
ATOM     20  C   LIG A   1      -6.415  -1.212 123.805  0.00  0.00    +0.031 C 
BRANCH  20  21
ATOM     21  C   LIG A   1      -5.299  -2.095 124.448  0.00  0.00    +0.111 C 
ATOM     22  C   LIG A   1      -5.046  -3.500 123.888  0.00  0.00    +0.037 C 
BRANCH  21  23
ATOM     23  O   LIG A   1      -5.589  -2.239 125.845  0.00  0.00    -0.392 OA
ATOM     24  H   LIG A   1      -5.600  -3.187 126.060  0.00  0.00    +0.210 HD
ENDBRANCH  21  23
ENDBRANCH  20  21
ENDBRANCH  19  20
ENDBRANCH  18  19
ENDBRANCH  17  18
ENDBRANCH  16  17
ENDBRANCH  15  16
ENDBRANCH  14  15
ENDBRANCH  13  14
ENDBRANCH   1  13
TORSDOF 13
ENDMDL
MODEL 2
REMARK VINA RESULT:      -5.8      1.605      2.305
REMARK  Name = NuBBE_308
REMARK  15 active torsions:
REMARK  status: ('A' for Active; 'I' for Inactive)
REMARK    1  A    between atoms: C_3  and  C_4
REMARK    2  A    between atoms: C_5  and  O_6
REMARK    3  A    between atoms: C_9  and  C_10
REMARK    4  A    between atoms: C_10  and  C_11
REMARK    5  A    between atoms: C_11  and  C_12
REMARK    6  A    between atoms: C_12  and  C_13
REMARK    7  A    between atoms: C_13  and  C_14
REMARK    8  A    between atoms: C_14  and  C_15
REMARK    9  A    between atoms: C_15  and  C_16
REMARK   10  A    between atoms: C_16  and  C_17
REMARK   11  A    between atoms: C_17  and  C_18
REMARK   12  A    between atoms: C_18  and  C_19
REMARK   13  A    between atoms: C_19  and  C_20
REMARK   14  A    between atoms: C_20  and  O_21
REMARK   15  A    between atoms: C_20  and  C_22
REMARK                            x       y       z     vdW  Elec       q    Type
REMARK                         _______ _______ _______ _____ _____    ______ ____
ROOT
ATOM      1  C   LIG A   1      -7.675  -3.035 128.909  0.00  0.00    +0.002 C 
ENDROOT
BRANCH   1   2
ATOM      2  C   LIG A   1      -7.395  -2.795 130.421  0.00  0.00    +0.019 C 
BRANCH   2  10
ATOM      3  H   LIG A   1      -5.127  -3.065 132.952  0.00  0.00    +0.122 HD
ATOM      4  N   LIG A   1      -5.511  -2.553 132.159  0.00  0.00    -0.308 NA
ATOM      5  C   LIG A   1      -4.426  -1.912 131.419  0.00  0.00    +0.079 C 
ATOM      6  C   LIG A   1      -3.751  -0.804 132.229  0.00  0.00    +0.026 C 
ATOM      7  C   LIG A   1      -3.480  -2.902 130.670  0.00  0.00    +0.131 C 
ATOM      8  C   LIG A   1      -4.288  -3.917 129.840  0.00  0.00    +0.034 C 
ATOM      9  C   LIG A   1      -5.412  -4.528 130.658  0.00  0.00    +0.021 C 
ATOM     10  C   LIG A   1      -6.303  -3.468 131.317  0.00  0.00    +0.054 C 
BRANCH   7  11
ATOM     11  O   LIG A   1      -2.606  -2.202 129.766  0.00  0.00    -0.390 OA
ATOM     12  H   LIG A   1      -2.905  -1.308 129.682  0.00  0.00    +0.210 HD
ENDBRANCH   7  11
ENDBRANCH   2  10
ENDBRANCH   1   2
BRANCH   1  13
ATOM     13  C   LIG A   1      -8.915  -3.806 128.445  0.00  0.00    +0.000 C 
BRANCH  13  14
ATOM     14  C   LIG A   1      -9.351  -3.576 126.986  0.00  0.00    -0.000 C 
BRANCH  14  15
ATOM     15  C   LIG A   1      -8.217  -3.218 125.978  0.00  0.00    -0.000 C 
BRANCH  15  16
ATOM     16  C   LIG A   1      -8.278  -3.861 124.576  0.00  0.00    -0.000 C 
BRANCH  16  17
ATOM     17  C   LIG A   1      -9.271  -3.163 123.579  0.00  0.00    -0.000 C 
BRANCH  17  18
ATOM     18  C   LIG A   1      -8.563  -2.089 122.707  0.00  0.00    +0.000 C 
BRANCH  18  19
ATOM     19  C   LIG A   1      -7.117  -1.608 123.052  0.00  0.00    +0.002 C 
BRANCH  19  20
ATOM     20  C   LIG A   1      -5.889  -2.310 122.439  0.00  0.00    +0.031 C 
BRANCH  20  21
ATOM     21  C   LIG A   1      -4.834  -2.802 123.480  0.00  0.00    +0.111 C 
ATOM     22  C   LIG A   1      -4.703  -4.305 123.755  0.00  0.00    +0.037 C 
BRANCH  21  23
ATOM     23  O   LIG A   1      -5.108  -2.162 124.733  0.00  0.00    -0.392 OA
ATOM     24  H   LIG A   1      -4.510  -1.400 124.826  0.00  0.00    +0.210 HD
ENDBRANCH  21  23
ENDBRANCH  20  21
ENDBRANCH  19  20
ENDBRANCH  18  19
ENDBRANCH  17  18
ENDBRANCH  16  17
ENDBRANCH  15  16
ENDBRANCH  14  15
ENDBRANCH  13  14
ENDBRANCH   1  13
TORSDOF 13
ENDMDL
MODEL 3
REMARK VINA RESULT:      -5.6      3.098      6.101
REMARK  Name = NuBBE_308
REMARK  15 active torsions:
REMARK  status: ('A' for Active; 'I' for Inactive)
REMARK    1  A    between atoms: C_3  and  C_4
REMARK    2  A    between atoms: C_5  and  O_6
REMARK    3  A    between atoms: C_9  and  C_10
REMARK    4  A    between atoms: C_10  and  C_11
REMARK    5  A    between atoms: C_11  and  C_12
REMARK    6  A    between atoms: C_12  and  C_13
REMARK    7  A    between atoms: C_13  and  C_14
REMARK    8  A    between atoms: C_14  and  C_15
REMARK    9  A    between atoms: C_15  and  C_16
REMARK   10  A    between atoms: C_16  and  C_17
REMARK   11  A    between atoms: C_17  and  C_18
REMARK   12  A    between atoms: C_18  and  C_19
REMARK   13  A    between atoms: C_19  and  C_20
REMARK   14  A    between atoms: C_20  and  O_21
REMARK   15  A    between atoms: C_20  and  C_22
REMARK                            x       y       z     vdW  Elec       q    Type
REMARK                         _______ _______ _______ _____ _____    ______ ____
ROOT
ATOM      1  C   LIG A   1      -8.622  -3.926 127.557  0.00  0.00    +0.002 C 
ENDROOT
BRANCH   1   2
ATOM      2  C   LIG A   1      -8.771  -3.163 126.209  0.00  0.00    +0.019 C 
BRANCH   2  10
ATOM      3  H   LIG A   1      -7.229  -4.730 123.603  0.00  0.00    +0.122 HD
ATOM      4  N   LIG A   1      -7.216  -4.042 124.355  0.00  0.00    -0.308 NA
ATOM      5  C   LIG A   1      -6.476  -2.858 123.922  0.00  0.00    +0.079 C 
ATOM      6  C   LIG A   1      -4.989  -3.150 123.718  0.00  0.00    +0.026 C 
ATOM      7  C   LIG A   1      -7.182  -2.027 122.806  0.00  0.00    +0.131 C 
ATOM      8  C   LIG A   1      -8.651  -1.745 123.172  0.00  0.00    +0.034 C 
ATOM      9  C   LIG A   1      -9.355  -3.008 123.635  0.00  0.00    +0.021 C 
ATOM     10  C   LIG A   1      -8.598  -3.725 124.759  0.00  0.00    +0.054 C 
BRANCH   7  11
ATOM     11  O   LIG A   1      -6.532  -0.756 122.615  0.00  0.00    -0.390 OA
ATOM     12  H   LIG A   1      -7.123  -0.068 122.887  0.00  0.00    +0.210 HD
ENDBRANCH   7  11
ENDBRANCH   2  10
ENDBRANCH   1   2
BRANCH   1  13
ATOM     13  C   LIG A   1      -8.416  -3.173 128.876  0.00  0.00    +0.000 C 
BRANCH  13  14
ATOM     14  C   LIG A   1      -7.829  -1.754 128.762  0.00  0.00    -0.000 C 
BRANCH  14  15
ATOM     15  C   LIG A   1      -6.355  -1.580 129.239  0.00  0.00    -0.000 C 
BRANCH  15  16
ATOM     16  C   LIG A   1      -5.381  -0.840 128.296  0.00  0.00    -0.000 C 
BRANCH  16  17
ATOM     17  C   LIG A   1      -5.633  -1.094 126.767  0.00  0.00    -0.000 C 
BRANCH  17  18
ATOM     18  C   LIG A   1      -5.968   0.219 126.007  0.00  0.00    +0.000 C 
BRANCH  18  19
ATOM     19  C   LIG A   1      -7.451   0.658 125.787  0.00  0.00    +0.002 C 
BRANCH  19  20
ATOM     20  C   LIG A   1      -7.860   2.138 125.920  0.00  0.00    +0.031 C 
BRANCH  20  21
ATOM     21  C   LIG A   1      -8.727   2.682 124.740  0.00  0.00    +0.111 C 
ATOM     22  C   LIG A   1      -8.638   1.996 123.371  0.00  0.00    +0.037 C 
BRANCH  21  23
ATOM     23  O   LIG A   1      -8.403   4.065 124.545  0.00  0.00    -0.392 OA
ATOM     24  H   LIG A   1      -8.994   4.426 123.862  0.00  0.00    +0.210 HD
ENDBRANCH  21  23
ENDBRANCH  20  21
ENDBRANCH  19  20
ENDBRANCH  18  19
ENDBRANCH  17  18
ENDBRANCH  16  17
ENDBRANCH  15  16
ENDBRANCH  14  15
ENDBRANCH  13  14
ENDBRANCH   1  13
TORSDOF 13
ENDMDL
MODEL 4
REMARK VINA RESULT:      -5.6      2.351      7.090
REMARK  Name = NuBBE_308
REMARK  15 active torsions:
REMARK  status: ('A' for Active; 'I' for Inactive)
REMARK    1  A    between atoms: C_3  and  C_4
REMARK    2  A    between atoms: C_5  and  O_6
REMARK    3  A    between atoms: C_9  and  C_10
REMARK    4  A    between atoms: C_10  and  C_11
REMARK    5  A    between atoms: C_11  and  C_12
REMARK    6  A    between atoms: C_12  and  C_13
REMARK    7  A    between atoms: C_13  and  C_14
REMARK    8  A    between atoms: C_14  and  C_15
REMARK    9  A    between atoms: C_15  and  C_16
REMARK   10  A    between atoms: C_16  and  C_17
REMARK   11  A    between atoms: C_17  and  C_18
REMARK   12  A    between atoms: C_18  and  C_19
REMARK   13  A    between atoms: C_19  and  C_20
REMARK   14  A    between atoms: C_20  and  O_21
REMARK   15  A    between atoms: C_20  and  C_22
REMARK                            x       y       z     vdW  Elec       q    Type
REMARK                         _______ _______ _______ _____ _____    ______ ____
ROOT
ATOM      1  C   LIG A   1      -9.004  -3.866 127.520  0.00  0.00    +0.002 C 
ENDROOT
BRANCH   1   2
ATOM      2  C   LIG A   1      -8.946  -3.121 126.154  0.00  0.00    +0.019 C 
BRANCH   2  10
ATOM      3  H   LIG A   1      -7.136  -4.674 123.718  0.00  0.00    +0.122 HD
ATOM      4  N   LIG A   1      -7.217  -3.962 124.443  0.00  0.00    -0.308 NA
ATOM      5  C   LIG A   1      -6.523  -2.748 124.014  0.00  0.00    +0.079 C 
ATOM      6  C   LIG A   1      -5.010  -2.952 123.921  0.00  0.00    +0.026 C 
ATOM      7  C   LIG A   1      -7.200  -2.002 122.823  0.00  0.00    +0.131 C 
ATOM      8  C   LIG A   1      -8.705  -1.802 123.080  0.00  0.00    +0.034 C 
ATOM      9  C   LIG A   1      -9.361  -3.091 123.543  0.00  0.00    +0.021 C 
ATOM     10  C   LIG A   1      -8.640  -3.720 124.742  0.00  0.00    +0.054 C 
BRANCH   7  11
ATOM     11  O   LIG A   1      -6.618  -0.699 122.628  0.00  0.00    -0.390 OA
ATOM     12  H   LIG A   1      -7.245  -0.149 122.180  0.00  0.00    +0.210 HD
ENDBRANCH   7  11
ENDBRANCH   2  10
ENDBRANCH   1   2
BRANCH   1  13
ATOM     13  C   LIG A   1      -8.098  -3.456 128.686  0.00  0.00    +0.000 C 
BRANCH  13  14
ATOM     14  C   LIG A   1      -7.827  -1.948 128.837  0.00  0.00    -0.000 C 
BRANCH  14  15
ATOM     15  C   LIG A   1      -6.364  -1.482 128.563  0.00  0.00    -0.000 C 
BRANCH  15  16
ATOM     16  C   LIG A   1      -5.361  -2.540 128.053  0.00  0.00    -0.000 C 
BRANCH  16  17
ATOM     17  C   LIG A   1      -4.298  -2.999 129.115  0.00  0.00    -0.000 C 
BRANCH  17  18
ATOM     18  C   LIG A   1      -4.902  -3.984 130.155  0.00  0.00    +0.000 C 
BRANCH  18  19
ATOM     19  C   LIG A   1      -5.178  -3.525 131.622  0.00  0.00    +0.002 C 
BRANCH  19  20
ATOM     20  C   LIG A   1      -6.622  -3.373 132.139  0.00  0.00    +0.031 C 
BRANCH  20  21
ATOM     21  C   LIG A   1      -7.077  -1.898 132.376  0.00  0.00    +0.111 C 
ATOM     22  C   LIG A   1      -6.042  -0.772 132.267  0.00  0.00    +0.037 C 
BRANCH  21  23
ATOM     23  O   LIG A   1      -7.662  -1.813 133.683  0.00  0.00    -0.392 OA
ATOM     24  H   LIG A   1      -7.361  -0.988 134.102  0.00  0.00    +0.210 HD
ENDBRANCH  21  23
ENDBRANCH  20  21
ENDBRANCH  19  20
ENDBRANCH  18  19
ENDBRANCH  17  18
ENDBRANCH  16  17
ENDBRANCH  15  16
ENDBRANCH  14  15
ENDBRANCH  13  14
ENDBRANCH   1  13
TORSDOF 13
ENDMDL
MODEL 5
REMARK VINA RESULT:      -5.6      7.771     10.289
REMARK  Name = NuBBE_308
REMARK  15 active torsions:
REMARK  status: ('A' for Active; 'I' for Inactive)
REMARK    1  A    between atoms: C_3  and  C_4
REMARK    2  A    between atoms: C_5  and  O_6
REMARK    3  A    between atoms: C_9  and  C_10
REMARK    4  A    between atoms: C_10  and  C_11
REMARK    5  A    between atoms: C_11  and  C_12
REMARK    6  A    between atoms: C_12  and  C_13
REMARK    7  A    between atoms: C_13  and  C_14
REMARK    8  A    between atoms: C_14  and  C_15
REMARK    9  A    between atoms: C_15  and  C_16
REMARK   10  A    between atoms: C_16  and  C_17
REMARK   11  A    between atoms: C_17  and  C_18
REMARK   12  A    between atoms: C_18  and  C_19
REMARK   13  A    between atoms: C_19  and  C_20
REMARK   14  A    between atoms: C_20  and  O_21
REMARK   15  A    between atoms: C_20  and  C_22
REMARK                            x       y       z     vdW  Elec       q    Type
REMARK                         _______ _______ _______ _____ _____    ______ ____
ROOT
ATOM      1  C   LIG A   1      -7.388   6.331 131.357  0.00  0.00    +0.002 C 
ENDROOT
BRANCH   1   2
ATOM      2  C   LIG A   1      -8.748   6.876 130.832  0.00  0.00    +0.019 C 
BRANCH   2  10
ATOM      3  H   LIG A   1     -10.545   5.620 128.220  0.00  0.00    +0.122 HD
ATOM      4  N   LIG A   1     -10.091   6.405 128.686  0.00  0.00    -0.308 NA
ATOM      5  C   LIG A   1     -10.889   7.615 128.495  0.00  0.00    +0.079 C 
ATOM      6  C   LIG A   1     -10.908   8.067 127.034  0.00  0.00    +0.026 C 
ATOM      7  C   LIG A   1     -12.259   7.611 129.241  0.00  0.00    +0.131 C 
ATOM      8  C   LIG A   1     -12.084   7.207 130.716  0.00  0.00    +0.034 C 
ATOM      9  C   LIG A   1     -11.228   5.959 130.847  0.00  0.00    +0.021 C 
ATOM     10  C   LIG A   1      -9.889   6.084 130.111  0.00  0.00    +0.054 C 
BRANCH   7  11
ATOM     11  O   LIG A   1     -12.866   8.917 129.220  0.00  0.00    -0.390 OA
ATOM     12  H   LIG A   1     -13.325   9.027 128.399  0.00  0.00    +0.210 HD
ENDBRANCH   7  11
ENDBRANCH   2  10
ENDBRANCH   1   2
BRANCH   1  13
ATOM     13  C   LIG A   1      -7.300   5.555 132.675  0.00  0.00    +0.000 C 
BRANCH  13  14
ATOM     14  C   LIG A   1      -8.576   5.535 133.537  0.00  0.00    -0.000 C 
BRANCH  14  15
ATOM     15  C   LIG A   1      -9.070   4.130 134.000  0.00  0.00    -0.000 C 
BRANCH  15  16
ATOM     16  C   LIG A   1      -8.505   2.896 133.263  0.00  0.00    -0.000 C 
BRANCH  16  17
ATOM     17  C   LIG A   1      -9.574   2.060 132.473  0.00  0.00    -0.000 C 
BRANCH  17  18
ATOM     18  C   LIG A   1      -9.707   2.531 130.998  0.00  0.00    +0.000 C 
BRANCH  18  19
ATOM     19  C   LIG A   1      -8.603   2.188 129.948  0.00  0.00    +0.002 C 
BRANCH  19  20
ATOM     20  C   LIG A   1      -8.163   3.232 128.902  0.00  0.00    +0.031 C 
BRANCH  20  21
ATOM     21  C   LIG A   1      -6.621   3.469 128.828  0.00  0.00    +0.111 C 
ATOM     22  C   LIG A   1      -5.772   3.249 130.086  0.00  0.00    +0.037 C 
BRANCH  21  23
ATOM     23  O   LIG A   1      -6.395   4.816 128.391  0.00  0.00    -0.392 OA
ATOM     24  H   LIG A   1      -7.189   5.124 127.921  0.00  0.00    +0.210 HD
ENDBRANCH  21  23
ENDBRANCH  20  21
ENDBRANCH  19  20
ENDBRANCH  18  19
ENDBRANCH  17  18
ENDBRANCH  16  17
ENDBRANCH  15  16
ENDBRANCH  14  15
ENDBRANCH  13  14
ENDBRANCH   1  13
TORSDOF 13
ENDMDL
MODEL 6
REMARK VINA RESULT:      -5.6      3.371      6.263
REMARK  Name = NuBBE_308
REMARK  15 active torsions:
REMARK  status: ('A' for Active; 'I' for Inactive)
REMARK    1  A    between atoms: C_3  and  C_4
REMARK    2  A    between atoms: C_5  and  O_6
REMARK    3  A    between atoms: C_9  and  C_10
REMARK    4  A    between atoms: C_10  and  C_11
REMARK    5  A    between atoms: C_11  and  C_12
REMARK    6  A    between atoms: C_12  and  C_13
REMARK    7  A    between atoms: C_13  and  C_14
REMARK    8  A    between atoms: C_14  and  C_15
REMARK    9  A    between atoms: C_15  and  C_16
REMARK   10  A    between atoms: C_16  and  C_17
REMARK   11  A    between atoms: C_17  and  C_18
REMARK   12  A    between atoms: C_18  and  C_19
REMARK   13  A    between atoms: C_19  and  C_20
REMARK   14  A    between atoms: C_20  and  O_21
REMARK   15  A    between atoms: C_20  and  C_22
REMARK                            x       y       z     vdW  Elec       q    Type
REMARK                         _______ _______ _______ _____ _____    ______ ____
ROOT
ATOM      1  C   LIG A   1      -8.049  -2.912 127.360  0.00  0.00    +0.002 C 
ENDROOT
BRANCH   1   2
ATOM      2  C   LIG A   1      -8.992  -3.001 126.124  0.00  0.00    +0.019 C 
BRANCH   2  10
ATOM      3  H   LIG A   1      -7.299  -4.860 123.821  0.00  0.00    +0.122 HD
ATOM      4  N   LIG A   1      -7.326  -4.095 124.494  0.00  0.00    -0.308 NA
ATOM      5  C   LIG A   1      -6.534  -2.974 123.992  0.00  0.00    +0.079 C 
ATOM      6  C   LIG A   1      -5.042  -3.305 123.930  0.00  0.00    +0.026 C 
ATOM      7  C   LIG A   1      -7.141  -2.260 122.745  0.00  0.00    +0.131 C 
ATOM      8  C   LIG A   1      -8.627  -1.922 122.970  0.00  0.00    +0.034 C 
ATOM      9  C   LIG A   1      -9.387  -3.119 123.513  0.00  0.00    +0.021 C 
ATOM     10  C   LIG A   1      -8.726  -3.720 124.760  0.00  0.00    +0.054 C 
BRANCH   7  11
ATOM     11  O   LIG A   1      -6.455  -1.025 122.467  0.00  0.00    -0.390 OA
ATOM     12  H   LIG A   1      -7.064  -0.419 122.070  0.00  0.00    +0.210 HD
ENDBRANCH   7  11
ENDBRANCH   2  10
ENDBRANCH   1   2
BRANCH   1  13
ATOM     13  C   LIG A   1      -7.311  -1.613 127.701  0.00  0.00    +0.000 C 
BRANCH  13  14
ATOM     14  C   LIG A   1      -5.798  -1.597 127.417  0.00  0.00    -0.000 C 
BRANCH  14  15
ATOM     15  C   LIG A   1      -5.305  -0.544 126.377  0.00  0.00    -0.000 C 
BRANCH  15  16
ATOM     16  C   LIG A   1      -5.439   0.948 126.753  0.00  0.00    -0.000 C 
BRANCH  16  17
ATOM     17  C   LIG A   1      -6.421   1.767 125.840  0.00  0.00    -0.000 C 
BRANCH  17  18
ATOM     18  C   LIG A   1      -7.513   0.863 125.203  0.00  0.00    +0.000 C 
BRANCH  18  19
ATOM     19  C   LIG A   1      -9.026   1.106 125.505  0.00  0.00    +0.002 C 
BRANCH  19  20
ATOM     20  C   LIG A   1      -9.995   1.519 124.379  0.00  0.00    +0.031 C 
BRANCH  20  21
ATOM     21  C   LIG A   1      -9.374   1.495 122.945  0.00  0.00    +0.111 C 
ATOM     22  C   LIG A   1      -8.861   2.804 122.333  0.00  0.00    +0.037 C 
BRANCH  21  23
ATOM     23  O   LIG A   1     -10.350   0.957 122.043  0.00  0.00    -0.392 OA
ATOM     24  H   LIG A   1     -10.633   1.664 121.439  0.00  0.00    +0.210 HD
ENDBRANCH  21  23
ENDBRANCH  20  21
ENDBRANCH  19  20
ENDBRANCH  18  19
ENDBRANCH  17  18
ENDBRANCH  16  17
ENDBRANCH  15  16
ENDBRANCH  14  15
ENDBRANCH  13  14
ENDBRANCH   1  13
TORSDOF 13
ENDMDL
MODEL 7
REMARK VINA RESULT:      -5.5      8.224     10.972
REMARK  Name = NuBBE_308
REMARK  15 active torsions:
REMARK  status: ('A' for Active; 'I' for Inactive)
REMARK    1  A    between atoms: C_3  and  C_4
REMARK    2  A    between atoms: C_5  and  O_6
REMARK    3  A    between atoms: C_9  and  C_10
REMARK    4  A    between atoms: C_10  and  C_11
REMARK    5  A    between atoms: C_11  and  C_12
REMARK    6  A    between atoms: C_12  and  C_13
REMARK    7  A    between atoms: C_13  and  C_14
REMARK    8  A    between atoms: C_14  and  C_15
REMARK    9  A    between atoms: C_15  and  C_16
REMARK   10  A    between atoms: C_16  and  C_17
REMARK   11  A    between atoms: C_17  and  C_18
REMARK   12  A    between atoms: C_18  and  C_19
REMARK   13  A    between atoms: C_19  and  C_20
REMARK   14  A    between atoms: C_20  and  O_21
REMARK   15  A    between atoms: C_20  and  C_22
REMARK                            x       y       z     vdW  Elec       q    Type
REMARK                         _______ _______ _______ _____ _____    ______ ____
ROOT
ATOM      1  C   LIG A   1      -8.233   6.306 131.636  0.00  0.00    +0.002 C 
ENDROOT
BRANCH   1   2
ATOM      2  C   LIG A   1      -9.288   6.983 130.713  0.00  0.00    +0.019 C 
BRANCH   2  10
ATOM      3  H   LIG A   1     -11.248   5.670 128.251  0.00  0.00    +0.122 HD
ATOM      4  N   LIG A   1     -10.639   6.410 128.598  0.00  0.00    -0.308 NA
ATOM      5  C   LIG A   1     -11.131   7.705 128.129  0.00  0.00    +0.079 C 
ATOM      6  C   LIG A   1     -11.002   7.857 126.613  0.00  0.00    +0.026 C 
ATOM      7  C   LIG A   1     -12.486   8.150 128.761  0.00  0.00    +0.131 C 
ATOM      8  C   LIG A   1     -12.453   8.013 130.295  0.00  0.00    +0.034 C 
ATOM      9  C   LIG A   1     -11.912   6.657 130.714  0.00  0.00    +0.021 C 
ATOM     10  C   LIG A   1     -10.559   6.337 130.067  0.00  0.00    +0.054 C 
BRANCH   7  11
ATOM     11  O   LIG A   1     -12.775   9.528 128.457  0.00  0.00    -0.390 OA
ATOM     12  H   LIG A   1     -11.965  10.018 128.465  0.00  0.00    +0.210 HD
ENDBRANCH   7  11
ENDBRANCH   2  10
ENDBRANCH   1   2
BRANCH   1  13
ATOM     13  C   LIG A   1      -6.865   5.878 131.095  0.00  0.00    +0.000 C 
BRANCH  13  14
ATOM     14  C   LIG A   1      -5.662   6.727 131.545  0.00  0.00    -0.000 C 
BRANCH  14  15
ATOM     15  C   LIG A   1      -4.714   7.230 130.413  0.00  0.00    -0.000 C 
BRANCH  15  16
ATOM     16  C   LIG A   1      -3.236   7.484 130.779  0.00  0.00    -0.000 C 
BRANCH  16  17
ATOM     17  C   LIG A   1      -2.224   6.448 130.172  0.00  0.00    -0.000 C 
BRANCH  17  18
ATOM     18  C   LIG A   1      -2.338   6.362 128.624  0.00  0.00    +0.000 C 
BRANCH  18  19
ATOM     19  C   LIG A   1      -2.553   4.987 127.914  0.00  0.00    +0.002 C 
BRANCH  19  20
ATOM     20  C   LIG A   1      -3.842   4.709 127.117  0.00  0.00    +0.031 C 
BRANCH  20  21
ATOM     21  C   LIG A   1      -3.787   3.433 126.216  0.00  0.00    +0.111 C 
ATOM     22  C   LIG A   1      -5.099   2.752 125.809  0.00  0.00    +0.037 C 
BRANCH  21  23
ATOM     23  O   LIG A   1      -2.984   2.449 126.881  0.00  0.00    -0.392 OA
ATOM     24  H   LIG A   1      -2.098   2.453 126.481  0.00  0.00    +0.210 HD
ENDBRANCH  21  23
ENDBRANCH  20  21
ENDBRANCH  19  20
ENDBRANCH  18  19
ENDBRANCH  17  18
ENDBRANCH  16  17
ENDBRANCH  15  16
ENDBRANCH  14  15
ENDBRANCH  13  14
ENDBRANCH   1  13
TORSDOF 13
ENDMDL
MODEL 8
REMARK VINA RESULT:      -5.5      2.693      7.180
REMARK  Name = NuBBE_308
REMARK  15 active torsions:
REMARK  status: ('A' for Active; 'I' for Inactive)
REMARK    1  A    between atoms: C_3  and  C_4
REMARK    2  A    between atoms: C_5  and  O_6
REMARK    3  A    between atoms: C_9  and  C_10
REMARK    4  A    between atoms: C_10  and  C_11
REMARK    5  A    between atoms: C_11  and  C_12
REMARK    6  A    between atoms: C_12  and  C_13
REMARK    7  A    between atoms: C_13  and  C_14
REMARK    8  A    between atoms: C_14  and  C_15
REMARK    9  A    between atoms: C_15  and  C_16
REMARK   10  A    between atoms: C_16  and  C_17
REMARK   11  A    between atoms: C_17  and  C_18
REMARK   12  A    between atoms: C_18  and  C_19
REMARK   13  A    between atoms: C_19  and  C_20
REMARK   14  A    between atoms: C_20  and  O_21
REMARK   15  A    between atoms: C_20  and  C_22
REMARK                            x       y       z     vdW  Elec       q    Type
REMARK                         _______ _______ _______ _____ _____    ______ ____
ROOT
ATOM      1  C   LIG A   1      -8.714  -2.002 126.200  0.00  0.00    +0.002 C 
ENDROOT
BRANCH   1   2
ATOM      2  C   LIG A   1      -7.438  -1.400 125.543  0.00  0.00    +0.019 C 
BRANCH   2  10
ATOM      3  H   LIG A   1      -6.900   0.726 122.932  0.00  0.00    +0.122 HD
ATOM      4  N   LIG A   1      -7.407   0.477 123.782  0.00  0.00    -0.308 NA
ATOM      5  C   LIG A   1      -8.812   0.855 123.641  0.00  0.00    +0.079 C 
ATOM      6  C   LIG A   1      -8.997   2.372 123.581  0.00  0.00    +0.026 C 
ATOM      7  C   LIG A   1      -9.606   0.014 122.594  0.00  0.00    +0.131 C 
ATOM      8  C   LIG A   1      -9.385  -1.494 122.814  0.00  0.00    +0.034 C 
ATOM      9  C   LIG A   1      -7.910  -1.816 122.975  0.00  0.00    +0.021 C 
ATOM     10  C   LIG A   1      -7.236  -0.961 124.055  0.00  0.00    +0.054 C 
BRANCH   7  11
ATOM     11  O   LIG A   1     -11.022   0.262 122.694  0.00  0.00    -0.390 OA
ATOM     12  H   LIG A   1     -11.389  -0.323 123.341  0.00  0.00    +0.210 HD
ENDBRANCH   7  11
ENDBRANCH   2  10
ENDBRANCH   1   2
BRANCH   1  13
ATOM     13  C   LIG A   1      -8.794  -3.489 126.561  0.00  0.00    +0.000 C 
BRANCH  13  14
ATOM     14  C   LIG A   1      -9.017  -3.816 128.049  0.00  0.00    -0.000 C 
BRANCH  14  15
ATOM     15  C   LIG A   1      -7.770  -3.682 128.976  0.00  0.00    -0.000 C 
BRANCH  15  16
ATOM     16  C   LIG A   1      -7.515  -2.310 129.636  0.00  0.00    -0.000 C 
BRANCH  16  17
ATOM     17  C   LIG A   1      -6.240  -1.558 129.110  0.00  0.00    -0.000 C 
BRANCH  17  18
ATOM     18  C   LIG A   1      -5.287  -2.505 128.329  0.00  0.00    +0.000 C 
BRANCH  18  19
ATOM     19  C   LIG A   1      -4.148  -3.277 129.068  0.00  0.00    +0.002 C 
BRANCH  19  20
ATOM     20  C   LIG A   1      -3.709  -2.861 130.486  0.00  0.00    +0.031 C 
BRANCH  20  21
ATOM     21  C   LIG A   1      -4.366  -3.684 131.639  0.00  0.00    +0.111 C 
ATOM     22  C   LIG A   1      -5.253  -4.884 131.286  0.00  0.00    +0.037 C 
BRANCH  21  23
ATOM     23  O   LIG A   1      -5.155  -2.791 132.435  0.00  0.00    -0.392 OA
ATOM     24  H   LIG A   1      -5.981  -3.244 132.679  0.00  0.00    +0.210 HD
ENDBRANCH  21  23
ENDBRANCH  20  21
ENDBRANCH  19  20
ENDBRANCH  18  19
ENDBRANCH  17  18
ENDBRANCH  16  17
ENDBRANCH  15  16
ENDBRANCH  14  15
ENDBRANCH  13  14
ENDBRANCH   1  13
TORSDOF 13
ENDMDL
MODEL 9
REMARK VINA RESULT:      -5.5      5.692      7.356
REMARK  Name = NuBBE_308
REMARK  15 active torsions:
REMARK  status: ('A' for Active; 'I' for Inactive)
REMARK    1  A    between atoms: C_3  and  C_4
REMARK    2  A    between atoms: C_5  and  O_6
REMARK    3  A    between atoms: C_9  and  C_10
REMARK    4  A    between atoms: C_10  and  C_11
REMARK    5  A    between atoms: C_11  and  C_12
REMARK    6  A    between atoms: C_12  and  C_13
REMARK    7  A    between atoms: C_13  and  C_14
REMARK    8  A    between atoms: C_14  and  C_15
REMARK    9  A    between atoms: C_15  and  C_16
REMARK   10  A    between atoms: C_16  and  C_17
REMARK   11  A    between atoms: C_17  and  C_18
REMARK   12  A    between atoms: C_18  and  C_19
REMARK   13  A    between atoms: C_19  and  C_20
REMARK   14  A    between atoms: C_20  and  O_21
REMARK   15  A    between atoms: C_20  and  C_22
REMARK                            x       y       z     vdW  Elec       q    Type
REMARK                         _______ _______ _______ _____ _____    ______ ____
ROOT
ATOM      1  C   LIG A   1      -9.750   1.921 132.247  0.00  0.00    +0.002 C 
ENDROOT
BRANCH   1   2
ATOM      2  C   LIG A   1      -8.807   3.159 132.203  0.00  0.00    +0.019 C 
BRANCH   2  10
ATOM      3  H   LIG A   1     -10.529   5.846 133.403  0.00  0.00    +0.122 HD
ATOM      4  N   LIG A   1     -10.340   5.175 132.658  0.00  0.00    -0.308 NA
ATOM      5  C   LIG A   1     -10.439   5.845 131.362  0.00  0.00    +0.079 C 
ATOM      6  C   LIG A   1     -11.868   6.290 131.050  0.00  0.00    +0.026 C 
ATOM      7  C   LIG A   1      -9.310   6.886 131.084  0.00  0.00    +0.131 C 
ATOM      8  C   LIG A   1      -7.921   6.285 131.372  0.00  0.00    +0.034 C 
ATOM      9  C   LIG A   1      -7.893   5.585 132.719  0.00  0.00    +0.021 C 
ATOM     10  C   LIG A   1      -9.020   4.557 132.872  0.00  0.00    +0.054 C 
BRANCH   7  11
ATOM     11  O   LIG A   1      -9.320   7.310 129.708  0.00  0.00    -0.390 OA
ATOM     12  H   LIG A   1      -9.758   8.147 129.650  0.00  0.00    +0.210 HD
ENDBRANCH   7  11
ENDBRANCH   2  10
ENDBRANCH   1   2
BRANCH   1  13
ATOM     13  C   LIG A   1      -9.289   0.555 131.727  0.00  0.00    +0.000 C 
BRANCH  13  14
ATOM     14  C   LIG A   1      -8.059   0.560 130.801  0.00  0.00    -0.000 C 
BRANCH  14  15
ATOM     15  C   LIG A   1      -7.904  -0.671 129.857  0.00  0.00    -0.000 C 
BRANCH  15  16
ATOM     16  C   LIG A   1      -7.796  -2.065 130.513  0.00  0.00    -0.000 C 
BRANCH  16  17
ATOM     17  C   LIG A   1      -7.564  -3.247 129.505  0.00  0.00    -0.000 C 
BRANCH  17  18
ATOM     18  C   LIG A   1      -7.827  -2.817 128.034  0.00  0.00    +0.000 C 
BRANCH  18  19
ATOM     19  C   LIG A   1      -8.912  -3.541 127.174  0.00  0.00    +0.002 C 
BRANCH  19  20
ATOM     20  C   LIG A   1      -9.481  -2.874 125.906  0.00  0.00    +0.031 C 
BRANCH  20  21
ATOM     21  C   LIG A   1      -8.972  -3.490 124.563  0.00  0.00    +0.111 C 
ATOM     22  C   LIG A   1      -7.650  -2.991 123.968  0.00  0.00    +0.037 C 
BRANCH  21  23
ATOM     23  O   LIG A   1      -9.987  -3.296 123.569  0.00  0.00    -0.392 OA
ATOM     24  H   LIG A   1     -10.749  -2.861 123.987  0.00  0.00    +0.210 HD
ENDBRANCH  21  23
ENDBRANCH  20  21
ENDBRANCH  19  20
ENDBRANCH  18  19
ENDBRANCH  17  18
ENDBRANCH  16  17
ENDBRANCH  15  16
ENDBRANCH  14  15
ENDBRANCH  13  14
ENDBRANCH   1  13
TORSDOF 13
ENDMDL
