MODEL 1
REMARK VINA RESULT:      -7.7      0.000      0.000
REMARK  Name = NuBBE_385
REMARK  11 active torsions:
REMARK  status: ('A' for Active; 'I' for Inactive)
REMARK    1  A    between atoms: C_1  and  O_2
REMARK    2  A    between atoms: O_2  and  C_3
REMARK    3  A    between atoms: C_5  and  C_6
REMARK    4  A    between atoms: C_6  and  C_7
REMARK    5  A    between atoms: C_9  and  C_24
REMARK    6  A    between atoms: C_11  and  C_15
REMARK    7  A    between atoms: C_18  and  O_23
REMARK    8  A    between atoms: C_19  and  O_20
REMARK    9  A    between atoms: O_20  and  C_21
REMARK   10  A    between atoms: C_24  and  O_25
REMARK   11  A    between atoms: C_28  and  O_29
REMARK                            x       y       z     vdW  Elec       q    Type
REMARK                         _______ _______ _______ _____ _____    ______ ____
ROOT
ATOM      1  C   LIG A   1      -6.816   1.649 125.378  0.00  0.00    +0.027 C 
ATOM      2  C   LIG A   1      -6.813   3.021 124.689  0.00  0.00    +0.053 C 
ATOM      3  C   LIG A   1      -7.487   2.749 123.336  0.00  0.00    +0.154 C 
ATOM      4  O   LIG A   1      -7.392   1.332 123.101  0.00  0.00    -0.371 OA
ATOM      5  C   LIG A   1      -6.637   0.743 124.167  0.00  0.00    +0.165 C 
ENDROOT
BRANCH   3   6
ATOM      6  C   LIG A   1      -6.862   3.478 122.164  0.00  0.00    -0.015 A 
ATOM      7  C   LIG A   1      -5.555   3.985 122.241  0.00  0.00    +0.010 A 
ATOM      8  C   LIG A   1      -4.979   4.653 121.157  0.00  0.00    +0.049 A 
ATOM      9  C   LIG A   1      -5.697   4.827 119.976  0.00  0.00    +0.159 A 
ATOM     10  C   LIG A   1      -7.006   4.330 119.873  0.00  0.00    +0.162 A 
ATOM     11  C   LIG A   1      -7.565   3.648 120.964  0.00  0.00    +0.055 A 
BRANCH  10  12
ATOM     12  O   LIG A   1      -7.822   4.378 118.773  0.00  0.00    -0.491 OA
ATOM     13  C   LIG A   1      -9.226   4.355 119.019  0.00  0.00    +0.277 C 
ENDBRANCH  10  12
BRANCH   9  14
ATOM     14  O   LIG A   1      -5.087   5.465 118.932  0.00  0.00    -0.503 OA
ATOM     15  H   LIG A   1      -5.490   6.337 118.813  0.00  0.00    +0.292 HD
ENDBRANCH   9  14
ENDBRANCH   3   6
BRANCH   1  16
ATOM     16  C   LIG A   1      -8.100   1.315 126.168  0.00  0.00    +0.041 C 
BRANCH  16  19
ATOM     17  C   LIG A   1      -9.138  -2.382 126.003  0.00  0.00    +0.162 A 
ATOM     18  C   LIG A   1      -8.979  -1.022 125.691  0.00  0.00    +0.053 A 
ATOM     19  C   LIG A   1      -8.240  -0.155 126.511  0.00  0.00    -0.043 A 
ATOM     20  C   LIG A   1      -7.625  -0.680 127.652  0.00  0.00    +0.007 A 
ATOM     21  C   LIG A   1      -7.769  -2.030 127.975  0.00  0.00    +0.049 A 
ATOM     22  C   LIG A   1      -8.527  -2.880 127.160  0.00  0.00    +0.159 A 
BRANCH  17  24
ATOM     23  C   LIG A   1      -9.354  -3.324 123.812  0.00  0.00    +0.277 C 
ATOM     24  O   LIG A   1      -9.908  -3.053 125.091  0.00  0.00    -0.491 OA
ENDBRANCH  17  24
BRANCH  22  25
ATOM     25  O   LIG A   1      -8.646  -4.191 127.526  0.00  0.00    -0.503 OA
ATOM     26  H   LIG A   1      -8.865  -4.238 128.471  0.00  0.00    +0.292 HD
ENDBRANCH  22  25
ENDBRANCH  16  19
ENDBRANCH   1  16
BRANCH   2  27
ATOM     27  C   LIG A   1      -7.436   4.187 125.442  0.00  0.00    +0.162 C 
BRANCH  27  28
ATOM     28  O   LIG A   1      -8.749   4.414 124.947  0.00  0.00    -0.395 OA
ATOM     29  H   LIG A   1      -9.103   3.553 124.664  0.00  0.00    +0.209 HD
ENDBRANCH  27  28
ENDBRANCH   2  27
TORSDOF 9
ENDMDL
MODEL 2
REMARK VINA RESULT:      -7.0      6.917      8.614
REMARK  Name = NuBBE_385
REMARK  11 active torsions:
REMARK  status: ('A' for Active; 'I' for Inactive)
REMARK    1  A    between atoms: C_1  and  O_2
REMARK    2  A    between atoms: O_2  and  C_3
REMARK    3  A    between atoms: C_5  and  C_6
REMARK    4  A    between atoms: C_6  and  C_7
REMARK    5  A    between atoms: C_9  and  C_24
REMARK    6  A    between atoms: C_11  and  C_15
REMARK    7  A    between atoms: C_18  and  O_23
REMARK    8  A    between atoms: C_19  and  O_20
REMARK    9  A    between atoms: O_20  and  C_21
REMARK   10  A    between atoms: C_24  and  O_25
REMARK   11  A    between atoms: C_28  and  O_29
REMARK                            x       y       z     vdW  Elec       q    Type
REMARK                         _______ _______ _______ _____ _____    ______ ____
ROOT
ATOM      1  C   LIG A   1      -8.697   4.027 130.953  0.00  0.00    +0.027 C 
ATOM      2  C   LIG A   1      -9.156   5.456 131.275  0.00  0.00    +0.053 C 
ATOM      3  C   LIG A   1     -10.683   5.390 131.120  0.00  0.00    +0.154 C 
ATOM      4  O   LIG A   1     -10.969   4.233 130.314  0.00  0.00    -0.371 OA
ATOM      5  C   LIG A   1      -9.729   3.646 129.900  0.00  0.00    +0.165 C 
ENDROOT
BRANCH   3   6
ATOM      6  C   LIG A   1     -11.301   6.606 130.461  0.00  0.00    -0.015 A 
ATOM      7  C   LIG A   1     -12.375   7.286 131.058  0.00  0.00    +0.010 A 
ATOM      8  C   LIG A   1     -12.940   8.410 130.452  0.00  0.00    +0.049 A 
ATOM      9  C   LIG A   1     -12.445   8.877 129.236  0.00  0.00    +0.159 A 
ATOM     10  C   LIG A   1     -11.372   8.215 128.617  0.00  0.00    +0.162 A 
ATOM     11  C   LIG A   1     -10.805   7.097 129.246  0.00  0.00    +0.055 A 
BRANCH  10  12
ATOM     12  O   LIG A   1     -10.744   8.574 127.454  0.00  0.00    -0.491 OA
ATOM     13  C   LIG A   1     -10.903   7.691 126.345  0.00  0.00    +0.277 C 
ENDBRANCH  10  12
BRANCH   9  14
ATOM     14  O   LIG A   1     -13.012   9.994 128.689  0.00  0.00    -0.503 OA
ATOM     15  H   LIG A   1     -12.449  10.759 128.873  0.00  0.00    +0.292 HD
ENDBRANCH   9  14
ENDBRANCH   3   6
BRANCH   1  16
ATOM     16  C   LIG A   1      -8.702   3.051 132.150  0.00  0.00    +0.041 C 
BRANCH  16  19
ATOM     17  C   LIG A   1      -6.199   0.297 131.189  0.00  0.00    +0.162 A 
ATOM     18  C   LIG A   1      -6.757   1.546 131.508  0.00  0.00    +0.053 A 
ATOM     19  C   LIG A   1      -8.115   1.691 131.830  0.00  0.00    -0.043 A 
ATOM     20  C   LIG A   1      -8.918   0.546 131.859  0.00  0.00    +0.007 A 
ATOM     21  C   LIG A   1      -8.380  -0.704 131.548  0.00  0.00    +0.049 A 
ATOM     22  C   LIG A   1      -7.028  -0.831 131.208  0.00  0.00    +0.159 A 
BRANCH  17  24
ATOM     23  C   LIG A   1      -4.303   1.647 130.626  0.00  0.00    +0.277 C 
ATOM     24  O   LIG A   1      -4.866   0.369 130.884  0.00  0.00    -0.491 OA
ENDBRANCH  17  24
BRANCH  22  25
ATOM     25  O   LIG A   1      -6.552  -2.075 130.902  0.00  0.00    -0.503 OA
ATOM     26  H   LIG A   1      -6.161  -2.470 131.699  0.00  0.00    +0.292 HD
ENDBRANCH  22  25
ENDBRANCH  16  19
ENDBRANCH   1  16
BRANCH   2  27
ATOM     27  C   LIG A   1      -8.718   6.053 132.604  0.00  0.00    +0.162 C 
BRANCH  27  28
ATOM     28  O   LIG A   1      -9.862   6.265 133.420  0.00  0.00    -0.395 OA
ATOM     29  H   LIG A   1      -9.687   5.842 134.279  0.00  0.00    +0.209 HD
ENDBRANCH  27  28
ENDBRANCH   2  27
TORSDOF 9
ENDMDL
MODEL 3
REMARK VINA RESULT:      -6.9      6.728     11.272
REMARK  Name = NuBBE_385
REMARK  11 active torsions:
REMARK  status: ('A' for Active; 'I' for Inactive)
REMARK    1  A    between atoms: C_1  and  O_2
REMARK    2  A    between atoms: O_2  and  C_3
REMARK    3  A    between atoms: C_5  and  C_6
REMARK    4  A    between atoms: C_6  and  C_7
REMARK    5  A    between atoms: C_9  and  C_24
REMARK    6  A    between atoms: C_11  and  C_15
REMARK    7  A    between atoms: C_18  and  O_23
REMARK    8  A    between atoms: C_19  and  O_20
REMARK    9  A    between atoms: O_20  and  C_21
REMARK   10  A    between atoms: C_24  and  O_25
REMARK   11  A    between atoms: C_28  and  O_29
REMARK                            x       y       z     vdW  Elec       q    Type
REMARK                         _______ _______ _______ _____ _____    ______ ____
ROOT
ATOM      1  C   LIG A   1      -9.519   5.506 131.987  0.00  0.00    +0.027 C 
ATOM      2  C   LIG A   1      -9.342   4.035 131.583  0.00  0.00    +0.053 C 
ATOM      3  C   LIG A   1      -9.277   3.295 132.928  0.00  0.00    +0.154 C 
ATOM      4  O   LIG A   1      -8.934   4.275 133.925  0.00  0.00    -0.371 OA
ATOM      5  C   LIG A   1      -8.702   5.529 133.272  0.00  0.00    +0.165 C 
ENDROOT
BRANCH   3   6
ATOM      6  C   LIG A   1      -8.261   2.173 132.980  0.00  0.00    -0.015 A 
ATOM      7  C   LIG A   1      -7.082   2.297 133.732  0.00  0.00    +0.010 A 
ATOM      8  C   LIG A   1      -6.150   1.259 133.783  0.00  0.00    +0.049 A 
ATOM      9  C   LIG A   1      -6.376   0.075 133.083  0.00  0.00    +0.159 A 
ATOM     10  C   LIG A   1      -7.547  -0.075 132.324  0.00  0.00    +0.162 A 
ATOM     11  C   LIG A   1      -8.482   0.971 132.295  0.00  0.00    +0.055 A 
BRANCH  10  12
ATOM     12  O   LIG A   1      -7.936  -1.186 131.622  0.00  0.00    -0.491 OA
ATOM     13  C   LIG A   1      -7.663  -1.184 130.223  0.00  0.00    +0.277 C 
ENDBRANCH  10  12
BRANCH   9  14
ATOM     14  O   LIG A   1      -5.448  -0.925 133.179  0.00  0.00    -0.503 OA
ATOM     15  H   LIG A   1      -4.660  -0.586 133.627  0.00  0.00    +0.292 HD
ENDBRANCH   9  14
ENDBRANCH   3   6
BRANCH   1  16
ATOM     16  C   LIG A   1     -10.979   5.951 132.218  0.00  0.00    +0.041 C 
BRANCH  16  19
ATOM     17  C   LIG A   1     -11.196   8.148 129.071  0.00  0.00    +0.162 A 
ATOM     18  C   LIG A   1     -10.757   7.211 130.020  0.00  0.00    +0.053 A 
ATOM     19  C   LIG A   1     -11.481   6.951 131.195  0.00  0.00    -0.043 A 
ATOM     20  C   LIG A   1     -12.686   7.631 131.398  0.00  0.00    +0.007 A 
ATOM     21  C   LIG A   1     -13.139   8.563 130.463  0.00  0.00    +0.049 A 
ATOM     22  C   LIG A   1     -12.397   8.828 129.306  0.00  0.00    +0.159 A 
BRANCH  17  24
ATOM     23  C   LIG A   1     -10.637   7.548 126.821  0.00  0.00    +0.277 C 
ATOM     24  O   LIG A   1     -10.342   8.271 128.007  0.00  0.00    -0.491 OA
ENDBRANCH  17  24
BRANCH  22  25
ATOM     25  O   LIG A   1     -12.878   9.757 128.428  0.00  0.00    -0.503 OA
ATOM     26  H   LIG A   1     -12.158  10.043 127.842  0.00  0.00    +0.292 HD
ENDBRANCH  22  25
ENDBRANCH  16  19
ENDBRANCH   1  16
BRANCH   2  27
ATOM     27  C   LIG A   1     -10.364   3.441 130.625  0.00  0.00    +0.162 C 
BRANCH  27  28
ATOM     28  O   LIG A   1      -9.711   3.071 129.418  0.00  0.00    -0.395 OA
ATOM     29  H   LIG A   1      -9.321   3.879 129.041  0.00  0.00    +0.209 HD
ENDBRANCH  27  28
ENDBRANCH   2  27
TORSDOF 9
ENDMDL
MODEL 4
REMARK VINA RESULT:      -6.9      7.084      8.693
REMARK  Name = NuBBE_385
REMARK  11 active torsions:
REMARK  status: ('A' for Active; 'I' for Inactive)
REMARK    1  A    between atoms: C_1  and  O_2
REMARK    2  A    between atoms: O_2  and  C_3
REMARK    3  A    between atoms: C_5  and  C_6
REMARK    4  A    between atoms: C_6  and  C_7
REMARK    5  A    between atoms: C_9  and  C_24
REMARK    6  A    between atoms: C_11  and  C_15
REMARK    7  A    between atoms: C_18  and  O_23
REMARK    8  A    between atoms: C_19  and  O_20
REMARK    9  A    between atoms: O_20  and  C_21
REMARK   10  A    between atoms: C_24  and  O_25
REMARK   11  A    between atoms: C_28  and  O_29
REMARK                            x       y       z     vdW  Elec       q    Type
REMARK                         _______ _______ _______ _____ _____    ______ ____
ROOT
ATOM      1  C   LIG A   1      -8.902   3.421 131.135  0.00  0.00    +0.027 C 
ATOM      2  C   LIG A   1      -9.527   4.741 131.608  0.00  0.00    +0.053 C 
ATOM      3  C   LIG A   1     -10.922   4.733 130.965  0.00  0.00    +0.154 C 
ATOM      4  O   LIG A   1     -10.870   3.800 129.871  0.00  0.00    -0.371 OA
ATOM      5  C   LIG A   1      -9.529   3.311 129.751  0.00  0.00    +0.165 C 
ENDROOT
BRANCH   3   6
ATOM      6  C   LIG A   1     -11.379   6.077 130.436  0.00  0.00    -0.015 A 
ATOM      7  C   LIG A   1     -12.372   6.816 131.098  0.00  0.00    +0.010 A 
ATOM      8  C   LIG A   1     -12.788   8.058 130.611  0.00  0.00    +0.049 A 
ATOM      9  C   LIG A   1     -12.220   8.586 129.454  0.00  0.00    +0.159 A 
ATOM     10  C   LIG A   1     -11.225   7.867 128.773  0.00  0.00    +0.162 A 
ATOM     11  C   LIG A   1     -10.806   6.629 129.283  0.00  0.00    +0.055 A 
BRANCH  10  12
ATOM     12  O   LIG A   1     -10.539   8.267 127.656  0.00  0.00    -0.491 OA
ATOM     13  C   LIG A   1     -10.946   7.690 126.418  0.00  0.00    +0.277 C 
ENDBRANCH  10  12
BRANCH   9  14
ATOM     14  O   LIG A   1     -12.640   9.814 129.026  0.00  0.00    -0.503 OA
ATOM     15  H   LIG A   1     -13.394  10.098 129.562  0.00  0.00    +0.292 HD
ENDBRANCH   9  14
ENDBRANCH   3   6
BRANCH   1  16
ATOM     16  C   LIG A   1      -9.220   2.193 132.015  0.00  0.00    +0.041 C 
BRANCH  16  19
ATOM     17  C   LIG A   1      -7.266  -1.101 132.348  0.00  0.00    +0.162 A 
ATOM     18  C   LIG A   1      -8.313  -0.173 132.228  0.00  0.00    +0.053 A 
ATOM     19  C   LIG A   1      -8.074   1.206 132.121  0.00  0.00    -0.043 A 
ATOM     20  C   LIG A   1      -6.748   1.652 132.104  0.00  0.00    +0.007 A 
ATOM     21  C   LIG A   1      -5.695   0.744 132.219  0.00  0.00    +0.049 A 
ATOM     22  C   LIG A   1      -5.948  -0.628 132.346  0.00  0.00    +0.159 A 
BRANCH  17  24
ATOM     23  C   LIG A   1      -8.028  -2.883 133.754  0.00  0.00    +0.277 C 
ATOM     24  O   LIG A   1      -7.706  -2.392 132.461  0.00  0.00    -0.491 OA
ENDBRANCH  17  24
BRANCH  22  25
ATOM     25  O   LIG A   1      -4.883  -1.474 132.465  0.00  0.00    -0.503 OA
ATOM     26  H   LIG A   1      -4.119  -1.090 132.003  0.00  0.00    +0.292 HD
ENDBRANCH  22  25
ENDBRANCH  16  19
ENDBRANCH   1  16
BRANCH   2  27
ATOM     27  C   LIG A   1      -9.563   5.006 133.106  0.00  0.00    +0.162 C 
BRANCH  27  28
ATOM     28  O   LIG A   1      -9.595   6.408 133.331  0.00  0.00    -0.395 OA
ATOM     29  H   LIG A   1     -10.466   6.728 133.040  0.00  0.00    +0.209 HD
ENDBRANCH  27  28
ENDBRANCH   2  27
TORSDOF 9
ENDMDL
MODEL 5
REMARK VINA RESULT:      -6.9      1.651      8.673
REMARK  Name = NuBBE_385
REMARK  11 active torsions:
REMARK  status: ('A' for Active; 'I' for Inactive)
REMARK    1  A    between atoms: C_1  and  O_2
REMARK    2  A    between atoms: O_2  and  C_3
REMARK    3  A    between atoms: C_5  and  C_6
REMARK    4  A    between atoms: C_6  and  C_7
REMARK    5  A    between atoms: C_9  and  C_24
REMARK    6  A    between atoms: C_11  and  C_15
REMARK    7  A    between atoms: C_18  and  O_23
REMARK    8  A    between atoms: C_19  and  O_20
REMARK    9  A    between atoms: O_20  and  C_21
REMARK   10  A    between atoms: C_24  and  O_25
REMARK   11  A    between atoms: C_28  and  O_29
REMARK                            x       y       z     vdW  Elec       q    Type
REMARK                         _______ _______ _______ _____ _____    ______ ____
ROOT
ATOM      1  C   LIG A   1      -7.011   1.424 123.804  0.00  0.00    +0.027 C 
ATOM      2  C   LIG A   1      -7.669   0.114 124.262  0.00  0.00    +0.053 C 
ATOM      3  C   LIG A   1      -8.271   0.469 125.630  0.00  0.00    +0.154 C 
ATOM      4  O   LIG A   1      -7.587   1.648 126.092  0.00  0.00    -0.371 OA
ATOM      5  C   LIG A   1      -6.560   1.979 125.149  0.00  0.00    +0.165 C 
ENDROOT
BRANCH   3   6
ATOM      6  C   LIG A   1      -8.133  -0.615 126.679  0.00  0.00    -0.015 A 
ATOM      7  C   LIG A   1      -8.489  -1.944 126.398  0.00  0.00    +0.010 A 
ATOM      8  C   LIG A   1      -8.357  -2.943 127.365  0.00  0.00    +0.049 A 
ATOM      9  C   LIG A   1      -7.865  -2.635 128.632  0.00  0.00    +0.159 A 
ATOM     10  C   LIG A   1      -7.501  -1.314 128.939  0.00  0.00    +0.162 A 
ATOM     11  C   LIG A   1      -7.626  -0.324 127.952  0.00  0.00    +0.055 A 
BRANCH  10  12
ATOM     12  O   LIG A   1      -6.962  -0.860 130.114  0.00  0.00    -0.491 OA
ATOM     13  C   LIG A   1      -7.882  -0.441 131.118  0.00  0.00    +0.277 C 
ENDBRANCH  10  12
BRANCH   9  14
ATOM     14  O   LIG A   1      -7.729  -3.647 129.541  0.00  0.00    -0.503 OA
ATOM     15  H   LIG A   1      -8.548  -4.162 129.569  0.00  0.00    +0.292 HD
ENDBRANCH   9  14
ENDBRANCH   3   6
BRANCH   1  16
ATOM     16  C   LIG A   1      -7.945   2.399 123.057  0.00  0.00    +0.041 C 
BRANCH  16  19
ATOM     17  C   LIG A   1      -7.263   4.304 119.788  0.00  0.00    +0.162 A 
ATOM     18  C   LIG A   1      -7.901   3.566 120.798  0.00  0.00    +0.053 A 
ATOM     19  C   LIG A   1      -7.245   3.216 121.988  0.00  0.00    -0.043 A 
ATOM     20  C   LIG A   1      -5.927   3.645 122.172  0.00  0.00    +0.007 A 
ATOM     21  C   LIG A   1      -5.277   4.382 121.180  0.00  0.00    +0.049 A 
ATOM     22  C   LIG A   1      -5.937   4.707 119.989  0.00  0.00    +0.159 A 
BRANCH  17  24
ATOM     23  C   LIG A   1      -9.467   4.360 118.853  0.00  0.00    +0.277 C 
ATOM     24  O   LIG A   1      -8.064   4.526 118.700  0.00  0.00    -0.491 OA
ENDBRANCH  17  24
BRANCH  22  25
ATOM     25  O   LIG A   1      -5.254   5.421 119.046  0.00  0.00    -0.503 OA
ATOM     26  H   LIG A   1      -4.343   5.089 118.994  0.00  0.00    +0.292 HD
ENDBRANCH  22  25
ENDBRANCH  16  19
ENDBRANCH   1  16
BRANCH   2  27
ATOM     27  C   LIG A   1      -8.671  -0.537 123.321  0.00  0.00    +0.162 C 
BRANCH  27  28
ATOM     28  O   LIG A   1      -8.031  -1.591 122.614  0.00  0.00    -0.395 OA
ATOM     29  H   LIG A   1      -8.401  -1.601 121.714  0.00  0.00    +0.209 HD
ENDBRANCH  27  28
ENDBRANCH   2  27
TORSDOF 9
ENDMDL
MODEL 6
REMARK VINA RESULT:      -6.8      7.552      9.435
REMARK  Name = NuBBE_385
REMARK  11 active torsions:
REMARK  status: ('A' for Active; 'I' for Inactive)
REMARK    1  A    between atoms: C_1  and  O_2
REMARK    2  A    between atoms: O_2  and  C_3
REMARK    3  A    between atoms: C_5  and  C_6
REMARK    4  A    between atoms: C_6  and  C_7
REMARK    5  A    between atoms: C_9  and  C_24
REMARK    6  A    between atoms: C_11  and  C_15
REMARK    7  A    between atoms: C_18  and  O_23
REMARK    8  A    between atoms: C_19  and  O_20
REMARK    9  A    between atoms: O_20  and  C_21
REMARK   10  A    between atoms: C_24  and  O_25
REMARK   11  A    between atoms: C_28  and  O_29
REMARK                            x       y       z     vdW  Elec       q    Type
REMARK                         _______ _______ _______ _____ _____    ______ ____
ROOT
ATOM      1  C   LIG A   1      -8.513   3.997 131.017  0.00  0.00    +0.027 C 
ATOM      2  C   LIG A   1      -8.957   5.439 131.299  0.00  0.00    +0.053 C 
ATOM      3  C   LIG A   1     -10.490   5.365 131.239  0.00  0.00    +0.154 C 
ATOM      4  O   LIG A   1     -10.821   4.170 130.508  0.00  0.00    -0.371 OA
ATOM      5  C   LIG A   1      -9.605   3.566 130.047  0.00  0.00    +0.165 C 
ENDROOT
BRANCH   3   6
ATOM      6  C   LIG A   1     -11.152   6.548 130.563  0.00  0.00    -0.015 A 
ATOM      7  C   LIG A   1     -12.272   7.173 131.132  0.00  0.00    +0.010 A 
ATOM      8  C   LIG A   1     -12.878   8.267 130.509  0.00  0.00    +0.049 A 
ATOM      9  C   LIG A   1     -12.376   8.758 129.306  0.00  0.00    +0.159 A 
ATOM     10  C   LIG A   1     -11.257   8.150 128.715  0.00  0.00    +0.162 A 
ATOM     11  C   LIG A   1     -10.650   7.062 129.360  0.00  0.00    +0.055 A 
BRANCH  10  12
ATOM     12  O   LIG A   1     -10.619   8.539 127.567  0.00  0.00    -0.491 OA
ATOM     13  C   LIG A   1     -10.888   7.771 126.396  0.00  0.00    +0.277 C 
ENDBRANCH  10  12
BRANCH   9  14
ATOM     14  O   LIG A   1     -12.985   9.845 128.742  0.00  0.00    -0.503 OA
ATOM     15  H   LIG A   1     -13.007  10.567 129.386  0.00  0.00    +0.292 HD
ENDBRANCH   9  14
ENDBRANCH   3   6
BRANCH   1  16
ATOM     16  C   LIG A   1      -8.442   3.079 132.256  0.00  0.00    +0.041 C 
BRANCH  16  19
ATOM     17  C   LIG A   1      -4.606   2.837 132.325  0.00  0.00    +0.162 A 
ATOM     18  C   LIG A   1      -5.922   3.117 131.922  0.00  0.00    +0.053 A 
ATOM     19  C   LIG A   1      -7.028   2.788 132.720  0.00  0.00    -0.043 A 
ATOM     20  C   LIG A   1      -6.797   2.192 133.964  0.00  0.00    +0.007 A 
ATOM     21  C   LIG A   1      -5.496   1.909 134.382  0.00  0.00    +0.049 A 
ATOM     22  C   LIG A   1      -4.403   2.224 133.567  0.00  0.00    +0.159 A 
BRANCH  17  24
ATOM     23  C   LIG A   1      -4.082   4.064 130.337  0.00  0.00    +0.277 C 
ATOM     24  O   LIG A   1      -3.671   3.216 131.399  0.00  0.00    -0.491 OA
ENDBRANCH  17  24
BRANCH  22  25
ATOM     25  O   LIG A   1      -3.150   1.917 134.018  0.00  0.00    -0.503 OA
ATOM     26  H   LIG A   1      -2.950   0.993 133.797  0.00  0.00    +0.292 HD
ENDBRANCH  22  25
ENDBRANCH  16  19
ENDBRANCH   1  16
BRANCH   2  27
ATOM     27  C   LIG A   1      -8.441   6.099 132.569  0.00  0.00    +0.162 C 
BRANCH  27  28
ATOM     28  O   LIG A   1      -9.516   6.246 133.488  0.00  0.00    -0.395 OA
ATOM     29  H   LIG A   1      -9.934   7.106 133.308  0.00  0.00    +0.209 HD
ENDBRANCH  27  28
ENDBRANCH   2  27
TORSDOF 9
ENDMDL
MODEL 7
REMARK VINA RESULT:      -6.8      3.265      8.409
REMARK  Name = NuBBE_385
REMARK  11 active torsions:
REMARK  status: ('A' for Active; 'I' for Inactive)
REMARK    1  A    between atoms: C_1  and  O_2
REMARK    2  A    between atoms: O_2  and  C_3
REMARK    3  A    between atoms: C_5  and  C_6
REMARK    4  A    between atoms: C_6  and  C_7
REMARK    5  A    between atoms: C_9  and  C_24
REMARK    6  A    between atoms: C_11  and  C_15
REMARK    7  A    between atoms: C_18  and  O_23
REMARK    8  A    between atoms: C_19  and  O_20
REMARK    9  A    between atoms: O_20  and  C_21
REMARK   10  A    between atoms: C_24  and  O_25
REMARK   11  A    between atoms: C_28  and  O_29
REMARK                            x       y       z     vdW  Elec       q    Type
REMARK                         _______ _______ _______ _____ _____    ______ ____
ROOT
ATOM      1  C   LIG A   1      -7.121   4.061 124.923  0.00  0.00    +0.027 C 
ATOM      2  C   LIG A   1      -6.786   4.129 126.420  0.00  0.00    +0.053 C 
ATOM      3  C   LIG A   1      -7.409   2.846 126.990  0.00  0.00    +0.154 C 
ATOM      4  O   LIG A   1      -8.398   2.406 126.041  0.00  0.00    -0.371 OA
ATOM      5  C   LIG A   1      -8.478   3.372 124.985  0.00  0.00    +0.165 C 
ENDROOT
BRANCH   3   6
ATOM      6  C   LIG A   1      -8.075   3.016 128.340  0.00  0.00    -0.015 A 
ATOM      7  C   LIG A   1      -8.316   1.911 129.172  0.00  0.00    +0.010 A 
ATOM      8  C   LIG A   1      -8.925   2.071 130.419  0.00  0.00    +0.049 A 
ATOM      9  C   LIG A   1      -9.305   3.337 130.860  0.00  0.00    +0.159 A 
ATOM     10  C   LIG A   1      -9.074   4.458 130.047  0.00  0.00    +0.162 A 
ATOM     11  C   LIG A   1      -8.448   4.284 128.804  0.00  0.00    +0.055 A 
BRANCH  10  12
ATOM     12  O   LIG A   1      -9.343   5.766 130.353  0.00  0.00    -0.491 OA
ATOM     13  C   LIG A   1      -9.973   6.542 129.336  0.00  0.00    +0.277 C 
ENDBRANCH  10  12
BRANCH   9  14
ATOM     14  O   LIG A   1      -9.876   3.451 132.097  0.00  0.00    -0.503 OA
ATOM     15  H   LIG A   1      -9.645   4.311 132.476  0.00  0.00    +0.292 HD
ENDBRANCH   9  14
ENDBRANCH   3   6
BRANCH   1  16
ATOM     16  C   LIG A   1      -6.111   3.275 124.060  0.00  0.00    +0.041 C 
BRANCH  16  19
ATOM     17  C   LIG A   1      -6.601   4.264 120.378  0.00  0.00    +0.162 A 
ATOM     18  C   LIG A   1      -6.811   3.726 121.658  0.00  0.00    +0.053 A 
ATOM     19  C   LIG A   1      -5.875   3.883 122.691  0.00  0.00    -0.043 A 
ATOM     20  C   LIG A   1      -4.717   4.624 122.433  0.00  0.00    +0.007 A 
ATOM     21  C   LIG A   1      -4.493   5.169 121.168  0.00  0.00    +0.049 A 
ATOM     22  C   LIG A   1      -5.427   4.987 120.140  0.00  0.00    +0.159 A 
BRANCH  17  24
ATOM     23  C   LIG A   1      -8.950   3.983 120.005  0.00  0.00    +0.277 C 
ATOM     24  O   LIG A   1      -7.620   3.984 119.507  0.00  0.00    -0.491 OA
ENDBRANCH  17  24
BRANCH  22  25
ATOM     25  O   LIG A   1      -5.155   5.531 118.917  0.00  0.00    -0.503 OA
ATOM     26  H   LIG A   1      -5.421   4.904 118.224  0.00  0.00    +0.292 HD
ENDBRANCH  22  25
ENDBRANCH  16  19
ENDBRANCH   1  16
BRANCH   2  27
ATOM     27  C   LIG A   1      -5.325   4.304 126.806  0.00  0.00    +0.162 C 
BRANCH  27  28
ATOM     28  O   LIG A   1      -5.218   5.345 127.768  0.00  0.00    -0.395 OA
ATOM     29  H   LIG A   1      -6.113   5.700 127.910  0.00  0.00    +0.209 HD
ENDBRANCH  27  28
ENDBRANCH   2  27
TORSDOF 9
ENDMDL
MODEL 8
REMARK VINA RESULT:      -6.8      6.486      8.780
REMARK  Name = NuBBE_385
REMARK  11 active torsions:
REMARK  status: ('A' for Active; 'I' for Inactive)
REMARK    1  A    between atoms: C_1  and  O_2
REMARK    2  A    between atoms: O_2  and  C_3
REMARK    3  A    between atoms: C_5  and  C_6
REMARK    4  A    between atoms: C_6  and  C_7
REMARK    5  A    between atoms: C_9  and  C_24
REMARK    6  A    between atoms: C_11  and  C_15
REMARK    7  A    between atoms: C_18  and  O_23
REMARK    8  A    between atoms: C_19  and  O_20
REMARK    9  A    between atoms: O_20  and  C_21
REMARK   10  A    between atoms: C_24  and  O_25
REMARK   11  A    between atoms: C_28  and  O_29
REMARK                            x       y       z     vdW  Elec       q    Type
REMARK                         _______ _______ _______ _____ _____    ______ ____
ROOT
ATOM      1  C   LIG A   1      -3.565   4.254 128.888  0.00  0.00    +0.027 C 
ATOM      2  C   LIG A   1      -3.443   3.694 127.463  0.00  0.00    +0.053 C 
ATOM      3  C   LIG A   1      -4.481   4.498 126.667  0.00  0.00    +0.154 C 
ATOM      4  O   LIG A   1      -5.407   5.044 127.623  0.00  0.00    -0.371 OA
ATOM      5  C   LIG A   1      -5.057   4.560 128.926  0.00  0.00    +0.165 C 
ENDROOT
BRANCH   3   6
ATOM      6  C   LIG A   1      -5.257   3.688 125.648  0.00  0.00    -0.015 A 
ATOM      7  C   LIG A   1      -5.809   2.442 125.982  0.00  0.00    +0.010 A 
ATOM      8  C   LIG A   1      -6.529   1.700 125.042  0.00  0.00    +0.049 A 
ATOM      9  C   LIG A   1      -6.710   2.188 123.750  0.00  0.00    +0.159 A 
ATOM     10  C   LIG A   1      -6.168   3.432 123.390  0.00  0.00    +0.162 A 
ATOM     11  C   LIG A   1      -5.461   4.173 124.349  0.00  0.00    +0.055 A 
BRANCH  10  12
ATOM     12  O   LIG A   1      -6.297   4.068 122.183  0.00  0.00    -0.491 OA
ATOM     13  C   LIG A   1      -5.284   3.809 121.214  0.00  0.00    +0.277 C 
ENDBRANCH  10  12
BRANCH   9  14
ATOM     14  O   LIG A   1      -7.440   1.440 122.869  0.00  0.00    -0.503 OA
ATOM     15  H   LIG A   1      -8.170   1.015 123.340  0.00  0.00    +0.292 HD
ENDBRANCH   9  14
ENDBRANCH   3   6
BRANCH   1  16
ATOM     16  C   LIG A   1      -2.708   5.505 129.176  0.00  0.00    +0.041 C 
BRANCH  16  19
ATOM     17  C   LIG A   1      -1.584   7.089 132.493  0.00  0.00    +0.162 A 
ATOM     18  C   LIG A   1      -1.941   6.917 131.146  0.00  0.00    +0.053 A 
ATOM     19  C   LIG A   1      -2.349   5.674 130.639  0.00  0.00    -0.043 A 
ATOM     20  C   LIG A   1      -2.425   4.589 131.519  0.00  0.00    +0.007 A 
ATOM     21  C   LIG A   1      -2.077   4.742 132.862  0.00  0.00    +0.049 A 
ATOM     22  C   LIG A   1      -1.652   5.984 133.350  0.00  0.00    +0.159 A 
BRANCH  17  24
ATOM     23  C   LIG A   1      -2.206   9.340 133.019  0.00  0.00    +0.277 C 
ATOM     24  O   LIG A   1      -1.197   8.369 132.785  0.00  0.00    -0.491 OA
ENDBRANCH  17  24
BRANCH  22  25
ATOM     25  O   LIG A   1      -1.314   6.078 134.670  0.00  0.00    -0.503 OA
ATOM     26  H   LIG A   1      -1.413   7.001 134.958  0.00  0.00    +0.292 HD
ENDBRANCH  22  25
ENDBRANCH  16  19
ENDBRANCH   1  16
BRANCH   2  27
ATOM     27  C   LIG A   1      -2.064   3.700 126.821  0.00  0.00    +0.162 C 
BRANCH  27  28
ATOM     28  O   LIG A   1      -1.483   2.409 126.950  0.00  0.00    -0.395 OA
ATOM     29  H   LIG A   1      -0.618   2.523 127.381  0.00  0.00    +0.209 HD
ENDBRANCH  27  28
ENDBRANCH   2  27
TORSDOF 9
ENDMDL
MODEL 9
REMARK VINA RESULT:      -6.7      8.352     12.381
REMARK  Name = NuBBE_385
REMARK  11 active torsions:
REMARK  status: ('A' for Active; 'I' for Inactive)
REMARK    1  A    between atoms: C_1  and  O_2
REMARK    2  A    between atoms: O_2  and  C_3
REMARK    3  A    between atoms: C_5  and  C_6
REMARK    4  A    between atoms: C_6  and  C_7
REMARK    5  A    between atoms: C_9  and  C_24
REMARK    6  A    between atoms: C_11  and  C_15
REMARK    7  A    between atoms: C_18  and  O_23
REMARK    8  A    between atoms: C_19  and  O_20
REMARK    9  A    between atoms: O_20  and  C_21
REMARK   10  A    between atoms: C_24  and  O_25
REMARK   11  A    between atoms: C_28  and  O_29
REMARK                            x       y       z     vdW  Elec       q    Type
REMARK                         _______ _______ _______ _____ _____    ______ ____
ROOT
ATOM      1  C   LIG A   1      -9.480   5.041 130.957  0.00  0.00    +0.027 C 
ATOM      2  C   LIG A   1      -8.972   4.066 132.029  0.00  0.00    +0.053 C 
ATOM      3  C   LIG A   1      -9.091   4.867 133.334  0.00  0.00    +0.154 C 
ATOM      4  O   LIG A   1      -9.154   6.257 132.965  0.00  0.00    -0.371 OA
ATOM      5  C   LIG A   1      -8.994   6.360 131.545  0.00  0.00    +0.165 C 
ENDROOT
BRANCH   3   6
ATOM      6  C   LIG A   1      -7.940   4.672 134.299  0.00  0.00    -0.015 A 
ATOM      7  C   LIG A   1      -6.982   3.667 134.090  0.00  0.00    +0.010 A 
ATOM      8  C   LIG A   1      -5.918   3.492 134.978  0.00  0.00    +0.049 A 
ATOM      9  C   LIG A   1      -5.791   4.317 136.094  0.00  0.00    +0.159 A 
ATOM     10  C   LIG A   1      -6.735   5.330 136.326  0.00  0.00    +0.162 A 
ATOM     11  C   LIG A   1      -7.789   5.503 135.417  0.00  0.00    +0.055 A 
BRANCH  10  12
ATOM     12  O   LIG A   1      -6.725   6.247 137.344  0.00  0.00    -0.491 OA
ATOM     13  C   LIG A   1      -7.993   6.626 137.874  0.00  0.00    +0.277 C 
ENDBRANCH  10  12
BRANCH   9  14
ATOM     14  O   LIG A   1      -4.722   4.127 136.925  0.00  0.00    -0.503 OA
ATOM     15  H   LIG A   1      -4.206   3.371 136.612  0.00  0.00    +0.292 HD
ENDBRANCH   9  14
ENDBRANCH   3   6
BRANCH   1  16
ATOM     16  C   LIG A   1     -11.008   5.033 130.735  0.00  0.00    +0.041 C 
BRANCH  16  19
ATOM     17  C   LIG A   1     -11.783   8.072 128.512  0.00  0.00    +0.162 A 
ATOM     18  C   LIG A   1     -11.296   6.835 128.965  0.00  0.00    +0.053 A 
ATOM     19  C   LIG A   1     -11.562   6.361 130.259  0.00  0.00    -0.043 A 
ATOM     20  C   LIG A   1     -12.361   7.141 131.101  0.00  0.00    +0.007 A 
ATOM     21  C   LIG A   1     -12.856   8.371 130.667  0.00  0.00    +0.049 A 
ATOM     22  C   LIG A   1     -12.566   8.841 129.381  0.00  0.00    +0.159 A 
BRANCH  17  24
ATOM     23  C   LIG A   1     -10.698   7.367 126.497  0.00  0.00    +0.277 C 
ATOM     24  O   LIG A   1     -11.398   8.361 127.230  0.00  0.00    -0.491 OA
ENDBRANCH  17  24
BRANCH  22  25
ATOM     25  O   LIG A   1     -13.067  10.056 129.008  0.00  0.00    -0.503 OA
ATOM     26  H   LIG A   1     -13.759  10.321 129.636  0.00  0.00    +0.292 HD
ENDBRANCH  22  25
ENDBRANCH  16  19
ENDBRANCH   1  16
BRANCH   2  27
ATOM     27  C   LIG A   1      -9.634   2.698 132.106  0.00  0.00    +0.162 C 
BRANCH  27  28
ATOM     28  O   LIG A   1      -9.272   1.940 130.960  0.00  0.00    -0.395 OA
ATOM     29  H   LIG A   1      -9.640   2.396 130.183  0.00  0.00    +0.209 HD
ENDBRANCH  27  28
ENDBRANCH   2  27
TORSDOF 9
ENDMDL
