MODEL 1
REMARK VINA RESULT:      -9.1      0.000      0.000
REMARK  Name = NuBBE_543
REMARK  19 active torsions:
REMARK  status: ('A' for Active; 'I' for Inactive)
REMARK    1  A    between atoms: C_1  and  C_2
REMARK    2  A    between atoms: C_2  and  C_58
REMARK    3  A    between atoms: C_5  and  C_39
REMARK    4  A    between atoms: C_8  and  C_38
REMARK    5  A    between atoms: C_9  and  C_37
REMARK    6  A    between atoms: C_14  and  C_15
REMARK    7  A    between atoms: C_14  and  C_36
REMARK    8  A    between atoms: C_15  and  O_16
REMARK    9  A    between atoms: C_17  and  O_35
REMARK   10  A    between atoms: C_19  and  O_34
REMARK   11  A    between atoms: C_22  and  C_33
REMARK   12  A    between atoms: C_30  and  O_32
REMARK   13  A    between atoms: C_39  and  O_40
REMARK   14  A    between atoms: O_40  and  C_41
REMARK   15  A    between atoms: C_44  and  C_52
REMARK   16  A    between atoms: C_46  and  O_51
REMARK   17  A    between atoms: C_48  and  O_50
REMARK   18  A    between atoms: C_52  and  O_53
REMARK   19  A    between atoms: C_54  and  O_56
REMARK                            x       y       z     vdW  Elec       q    Type
REMARK                         _______ _______ _______ _____ _____    ______ ____
ROOT
ATOM      1  C   LIG A   1      -6.674  -4.801 135.284  0.00  0.00    +0.013 C 
ATOM      2  C   LIG A   1      -5.733  -4.142 134.251  0.00  0.00    -0.008 C 
ATOM      3  C   LIG A   1      -5.149  -2.849 134.864  0.00  0.00    +0.010 C 
ATOM      4  C   LIG A   1      -4.404  -1.955 133.864  0.00  0.00    +0.019 C 
ATOM      5  C   LIG A   1      -5.242  -1.591 132.611  0.00  0.00    +0.077 C 
ATOM      6  C   LIG A   1      -4.327  -0.877 131.596  0.00  0.00    +0.019 C 
ATOM      7  C   LIG A   1      -5.127  -0.461 130.367  0.00  0.00    +0.012 C 
ATOM      8  C   LIG A   1      -5.849  -1.619 129.617  0.00  0.00    -0.005 C 
ATOM      9  C   LIG A   1      -7.192  -1.098 128.888  0.00  0.00    -0.019 C 
ATOM     10  C   LIG A   1      -7.018   0.297 128.215  0.00  0.00    +0.008 C 
ATOM     11  C   LIG A   1      -6.926   0.339 126.711  0.00  0.00    +0.005 C 
ATOM     12  C   LIG A   1      -8.043  -0.503 126.091  0.00  0.00    +0.006 C 
ATOM     13  C   LIG A   1      -8.409  -0.053 124.632  0.00  0.00    +0.023 C 
ATOM     14  C   LIG A   1      -9.433  -1.045 124.021  0.00  0.00    +0.151 C 
ATOM     15  C   LIG A   1      -9.054  -2.519 124.202  0.00  0.00    +0.144 C 
ATOM     16  C   LIG A   1      -8.866  -2.869 125.680  0.00  0.00    +0.041 C 
ATOM     17  C   LIG A   1      -7.758  -2.025 126.374  0.00  0.00    -0.022 C 
ATOM     18  C   LIG A   1      -7.847  -2.216 127.961  0.00  0.00    +0.006 C 
ATOM     19  C   LIG A   1      -7.599  -3.655 128.508  0.00  0.00    +0.031 C 
ATOM     20  C   LIG A   1      -7.065  -3.737 129.925  0.00  0.00    -0.026 C 
ATOM     21  C   LIG A   1      -6.272  -2.802 130.502  0.00  0.00    -0.060 C 
ATOM     22  C   LIG A   1      -5.713  -2.928 131.933  0.00  0.00    +0.061 C 
ATOM     23  C   LIG A   1      -6.495  -3.863 132.918  0.00  0.00    +0.128 C 
ATOM     24  C   LIG A   1      -6.411  -2.520 125.801  0.00  0.00    +0.012 C 
ATOM     25  C   LIG A   1      -7.169   0.126 123.727  0.00  0.00    +0.016 C 
ATOM     26  C   LIG A   1      -8.296  -0.822 130.002  0.00  0.00    +0.012 C 
ATOM     27  C   LIG A   1      -4.760  -2.149 128.647  0.00  0.00    +0.016 C 
ATOM     28  C   LIG A   1      -4.590  -5.151 133.986  0.00  0.00    +0.013 C 
ENDROOT
BRANCH  23  29
ATOM     29  O   LIG A   1      -7.818  -3.393 133.165  0.00  0.00    -0.391 OA
ATOM     30  H   LIG A   1      -7.780  -2.483 133.520  0.00  0.00    +0.210 HD
ENDBRANCH  23  29
BRANCH  15  31
ATOM     31  O   LIG A   1     -10.111  -3.326 123.668  0.00  0.00    -0.389 OA
ATOM     32  H   LIG A   1     -10.908  -3.032 124.154  0.00  0.00    +0.210 HD
ENDBRANCH  15  31
BRANCH  14  33
ATOM     33  O   LIG A   1      -9.635  -0.810 122.620  0.00  0.00    -0.389 OA
ATOM     34  H   LIG A   1      -9.934   0.125 122.551  0.00  0.00    +0.210 HD
ENDBRANCH  14  33
BRANCH   5  35
ATOM     35  C   LIG A   1      -6.356  -0.620 133.063  0.00  0.00    +0.316 C 
ATOM     36  O   LIG A   1      -7.334  -0.966 133.744  0.00  0.00    -0.250 OA
BRANCH  35  37
ATOM     37  O   LIG A   1      -6.113   0.670 132.729  0.00  0.00    -0.432 OA
BRANCH  37  38
ATOM     38  C   LIG A   1      -6.607   1.771 133.536  0.00  0.00    +0.342 C 
ATOM     39  O   LIG A   1      -8.060   1.758 133.403  0.00  0.00    -0.331 OA
ATOM     40  C   LIG A   1      -8.580   2.577 132.334  0.00  0.00    +0.179 C 
ATOM     41  C   LIG A   1      -7.568   2.637 131.185  0.00  0.00    +0.177 C 
ATOM     42  C   LIG A   1      -6.390   3.492 131.692  0.00  0.00    +0.180 C 
ATOM     43  C   LIG A   1      -6.003   3.141 133.139  0.00  0.00    +0.214 C 
BRANCH  42  44
ATOM     44  O   LIG A   1      -5.252   3.303 130.842  0.00  0.00    -0.386 OA
ATOM     45  H   LIG A   1      -5.509   2.650 130.166  0.00  0.00    +0.210 HD
ENDBRANCH  42  44
BRANCH  41  46
ATOM     46  O   LIG A   1      -8.069   3.202 129.977  0.00  0.00    -0.387 OA
ATOM     47  H   LIG A   1      -8.033   4.174 130.078  0.00  0.00    +0.210 HD
ENDBRANCH  41  46
BRANCH  43  48
ATOM     48  O   LIG A   1      -6.454   4.174 134.031  0.00  0.00    -0.383 OA
ATOM     49  H   LIG A   1      -7.423   4.076 134.084  0.00  0.00    +0.210 HD
ENDBRANCH  43  48
BRANCH  40  50
ATOM     50  C   LIG A   1      -9.969   2.074 131.910  0.00  0.00    +0.190 C 
BRANCH  50  51
ATOM     51  O   LIG A   1     -10.726   3.064 131.218  0.00  0.00    -0.392 OA
ATOM     52  H   LIG A   1     -10.454   3.937 131.553  0.00  0.00    +0.209 HD
ENDBRANCH  50  51
ENDBRANCH  40  50
ENDBRANCH  37  38
ENDBRANCH  35  37
ENDBRANCH   5  35
BRANCH  13  53
ATOM     53  C   LIG A   1      -9.123   1.340 124.713  0.00  0.00    +0.165 C 
BRANCH  53  54
ATOM     54  O   LIG A   1     -10.510   1.226 124.397  0.00  0.00    -0.394 OA
ATOM     55  H   LIG A   1     -10.580   1.300 123.427  0.00  0.00    +0.209 HD
ENDBRANCH  53  54
ENDBRANCH  13  53
TORSDOF 13
ENDMDL
MODEL 2
REMARK VINA RESULT:      -9.0      1.431      2.205
REMARK  Name = NuBBE_543
REMARK  19 active torsions:
REMARK  status: ('A' for Active; 'I' for Inactive)
REMARK    1  A    between atoms: C_1  and  C_2
REMARK    2  A    between atoms: C_2  and  C_58
REMARK    3  A    between atoms: C_5  and  C_39
REMARK    4  A    between atoms: C_8  and  C_38
REMARK    5  A    between atoms: C_9  and  C_37
REMARK    6  A    between atoms: C_14  and  C_15
REMARK    7  A    between atoms: C_14  and  C_36
REMARK    8  A    between atoms: C_15  and  O_16
REMARK    9  A    between atoms: C_17  and  O_35
REMARK   10  A    between atoms: C_19  and  O_34
REMARK   11  A    between atoms: C_22  and  C_33
REMARK   12  A    between atoms: C_30  and  O_32
REMARK   13  A    between atoms: C_39  and  O_40
REMARK   14  A    between atoms: O_40  and  C_41
REMARK   15  A    between atoms: C_44  and  C_52
REMARK   16  A    between atoms: C_46  and  O_51
REMARK   17  A    between atoms: C_48  and  O_50
REMARK   18  A    between atoms: C_52  and  O_53
REMARK   19  A    between atoms: C_54  and  O_56
REMARK                            x       y       z     vdW  Elec       q    Type
REMARK                         _______ _______ _______ _____ _____    ______ ____
ROOT
ATOM      1  C   LIG A   1      -6.839  -4.868 135.521  0.00  0.00    +0.013 C 
ATOM      2  C   LIG A   1      -5.831  -4.252 134.525  0.00  0.00    -0.008 C 
ATOM      3  C   LIG A   1      -5.149  -3.037 135.196  0.00  0.00    +0.010 C 
ATOM      4  C   LIG A   1      -4.317  -2.171 134.240  0.00  0.00    +0.019 C 
ATOM      5  C   LIG A   1      -5.103  -1.690 132.994  0.00  0.00    +0.077 C 
ATOM      6  C   LIG A   1      -4.117  -1.017 132.018  0.00  0.00    +0.019 C 
ATOM      7  C   LIG A   1      -4.861  -0.488 130.798  0.00  0.00    +0.012 C 
ATOM      8  C   LIG A   1      -5.667  -1.550 129.994  0.00  0.00    -0.005 C 
ATOM      9  C   LIG A   1      -6.950  -0.889 129.271  0.00  0.00    -0.019 C 
ATOM     10  C   LIG A   1      -6.649   0.510 128.656  0.00  0.00    +0.008 C 
ATOM     11  C   LIG A   1      -6.532   0.603 127.156  0.00  0.00    +0.005 C 
ATOM     12  C   LIG A   1      -7.707  -0.117 126.491  0.00  0.00    +0.006 C 
ATOM     13  C   LIG A   1      -8.013   0.418 125.047  0.00  0.00    +0.023 C 
ATOM     14  C   LIG A   1      -9.107  -0.459 124.386  0.00  0.00    +0.151 C 
ATOM     15  C   LIG A   1      -8.857  -1.966 124.511  0.00  0.00    +0.144 C 
ATOM     16  C   LIG A   1      -8.721  -2.388 125.977  0.00  0.00    +0.041 C 
ATOM     17  C   LIG A   1      -7.555  -1.668 126.716  0.00  0.00    -0.022 C 
ATOM     18  C   LIG A   1      -7.683  -1.912 128.294  0.00  0.00    +0.006 C 
ATOM     19  C   LIG A   1      -7.565  -3.387 128.786  0.00  0.00    +0.031 C 
ATOM     20  C   LIG A   1      -7.060  -3.568 130.204  0.00  0.00    -0.026 C 
ATOM     21  C   LIG A   1      -6.200  -2.727 130.827  0.00  0.00    -0.060 C 
ATOM     22  C   LIG A   1      -5.674  -2.954 132.258  0.00  0.00    +0.061 C 
ATOM     23  C   LIG A   1      -6.547  -3.858 133.196  0.00  0.00    +0.128 C 
ATOM     24  C   LIG A   1      -6.246  -2.253 126.139  0.00  0.00    +0.012 C 
ATOM     25  C   LIG A   1      -6.749   0.526 124.163  0.00  0.00    +0.016 C 
ATOM     26  C   LIG A   1      -8.043  -0.564 130.383  0.00  0.00    +0.012 C 
ATOM     27  C   LIG A   1      -4.612  -2.133 129.016  0.00  0.00    +0.016 C 
ATOM     28  C   LIG A   1      -4.773  -5.342 134.233  0.00  0.00    +0.013 C 
ENDROOT
BRANCH  23  29
ATOM     29  O   LIG A   1      -7.829  -3.287 133.446  0.00  0.00    -0.391 OA
ATOM     30  H   LIG A   1      -7.721  -2.371 133.770  0.00  0.00    +0.210 HD
ENDBRANCH  23  29
BRANCH  15  31
ATOM     31  O   LIG A   1      -9.969  -2.659 123.934  0.00  0.00    -0.389 OA
ATOM     32  H   LIG A   1     -10.083  -3.449 124.502  0.00  0.00    +0.210 HD
ENDBRANCH  15  31
BRANCH  14  33
ATOM     33  O   LIG A   1      -9.269  -0.154 122.992  0.00  0.00    -0.389 OA
ATOM     34  H   LIG A   1     -10.164   0.247 122.913  0.00  0.00    +0.210 HD
ENDBRANCH  14  33
BRANCH   5  35
ATOM     35  C   LIG A   1      -6.138  -0.646 133.471  0.00  0.00    +0.316 C 
ATOM     36  O   LIG A   1      -7.365  -0.817 133.409  0.00  0.00    -0.250 OA
BRANCH  35  37
ATOM     37  O   LIG A   1      -5.576   0.438 134.059  0.00  0.00    -0.432 OA
BRANCH  37  38
ATOM     38  C   LIG A   1      -6.202   1.746 133.999  0.00  0.00    +0.342 C 
ATOM     39  O   LIG A   1      -6.013   2.231 132.636  0.00  0.00    -0.331 OA
ATOM     40  C   LIG A   1      -4.821   3.019 132.431  0.00  0.00    +0.179 C 
ATOM     41  C   LIG A   1      -3.718   2.551 133.385  0.00  0.00    +0.177 C 
ATOM     42  C   LIG A   1      -4.150   2.995 134.797  0.00  0.00    +0.180 C 
ATOM     43  C   LIG A   1      -5.646   2.740 135.049  0.00  0.00    +0.214 C 
BRANCH  42  44
ATOM     44  O   LIG A   1      -3.381   2.295 135.783  0.00  0.00    -0.386 OA
ATOM     45  H   LIG A   1      -3.921   1.538 136.077  0.00  0.00    +0.210 HD
ENDBRANCH  42  44
BRANCH  41  46
ATOM     46  O   LIG A   1      -2.424   3.078 133.106  0.00  0.00    -0.387 OA
ATOM     47  H   LIG A   1      -1.860   2.326 132.837  0.00  0.00    +0.210 HD
ENDBRANCH  41  46
BRANCH  43  48
ATOM     48  O   LIG A   1      -6.368   3.983 135.006  0.00  0.00    -0.383 OA
ATOM     49  H   LIG A   1      -5.777   4.619 134.563  0.00  0.00    +0.210 HD
ENDBRANCH  43  48
BRANCH  40  50
ATOM     50  C   LIG A   1      -4.415   2.987 130.950  0.00  0.00    +0.190 C 
BRANCH  50  51
ATOM     51  O   LIG A   1      -3.501   4.026 130.607  0.00  0.00    -0.392 OA
ATOM     52  H   LIG A   1      -3.524   4.137 129.640  0.00  0.00    +0.209 HD
ENDBRANCH  50  51
ENDBRANCH  40  50
ENDBRANCH  37  38
ENDBRANCH  35  37
ENDBRANCH   5  35
BRANCH  13  53
ATOM     53  C   LIG A   1      -8.608   1.862 125.175  0.00  0.00    +0.165 C 
BRANCH  53  54
ATOM     54  O   LIG A   1      -9.970   1.896 124.752  0.00  0.00    -0.394 OA
ATOM     55  H   LIG A   1     -10.512   1.751 125.550  0.00  0.00    +0.209 HD
ENDBRANCH  53  54
ENDBRANCH  13  53
TORSDOF 13
ENDMDL
MODEL 3
REMARK VINA RESULT:      -8.9      4.937     10.612
REMARK  Name = NuBBE_543
REMARK  19 active torsions:
REMARK  status: ('A' for Active; 'I' for Inactive)
REMARK    1  A    between atoms: C_1  and  C_2
REMARK    2  A    between atoms: C_2  and  C_58
REMARK    3  A    between atoms: C_5  and  C_39
REMARK    4  A    between atoms: C_8  and  C_38
REMARK    5  A    between atoms: C_9  and  C_37
REMARK    6  A    between atoms: C_14  and  C_15
REMARK    7  A    between atoms: C_14  and  C_36
REMARK    8  A    between atoms: C_15  and  O_16
REMARK    9  A    between atoms: C_17  and  O_35
REMARK   10  A    between atoms: C_19  and  O_34
REMARK   11  A    between atoms: C_22  and  C_33
REMARK   12  A    between atoms: C_30  and  O_32
REMARK   13  A    between atoms: C_39  and  O_40
REMARK   14  A    between atoms: O_40  and  C_41
REMARK   15  A    between atoms: C_44  and  C_52
REMARK   16  A    between atoms: C_46  and  O_51
REMARK   17  A    between atoms: C_48  and  O_50
REMARK   18  A    between atoms: C_52  and  O_53
REMARK   19  A    between atoms: C_54  and  O_56
REMARK                            x       y       z     vdW  Elec       q    Type
REMARK                         _______ _______ _______ _____ _____    ______ ____
ROOT
ATOM      1  C   LIG A   1      -4.087   4.140 125.531  0.00  0.00    +0.013 C 
ATOM      2  C   LIG A   1      -3.624   3.536 126.876  0.00  0.00    -0.008 C 
ATOM      3  C   LIG A   1      -4.569   2.370 127.249  0.00  0.00    +0.010 C 
ATOM      4  C   LIG A   1      -4.392   1.845 128.680  0.00  0.00    +0.019 C 
ATOM      5  C   LIG A   1      -4.491   2.948 129.764  0.00  0.00    +0.077 C 
ATOM      6  C   LIG A   1      -4.090   2.342 131.123  0.00  0.00    +0.019 C 
ATOM      7  C   LIG A   1      -4.220   3.387 132.226  0.00  0.00    +0.012 C 
ATOM      8  C   LIG A   1      -3.379   4.681 132.022  0.00  0.00    -0.005 C 
ATOM      9  C   LIG A   1      -4.088   5.956 132.714  0.00  0.00    -0.019 C 
ATOM     10  C   LIG A   1      -4.712   5.626 134.103  0.00  0.00    +0.008 C 
ATOM     11  C   LIG A   1      -3.998   6.138 135.328  0.00  0.00    +0.005 C 
ATOM     12  C   LIG A   1      -3.645   7.616 135.152  0.00  0.00    +0.006 C 
ATOM     13  C   LIG A   1      -3.478   8.371 136.519  0.00  0.00    +0.023 C 
ATOM     14  C   LIG A   1      -2.974   9.814 136.261  0.00  0.00    +0.151 C 
ATOM     15  C   LIG A   1      -1.788   9.894 135.293  0.00  0.00    +0.144 C 
ATOM     16  C   LIG A   1      -2.125   9.252 133.944  0.00  0.00    +0.041 C 
ATOM     17  C   LIG A   1      -2.519   7.750 134.062  0.00  0.00    -0.022 C 
ATOM     18  C   LIG A   1      -3.160   7.251 132.682  0.00  0.00    +0.006 C 
ATOM     19  C   LIG A   1      -2.236   7.284 131.427  0.00  0.00    +0.031 C 
ATOM     20  C   LIG A   1      -2.569   6.283 130.338  0.00  0.00    -0.026 C 
ATOM     21  C   LIG A   1      -3.132   5.070 130.555  0.00  0.00    -0.060 C 
ATOM     22  C   LIG A   1      -3.428   4.057 129.433  0.00  0.00    +0.061 C 
ATOM     23  C   LIG A   1      -3.586   4.633 127.983  0.00  0.00    +0.128 C 
ATOM     24  C   LIG A   1      -1.222   6.987 134.413  0.00  0.00    +0.012 C 
ATOM     25  C   LIG A   1      -2.575   7.614 137.520  0.00  0.00    +0.016 C 
ATOM     26  C   LIG A   1      -5.355   6.364 131.841  0.00  0.00    +0.012 C 
ATOM     27  C   LIG A   1      -2.000   4.309 132.628  0.00  0.00    +0.016 C 
ATOM     28  C   LIG A   1      -2.194   2.989 126.648  0.00  0.00    +0.013 C 
ENDROOT
BRANCH  23  29
ATOM     29  O   LIG A   1      -4.701   5.516 127.878  0.00  0.00    -0.391 OA
ATOM     30  H   LIG A   1      -5.529   5.011 127.999  0.00  0.00    +0.210 HD
ENDBRANCH  23  29
BRANCH  15  31
ATOM     31  O   LIG A   1      -1.471  11.274 135.080  0.00  0.00    -0.389 OA
ATOM     32  H   LIG A   1      -1.200  11.599 135.963  0.00  0.00    +0.210 HD
ENDBRANCH  15  31
BRANCH  14  33
ATOM     33  O   LIG A   1      -2.595  10.474 137.478  0.00  0.00    -0.389 OA
ATOM     34  H   LIG A   1      -1.618  10.579 137.427  0.00  0.00    +0.210 HD
ENDBRANCH  14  33
BRANCH   5  35
ATOM     35  C   LIG A   1      -5.965   3.407 129.826  0.00  0.00    +0.316 C 
ATOM     36  O   LIG A   1      -6.531   4.027 128.913  0.00  0.00    -0.250 OA
BRANCH  35  37
ATOM     37  O   LIG A   1      -6.615   2.980 130.936  0.00  0.00    -0.432 OA
BRANCH  37  38
ATOM     38  C   LIG A   1      -8.038   2.694 130.921  0.00  0.00    +0.342 C 
ATOM     39  O   LIG A   1      -8.717   3.985 130.970  0.00  0.00    -0.331 OA
ATOM     40  C   LIG A   1      -9.033   4.455 132.298  0.00  0.00    +0.179 C 
ATOM     41  C   LIG A   1      -7.985   3.947 133.293  0.00  0.00    +0.177 C 
ATOM     42  C   LIG A   1      -8.220   2.430 133.433  0.00  0.00    +0.180 C 
ATOM     43  C   LIG A   1      -8.487   1.761 132.073  0.00  0.00    +0.214 C 
BRANCH  42  44
ATOM     44  O   LIG A   1      -7.080   1.815 134.044  0.00  0.00    -0.386 OA
ATOM     45  H   LIG A   1      -6.291   2.179 133.601  0.00  0.00    +0.210 HD
ENDBRANCH  42  44
BRANCH  41  46
ATOM     46  O   LIG A   1      -8.045   4.549 134.583  0.00  0.00    -0.387 OA
ATOM     47  H   LIG A   1      -8.987   4.734 134.769  0.00  0.00    +0.210 HD
ENDBRANCH  41  46
BRANCH  43  48
ATOM     48  O   LIG A   1      -9.882   1.436 131.951  0.00  0.00    -0.383 OA
ATOM     49  H   LIG A   1     -10.302   1.759 132.770  0.00  0.00    +0.210 HD
ENDBRANCH  43  48
BRANCH  40  50
ATOM     50  C   LIG A   1      -9.194   5.983 132.293  0.00  0.00    +0.190 C 
BRANCH  50  51
ATOM     51  O   LIG A   1      -9.975   6.459 133.387  0.00  0.00    -0.392 OA
ATOM     52  H   LIG A   1     -10.424   7.274 133.101  0.00  0.00    +0.209 HD
ENDBRANCH  50  51
ENDBRANCH  40  50
ENDBRANCH  37  38
ENDBRANCH  35  37
ENDBRANCH   5  35
BRANCH  13  53
ATOM     53  C   LIG A   1      -4.892   8.499 137.184  0.00  0.00    +0.165 C 
BRANCH  53  54
ATOM     54  O   LIG A   1      -5.362   9.845 137.137  0.00  0.00    -0.394 OA
ATOM     55  H   LIG A   1      -6.308   9.801 136.904  0.00  0.00    +0.209 HD
ENDBRANCH  53  54
ENDBRANCH  13  53
TORSDOF 13
ENDMDL
MODEL 4
REMARK VINA RESULT:      -8.9      3.059      7.975
REMARK  Name = NuBBE_543
REMARK  19 active torsions:
REMARK  status: ('A' for Active; 'I' for Inactive)
REMARK    1  A    between atoms: C_1  and  C_2
REMARK    2  A    between atoms: C_2  and  C_58
REMARK    3  A    between atoms: C_5  and  C_39
REMARK    4  A    between atoms: C_8  and  C_38
REMARK    5  A    between atoms: C_9  and  C_37
REMARK    6  A    between atoms: C_14  and  C_15
REMARK    7  A    between atoms: C_14  and  C_36
REMARK    8  A    between atoms: C_15  and  O_16
REMARK    9  A    between atoms: C_17  and  O_35
REMARK   10  A    between atoms: C_19  and  O_34
REMARK   11  A    between atoms: C_22  and  C_33
REMARK   12  A    between atoms: C_30  and  O_32
REMARK   13  A    between atoms: C_39  and  O_40
REMARK   14  A    between atoms: O_40  and  C_41
REMARK   15  A    between atoms: C_44  and  C_52
REMARK   16  A    between atoms: C_46  and  O_51
REMARK   17  A    between atoms: C_48  and  O_50
REMARK   18  A    between atoms: C_52  and  O_53
REMARK   19  A    between atoms: C_54  and  O_56
REMARK                            x       y       z     vdW  Elec       q    Type
REMARK                         _______ _______ _______ _____ _____    ______ ____
ROOT
ATOM      1  C   LIG A   1      -5.330  -5.027 130.864  0.00  0.00    +0.013 C 
ATOM      2  C   LIG A   1      -6.254  -3.794 130.979  0.00  0.00    -0.008 C 
ATOM      3  C   LIG A   1      -7.194  -3.760 129.752  0.00  0.00    +0.010 C 
ATOM      4  C   LIG A   1      -7.987  -2.456 129.598  0.00  0.00    +0.019 C 
ATOM      5  C   LIG A   1      -7.099  -1.185 129.594  0.00  0.00    +0.077 C 
ATOM      6  C   LIG A   1      -8.013   0.055 129.647  0.00  0.00    +0.019 C 
ATOM      7  C   LIG A   1      -7.176   1.329 129.597  0.00  0.00    +0.012 C 
ATOM      8  C   LIG A   1      -6.116   1.476 130.728  0.00  0.00    -0.005 C 
ATOM      9  C   LIG A   1      -4.845   2.340 130.232  0.00  0.00    -0.019 C 
ATOM     10  C   LIG A   1      -5.246   3.564 129.355  0.00  0.00    +0.008 C 
ATOM     11  C   LIG A   1      -5.148   4.932 129.981  0.00  0.00    +0.005 C 
ATOM     12  C   LIG A   1      -3.797   5.096 130.679  0.00  0.00    +0.006 C 
ATOM     13  C   LIG A   1      -3.356   6.597 130.812  0.00  0.00    +0.023 C 
ATOM     14  C   LIG A   1      -2.062   6.689 131.660  0.00  0.00    +0.151 C 
ATOM     15  C   LIG A   1      -2.112   5.879 132.961  0.00  0.00    +0.144 C 
ATOM     16  C   LIG A   1      -2.406   4.402 132.686  0.00  0.00    +0.041 C 
ATOM     17  C   LIG A   1      -3.759   4.172 131.953  0.00  0.00    -0.022 C 
ATOM     18  C   LIG A   1      -3.836   2.663 131.422  0.00  0.00    +0.006 C 
ATOM     19  C   LIG A   1      -3.817   1.539 132.502  0.00  0.00    +0.031 C 
ATOM     20  C   LIG A   1      -4.498   0.241 132.112  0.00  0.00    -0.026 C 
ATOM     21  C   LIG A   1      -5.553   0.151 131.266  0.00  0.00    -0.060 C 
ATOM     22  C   LIG A   1      -6.250  -1.178 130.916  0.00  0.00    +0.061 C 
ATOM     23  C   LIG A   1      -5.409  -2.488 131.102  0.00  0.00    +0.128 C 
ATOM     24  C   LIG A   1      -4.870   4.487 132.980  0.00  0.00    +0.012 C 
ATOM     25  C   LIG A   1      -4.475   7.507 131.367  0.00  0.00    +0.016 C 
ATOM     26  C   LIG A   1      -3.990   1.446 129.229  0.00  0.00    +0.012 C 
ATOM     27  C   LIG A   1      -6.919   2.127 131.886  0.00  0.00    +0.016 C 
ATOM     28  C   LIG A   1      -7.091  -3.986 132.266  0.00  0.00    +0.013 C 
ENDROOT
BRANCH  23  29
ATOM     29  O   LIG A   1      -4.273  -2.521 130.241  0.00  0.00    -0.391 OA
ATOM     30  H   LIG A   1      -4.499  -2.105 129.386  0.00  0.00    +0.210 HD
ENDBRANCH  23  29
BRANCH  15  31
ATOM     31  O   LIG A   1      -0.838   5.983 133.608  0.00  0.00    -0.389 OA
ATOM     32  H   LIG A   1      -0.640   5.070 133.899  0.00  0.00    +0.210 HD
ENDBRANCH  15  31
BRANCH  14  33
ATOM     33  O   LIG A   1      -1.737   8.046 131.998  0.00  0.00    -0.389 OA
ATOM     34  H   LIG A   1      -2.293   8.262 132.780  0.00  0.00    +0.210 HD
ENDBRANCH  14  33
BRANCH   5  35
ATOM     35  C   LIG A   1      -6.306  -1.177 128.267  0.00  0.00    +0.316 C 
ATOM     36  O   LIG A   1      -5.069  -1.232 128.206  0.00  0.00    -0.250 OA
BRANCH  35  37
ATOM     37  O   LIG A   1      -7.098  -1.205 127.168  0.00  0.00    -0.432 OA
BRANCH  37  38
ATOM     38  C   LIG A   1      -6.595  -0.830 125.859  0.00  0.00    +0.342 C 
ATOM     39  O   LIG A   1      -6.715   0.622 125.773  0.00  0.00    -0.331 OA
ATOM     40  C   LIG A   1      -7.955   1.097 125.206  0.00  0.00    +0.179 C 
ATOM     41  C   LIG A   1      -9.085   0.115 125.530  0.00  0.00    +0.177 C 
ATOM     42  C   LIG A   1      -8.816  -1.147 124.686  0.00  0.00    +0.180 C 
ATOM     43  C   LIG A   1      -7.329  -1.540 124.694  0.00  0.00    +0.214 C 
BRANCH  42  44
ATOM     44  O   LIG A   1      -9.594  -2.241 125.186  0.00  0.00    -0.386 OA
ATOM     45  H   LIG A   1      -8.995  -2.795 125.718  0.00  0.00    +0.210 HD
ENDBRANCH  42  44
BRANCH  41  46
ATOM     46  O   LIG A   1     -10.395   0.597 125.245  0.00  0.00    -0.387 OA
ATOM     47  H   LIG A   1     -10.606   1.271 125.921  0.00  0.00    +0.210 HD
ENDBRANCH  41  46
BRANCH  43  48
ATOM     48  O   LIG A   1      -6.726  -1.205 123.433  0.00  0.00    -0.383 OA
ATOM     49  H   LIG A   1      -5.850  -1.633 123.435  0.00  0.00    +0.210 HD
ENDBRANCH  43  48
BRANCH  40  50
ATOM     50  C   LIG A   1      -8.231   2.535 125.671  0.00  0.00    +0.190 C 
BRANCH  50  51
ATOM     51  O   LIG A   1      -9.252   3.174 124.908  0.00  0.00    -0.392 OA
ATOM     52  H   LIG A   1      -8.960   3.198 123.979  0.00  0.00    +0.209 HD
ENDBRANCH  50  51
ENDBRANCH  40  50
ENDBRANCH  37  38
ENDBRANCH  35  37
ENDBRANCH   5  35
BRANCH  13  53
ATOM     53  C   LIG A   1      -2.998   7.131 129.383  0.00  0.00    +0.165 C 
BRANCH  53  54
ATOM     54  O   LIG A   1      -4.017   7.998 128.887  0.00  0.00    -0.394 OA
ATOM     55  H   LIG A   1      -4.790   7.880 129.470  0.00  0.00    +0.209 HD
ENDBRANCH  53  54
ENDBRANCH  13  53
TORSDOF 13
ENDMDL
MODEL 5
REMARK VINA RESULT:      -8.4      3.086      5.391
REMARK  Name = NuBBE_543
REMARK  19 active torsions:
REMARK  status: ('A' for Active; 'I' for Inactive)
REMARK    1  A    between atoms: C_1  and  C_2
REMARK    2  A    between atoms: C_2  and  C_58
REMARK    3  A    between atoms: C_5  and  C_39
REMARK    4  A    between atoms: C_8  and  C_38
REMARK    5  A    between atoms: C_9  and  C_37
REMARK    6  A    between atoms: C_14  and  C_15
REMARK    7  A    between atoms: C_14  and  C_36
REMARK    8  A    between atoms: C_15  and  O_16
REMARK    9  A    between atoms: C_17  and  O_35
REMARK   10  A    between atoms: C_19  and  O_34
REMARK   11  A    between atoms: C_22  and  C_33
REMARK   12  A    between atoms: C_30  and  O_32
REMARK   13  A    between atoms: C_39  and  O_40
REMARK   14  A    between atoms: O_40  and  C_41
REMARK   15  A    between atoms: C_44  and  C_52
REMARK   16  A    between atoms: C_46  and  O_51
REMARK   17  A    between atoms: C_48  and  O_50
REMARK   18  A    between atoms: C_52  and  O_53
REMARK   19  A    between atoms: C_54  and  O_56
REMARK                            x       y       z     vdW  Elec       q    Type
REMARK                         _______ _______ _______ _____ _____    ______ ____
ROOT
ATOM      1  C   LIG A   1      -7.935   4.116 134.461  0.00  0.00    +0.013 C 
ATOM      2  C   LIG A   1      -6.788   3.323 133.794  0.00  0.00    -0.008 C 
ATOM      3  C   LIG A   1      -5.611   4.287 133.520  0.00  0.00    +0.010 C 
ATOM      4  C   LIG A   1      -4.508   3.701 132.629  0.00  0.00    +0.019 C 
ATOM      5  C   LIG A   1      -5.029   3.137 131.282  0.00  0.00    +0.077 C 
ATOM      6  C   LIG A   1      -3.876   2.395 130.578  0.00  0.00    +0.019 C 
ATOM      7  C   LIG A   1      -4.338   1.865 129.226  0.00  0.00    +0.012 C 
ATOM      8  C   LIG A   1      -5.561   0.902 129.268  0.00  0.00    -0.005 C 
ATOM      9  C   LIG A   1      -6.430   0.997 127.910  0.00  0.00    -0.019 C 
ATOM     10  C   LIG A   1      -5.548   1.105 126.630  0.00  0.00    +0.008 C 
ATOM     11  C   LIG A   1      -5.448  -0.113 125.747  0.00  0.00    +0.005 C 
ATOM     12  C   LIG A   1      -6.841  -0.688 125.484  0.00  0.00    +0.006 C 
ATOM     13  C   LIG A   1      -6.917  -1.522 124.156  0.00  0.00    +0.023 C 
ATOM     14  C   LIG A   1      -8.309  -2.194 124.039  0.00  0.00    +0.151 C 
ATOM     15  C   LIG A   1      -8.762  -2.911 125.316  0.00  0.00    +0.144 C 
ATOM     16  C   LIG A   1      -8.786  -1.956 126.512  0.00  0.00    +0.041 C 
ATOM     17  C   LIG A   1      -7.399  -1.318 126.815  0.00  0.00    -0.022 C 
ATOM     18  C   LIG A   1      -7.575  -0.108 127.850  0.00  0.00    +0.006 C 
ATOM     19  C   LIG A   1      -8.120  -0.472 129.265  0.00  0.00    +0.031 C 
ATOM     20  C   LIG A   1      -7.708   0.461 130.387  0.00  0.00    -0.026 C 
ATOM     21  C   LIG A   1      -6.543   1.150 130.425  0.00  0.00    -0.060 C 
ATOM     22  C   LIG A   1      -6.133   2.064 131.596  0.00  0.00    +0.061 C 
ATOM     23  C   LIG A   1      -7.290   2.629 132.491  0.00  0.00    +0.128 C 
ATOM     24  C   LIG A   1      -6.513  -2.449 127.384  0.00  0.00    +0.012 C 
ATOM     25  C   LIG A   1      -5.768  -2.547 124.020  0.00  0.00    +0.016 C 
ATOM     26  C   LIG A   1      -7.223   2.378 127.915  0.00  0.00    +0.012 C 
ATOM     27  C   LIG A   1      -4.914  -0.486 129.517  0.00  0.00    +0.016 C 
ATOM     28  C   LIG A   1      -6.346   2.244 134.811  0.00  0.00    +0.013 C 
ENDROOT
BRANCH  23  29
ATOM     29  O   LIG A   1      -8.168   3.477 131.755  0.00  0.00    -0.391 OA
ATOM     30  H   LIG A   1      -8.832   3.863 132.361  0.00  0.00    +0.210 HD
ENDBRANCH  23  29
BRANCH  15  31
ATOM     31  O   LIG A   1     -10.085  -3.419 125.104  0.00  0.00    -0.389 OA
ATOM     32  H   LIG A   1     -10.627  -2.971 125.786  0.00  0.00    +0.210 HD
ENDBRANCH  15  31
BRANCH  14  33
ATOM     33  O   LIG A   1      -8.358  -3.141 122.961  0.00  0.00    -0.389 OA
ATOM     34  H   LIG A   1      -7.704  -2.820 122.300  0.00  0.00    +0.210 HD
ENDBRANCH  14  33
BRANCH   5  35
ATOM     35  C   LIG A   1      -5.467   4.339 130.414  0.00  0.00    +0.316 C 
ATOM     36  O   LIG A   1      -6.516   4.363 129.753  0.00  0.00    -0.250 OA
BRANCH  35  37
ATOM     37  O   LIG A   1      -4.641   5.407 130.521  0.00  0.00    -0.432 OA
BRANCH  37  38
ATOM     38  C   LIG A   1      -3.474   5.555 129.671  0.00  0.00    +0.342 C 
ATOM     39  O   LIG A   1      -2.311   5.440 130.544  0.00  0.00    -0.331 OA
ATOM     40  C   LIG A   1      -1.825   6.690 131.078  0.00  0.00    +0.179 C 
ATOM     41  C   LIG A   1      -2.991   7.670 131.250  0.00  0.00    +0.177 C 
ATOM     42  C   LIG A   1      -3.423   8.082 129.829  0.00  0.00    +0.180 C 
ATOM     43  C   LIG A   1      -3.466   6.880 128.868  0.00  0.00    +0.214 C 
BRANCH  42  44
ATOM     44  O   LIG A   1      -4.716   8.695 129.872  0.00  0.00    -0.386 OA
ATOM     45  H   LIG A   1      -5.344   8.061 129.478  0.00  0.00    +0.210 HD
ENDBRANCH  42  44
BRANCH  41  46
ATOM     46  O   LIG A   1      -2.681   8.840 132.001  0.00  0.00    -0.387 OA
ATOM     47  H   LIG A   1      -1.985   8.594 132.641  0.00  0.00    +0.210 HD
ENDBRANCH  41  46
BRANCH  43  48
ATOM     48  O   LIG A   1      -2.340   6.927 127.974  0.00  0.00    -0.383 OA
ATOM     49  H   LIG A   1      -1.669   6.335 128.361  0.00  0.00    +0.210 HD
ENDBRANCH  43  48
BRANCH  40  50
ATOM     50  C   LIG A   1      -1.031   6.440 132.368  0.00  0.00    +0.190 C 
BRANCH  50  51
ATOM     51  O   LIG A   1       0.064   7.340 132.525  0.00  0.00    -0.392 OA
ATOM     52  H   LIG A   1       0.848   6.930 132.119  0.00  0.00    +0.209 HD
ENDBRANCH  50  51
ENDBRANCH  40  50
ENDBRANCH  37  38
ENDBRANCH  35  37
ENDBRANCH   5  35
BRANCH  13  53
ATOM     53  C   LIG A   1      -6.792  -0.531 122.947  0.00  0.00    +0.165 C 
BRANCH  53  54
ATOM     54  O   LIG A   1      -7.590   0.634 123.152  0.00  0.00    -0.394 OA
ATOM     55  H   LIG A   1      -8.420   0.333 123.566  0.00  0.00    +0.209 HD
ENDBRANCH  53  54
ENDBRANCH  13  53
TORSDOF 13
ENDMDL
MODEL 6
REMARK VINA RESULT:      -8.3      3.084      7.855
REMARK  Name = NuBBE_543
REMARK  19 active torsions:
REMARK  status: ('A' for Active; 'I' for Inactive)
REMARK    1  A    between atoms: C_1  and  C_2
REMARK    2  A    between atoms: C_2  and  C_58
REMARK    3  A    between atoms: C_5  and  C_39
REMARK    4  A    between atoms: C_8  and  C_38
REMARK    5  A    between atoms: C_9  and  C_37
REMARK    6  A    between atoms: C_14  and  C_15
REMARK    7  A    between atoms: C_14  and  C_36
REMARK    8  A    between atoms: C_15  and  O_16
REMARK    9  A    between atoms: C_17  and  O_35
REMARK   10  A    between atoms: C_19  and  O_34
REMARK   11  A    between atoms: C_22  and  C_33
REMARK   12  A    between atoms: C_30  and  O_32
REMARK   13  A    between atoms: C_39  and  O_40
REMARK   14  A    between atoms: O_40  and  C_41
REMARK   15  A    between atoms: C_44  and  C_52
REMARK   16  A    between atoms: C_46  and  O_51
REMARK   17  A    between atoms: C_48  and  O_50
REMARK   18  A    between atoms: C_52  and  O_53
REMARK   19  A    between atoms: C_54  and  O_56
REMARK                            x       y       z     vdW  Elec       q    Type
REMARK                         _______ _______ _______ _____ _____    ______ ____
ROOT
ATOM      1  C   LIG A   1      -4.658  -5.162 131.564  0.00  0.00    +0.013 C 
ATOM      2  C   LIG A   1      -5.687  -4.017 131.689  0.00  0.00    -0.008 C 
ATOM      3  C   LIG A   1      -6.729  -4.159 130.556  0.00  0.00    +0.010 C 
ATOM      4  C   LIG A   1      -7.660  -2.949 130.396  0.00  0.00    +0.019 C 
ATOM      5  C   LIG A   1      -6.907  -1.604 130.230  0.00  0.00    +0.077 C 
ATOM      6  C   LIG A   1      -7.932  -0.454 130.292  0.00  0.00    +0.019 C 
ATOM      7  C   LIG A   1      -7.234   0.886 130.085  0.00  0.00    +0.012 C 
ATOM      8  C   LIG A   1      -6.100   1.212 131.100  0.00  0.00    -0.005 C 
ATOM      9  C   LIG A   1      -4.970   2.154 130.434  0.00  0.00    -0.019 C 
ATOM     10  C   LIG A   1      -5.566   3.270 129.525  0.00  0.00    +0.008 C 
ATOM     11  C   LIG A   1      -5.551   4.682 130.053  0.00  0.00    +0.005 C 
ATOM     12  C   LIG A   1      -4.167   5.021 130.610  0.00  0.00    +0.006 C 
ATOM     13  C   LIG A   1      -3.869   6.563 130.607  0.00  0.00    +0.023 C 
ATOM     14  C   LIG A   1      -2.521   6.835 131.323  0.00  0.00    +0.151 C 
ATOM     15  C   LIG A   1      -2.377   6.119 132.670  0.00  0.00    +0.144 C 
ATOM     16  C   LIG A   1      -2.544   4.605 132.517  0.00  0.00    +0.041 C 
ATOM     17  C   LIG A   1      -3.927   4.197 131.929  0.00  0.00    -0.022 C 
ATOM     18  C   LIG A   1      -3.898   2.654 131.502  0.00  0.00    +0.006 C 
ATOM     19  C   LIG A   1      -3.672   1.616 132.643  0.00  0.00    +0.031 C 
ATOM     20  C   LIG A   1      -4.252   0.236 132.400  0.00  0.00    -0.026 C 
ATOM     21  C   LIG A   1      -5.362  -0.013 131.664  0.00  0.00    -0.060 C 
ATOM     22  C   LIG A   1      -5.950  -1.423 131.463  0.00  0.00    +0.061 C 
ATOM     23  C   LIG A   1      -4.970  -2.632 131.651  0.00  0.00    +0.128 C 
ATOM     24  C   LIG A   1      -4.969   4.478 133.034  0.00  0.00    +0.012 C 
ATOM     25  C   LIG A   1      -5.021   7.401 131.208  0.00  0.00    +0.016 C 
ATOM     26  C   LIG A   1      -4.120   1.276 129.413  0.00  0.00    +0.012 C 
ATOM     27  C   LIG A   1      -6.859   1.865 132.286  0.00  0.00    +0.016 C 
ATOM     28  C   LIG A   1      -6.385  -4.195 133.058  0.00  0.00    +0.013 C 
ENDROOT
BRANCH  23  29
ATOM     29  O   LIG A   1      -3.916  -2.619 130.691  0.00  0.00    -0.391 OA
ATOM     30  H   LIG A   1      -3.127  -3.058 131.067  0.00  0.00    +0.210 HD
ENDBRANCH  23  29
BRANCH  15  31
ATOM     31  O   LIG A   1      -1.068   6.388 133.187  0.00  0.00    -0.389 OA
ATOM     32  H   LIG A   1      -0.964   5.752 133.925  0.00  0.00    +0.210 HD
ENDBRANCH  15  31
BRANCH  14  33
ATOM     33  O   LIG A   1      -2.306   8.237 131.544  0.00  0.00    -0.389 OA
ATOM     34  H   LIG A   1      -1.787   8.549 130.769  0.00  0.00    +0.210 HD
ENDBRANCH  14  33
BRANCH   5  35
ATOM     35  C   LIG A   1      -6.238  -1.615 128.837  0.00  0.00    +0.316 C 
ATOM     36  O   LIG A   1      -5.047  -1.328 128.645  0.00  0.00    -0.250 OA
BRANCH  35  37
ATOM     37  O   LIG A   1      -7.053  -2.066 127.853  0.00  0.00    -0.432 OA
BRANCH  37  38
ATOM     38  C   LIG A   1      -7.949  -1.174 127.141  0.00  0.00    +0.342 C 
ATOM     39  O   LIG A   1      -8.743  -2.015 126.250  0.00  0.00    -0.331 OA
ATOM     40  C   LIG A   1      -8.193  -2.187 124.926  0.00  0.00    +0.179 C 
ATOM     41  C   LIG A   1      -6.663  -2.126 124.987  0.00  0.00    +0.177 C 
ATOM     42  C   LIG A   1      -6.300  -0.659 125.290  0.00  0.00    +0.180 C 
ATOM     43  C   LIG A   1      -7.212  -0.051 126.370  0.00  0.00    +0.214 C 
BRANCH  42  44
ATOM     44  O   LIG A   1      -4.937  -0.575 125.723  0.00  0.00    -0.386 OA
ATOM     45  H   LIG A   1      -4.382  -0.809 124.957  0.00  0.00    +0.210 HD
ENDBRANCH  42  44
BRANCH  41  46
ATOM     46  O   LIG A   1      -6.002  -2.533 123.792  0.00  0.00    -0.387 OA
ATOM     47  H   LIG A   1      -6.680  -2.928 123.209  0.00  0.00    +0.210 HD
ENDBRANCH  41  46
BRANCH  43  48
ATOM     48  O   LIG A   1      -8.151   0.854 125.766  0.00  0.00    -0.383 OA
ATOM     49  H   LIG A   1      -7.647   1.664 125.563  0.00  0.00    +0.210 HD
ENDBRANCH  43  48
BRANCH  40  50
ATOM     50  C   LIG A   1      -8.737  -3.475 124.291  0.00  0.00    +0.190 C 
BRANCH  50  51
ATOM     51  O   LIG A   1      -9.988  -3.280 123.635  0.00  0.00    -0.392 OA
ATOM     52  H   LIG A   1     -10.313  -2.392 123.869  0.00  0.00    +0.209 HD
ENDBRANCH  50  51
ENDBRANCH  40  50
ENDBRANCH  37  38
ENDBRANCH  35  37
ENDBRANCH   5  35
BRANCH  13  53
ATOM     53  C   LIG A   1      -3.693   7.026 129.121  0.00  0.00    +0.165 C 
BRANCH  53  54
ATOM     54  O   LIG A   1      -4.062   8.395 128.961  0.00  0.00    -0.394 OA
ATOM     55  H   LIG A   1      -4.180   8.540 128.003  0.00  0.00    +0.209 HD
ENDBRANCH  53  54
ENDBRANCH  13  53
TORSDOF 13
ENDMDL
MODEL 7
REMARK VINA RESULT:      -8.3      3.387      5.510
REMARK  Name = NuBBE_543
REMARK  19 active torsions:
REMARK  status: ('A' for Active; 'I' for Inactive)
REMARK    1  A    between atoms: C_1  and  C_2
REMARK    2  A    between atoms: C_2  and  C_58
REMARK    3  A    between atoms: C_5  and  C_39
REMARK    4  A    between atoms: C_8  and  C_38
REMARK    5  A    between atoms: C_9  and  C_37
REMARK    6  A    between atoms: C_14  and  C_15
REMARK    7  A    between atoms: C_14  and  C_36
REMARK    8  A    between atoms: C_15  and  O_16
REMARK    9  A    between atoms: C_17  and  O_35
REMARK   10  A    between atoms: C_19  and  O_34
REMARK   11  A    between atoms: C_22  and  C_33
REMARK   12  A    between atoms: C_30  and  O_32
REMARK   13  A    between atoms: C_39  and  O_40
REMARK   14  A    between atoms: O_40  and  C_41
REMARK   15  A    between atoms: C_44  and  C_52
REMARK   16  A    between atoms: C_46  and  O_51
REMARK   17  A    between atoms: C_48  and  O_50
REMARK   18  A    between atoms: C_52  and  O_53
REMARK   19  A    between atoms: C_54  and  O_56
REMARK                            x       y       z     vdW  Elec       q    Type
REMARK                         _______ _______ _______ _____ _____    ______ ____
ROOT
ATOM      1  C   LIG A   1      -1.391  -4.390 135.598  0.00  0.00    +0.013 C 
ATOM      2  C   LIG A   1      -2.318  -3.224 135.192  0.00  0.00    -0.008 C 
ATOM      3  C   LIG A   1      -3.500  -3.158 136.187  0.00  0.00    +0.010 C 
ATOM      4  C   LIG A   1      -4.636  -2.218 135.760  0.00  0.00    +0.019 C 
ATOM      5  C   LIG A   1      -5.182  -2.509 134.339  0.00  0.00    +0.077 C 
ATOM      6  C   LIG A   1      -6.157  -1.382 133.945  0.00  0.00    +0.019 C 
ATOM      7  C   LIG A   1      -6.753  -1.657 132.569  0.00  0.00    +0.012 C 
ATOM      8  C   LIG A   1      -5.722  -1.811 131.413  0.00  0.00    -0.005 C 
ATOM      9  C   LIG A   1      -6.276  -2.796 130.260  0.00  0.00    -0.019 C 
ATOM     10  C   LIG A   1      -7.788  -2.582 129.951  0.00  0.00    +0.008 C 
ATOM     11  C   LIG A   1      -8.145  -1.884 128.663  0.00  0.00    +0.005 C 
ATOM     12  C   LIG A   1      -7.363  -2.497 127.499  0.00  0.00    +0.006 C 
ATOM     13  C   LIG A   1      -8.073  -2.293 126.114  0.00  0.00    +0.023 C 
ATOM     14  C   LIG A   1      -7.151  -2.801 124.975  0.00  0.00    +0.151 C 
ATOM     15  C   LIG A   1      -5.706  -2.303 125.076  0.00  0.00    +0.144 C 
ATOM     16  C   LIG A   1      -5.075  -2.691 126.416  0.00  0.00    +0.041 C 
ATOM     17  C   LIG A   1      -5.843  -2.117 127.643  0.00  0.00    -0.022 C 
ATOM     18  C   LIG A   1      -5.323  -2.823 128.983  0.00  0.00    +0.006 C 
ATOM     19  C   LIG A   1      -3.827  -2.599 129.358  0.00  0.00    +0.031 C 
ATOM     20  C   LIG A   1      -3.498  -2.693 130.836  0.00  0.00    -0.026 C 
ATOM     21  C   LIG A   1      -4.353  -2.369 131.835  0.00  0.00    -0.060 C 
ATOM     22  C   LIG A   1      -3.980  -2.439 133.329  0.00  0.00    +0.061 C 
ATOM     23  C   LIG A   1      -2.805  -3.400 133.720  0.00  0.00    +0.128 C 
ATOM     24  C   LIG A   1      -5.582  -0.594 127.647  0.00  0.00    +0.012 C 
ATOM     25  C   LIG A   1      -8.530  -0.835 125.878  0.00  0.00    +0.016 C 
ATOM     26  C   LIG A   1      -6.231  -4.290 130.810  0.00  0.00    +0.012 C 
ATOM     27  C   LIG A   1      -5.488  -0.349 130.947  0.00  0.00    +0.016 C 
ATOM     28  C   LIG A   1      -1.478  -1.929 135.302  0.00  0.00    +0.013 C 
ENDROOT
BRANCH  23  29
ATOM     29  O   LIG A   1      -3.110  -4.763 133.434  0.00  0.00    -0.391 OA
ATOM     30  H   LIG A   1      -2.653  -5.341 134.075  0.00  0.00    +0.210 HD
ENDBRANCH  23  29
BRANCH  15  31
ATOM     31  O   LIG A   1      -4.946  -2.902 124.019  0.00  0.00    -0.389 OA
ATOM     32  H   LIG A   1      -4.204  -2.280 123.873  0.00  0.00    +0.210 HD
ENDBRANCH  15  31
BRANCH  14  33
ATOM     33  O   LIG A   1      -7.653  -2.441 123.679  0.00  0.00    -0.389 OA
ATOM     34  H   LIG A   1      -7.335  -1.523 123.521  0.00  0.00    +0.210 HD
ENDBRANCH  14  33
BRANCH   5  35
ATOM     35  C   LIG A   1      -5.950  -3.848 134.402  0.00  0.00    +0.316 C 
ATOM     36  O   LIG A   1      -5.796  -4.768 133.584  0.00  0.00    -0.250 OA
BRANCH  35  37
ATOM     37  O   LIG A   1      -6.740  -3.964 135.496  0.00  0.00    -0.432 OA
BRANCH  37  38
ATOM     38  C   LIG A   1      -8.179  -4.117 135.382  0.00  0.00    +0.342 C 
ATOM     39  O   LIG A   1      -8.771  -3.050 136.182  0.00  0.00    -0.331 OA
ATOM     40  C   LIG A   1      -9.048  -3.401 137.555  0.00  0.00    +0.179 C 
ATOM     41  C   LIG A   1      -8.031  -4.438 138.042  0.00  0.00    +0.177 C 
ATOM     42  C   LIG A   1      -8.365  -5.751 137.308  0.00  0.00    +0.180 C 
ATOM     43  C   LIG A   1      -8.683  -5.515 135.821  0.00  0.00    +0.214 C 
BRANCH  42  44
ATOM     44  O   LIG A   1      -7.265  -6.661 137.415  0.00  0.00    -0.386 OA
ATOM     45  H   LIG A   1      -6.579  -6.351 136.795  0.00  0.00    +0.210 HD
ENDBRANCH  42  44
BRANCH  41  46
ATOM     46  O   LIG A   1      -8.044  -4.672 139.448  0.00  0.00    -0.387 OA
ATOM     47  H   LIG A   1      -8.386  -3.860 139.870  0.00  0.00    +0.210 HD
ENDBRANCH  41  46
BRANCH  43  48
ATOM     48  O   LIG A   1     -10.097  -5.640 135.596  0.00  0.00    -0.383 OA
ATOM     49  H   LIG A   1     -10.320  -6.565 135.813  0.00  0.00    +0.210 HD
ENDBRANCH  43  48
BRANCH  40  50
ATOM     50  C   LIG A   1      -9.107  -2.135 138.423  0.00  0.00    +0.190 C 
BRANCH  50  51
ATOM     51  O   LIG A   1     -10.351  -1.447 138.309  0.00  0.00    -0.392 OA
ATOM     52  H   LIG A   1     -10.608  -1.447 137.370  0.00  0.00    +0.209 HD
ENDBRANCH  50  51
ENDBRANCH  40  50
ENDBRANCH  37  38
ENDBRANCH  35  37
ENDBRANCH   5  35
BRANCH  13  53
ATOM     53  C   LIG A   1      -9.360  -3.187 126.085  0.00  0.00    +0.165 C 
BRANCH  53  54
ATOM     54  O   LIG A   1     -10.134  -2.938 124.913  0.00  0.00    -0.394 OA
ATOM     55  H   LIG A   1     -10.034  -1.989 124.710  0.00  0.00    +0.209 HD
ENDBRANCH  53  54
ENDBRANCH  13  53
TORSDOF 13
ENDMDL
MODEL 8
REMARK VINA RESULT:      -8.3      4.188      9.995
REMARK  Name = NuBBE_543
REMARK  19 active torsions:
REMARK  status: ('A' for Active; 'I' for Inactive)
REMARK    1  A    between atoms: C_1  and  C_2
REMARK    2  A    between atoms: C_2  and  C_58
REMARK    3  A    between atoms: C_5  and  C_39
REMARK    4  A    between atoms: C_8  and  C_38
REMARK    5  A    between atoms: C_9  and  C_37
REMARK    6  A    between atoms: C_14  and  C_15
REMARK    7  A    between atoms: C_14  and  C_36
REMARK    8  A    between atoms: C_15  and  O_16
REMARK    9  A    between atoms: C_17  and  O_35
REMARK   10  A    between atoms: C_19  and  O_34
REMARK   11  A    between atoms: C_22  and  C_33
REMARK   12  A    between atoms: C_30  and  O_32
REMARK   13  A    between atoms: C_39  and  O_40
REMARK   14  A    between atoms: O_40  and  C_41
REMARK   15  A    between atoms: C_44  and  C_52
REMARK   16  A    between atoms: C_46  and  O_51
REMARK   17  A    between atoms: C_48  and  O_50
REMARK   18  A    between atoms: C_52  and  O_53
REMARK   19  A    between atoms: C_54  and  O_56
REMARK                            x       y       z     vdW  Elec       q    Type
REMARK                         _______ _______ _______ _____ _____    ______ ____
ROOT
ATOM      1  C   LIG A   1      -8.556   3.390 122.217  0.00  0.00    +0.013 C 
ATOM      2  C   LIG A   1      -7.282   2.792 122.855  0.00  0.00    -0.008 C 
ATOM      3  C   LIG A   1      -7.506   1.281 123.092  0.00  0.00    +0.010 C 
ATOM      4  C   LIG A   1      -6.430   0.609 123.955  0.00  0.00    +0.019 C 
ATOM      5  C   LIG A   1      -6.199   1.310 125.318  0.00  0.00    +0.077 C 
ATOM      6  C   LIG A   1      -4.965   0.680 125.994  0.00  0.00    +0.019 C 
ATOM      7  C   LIG A   1      -4.733   1.312 127.362  0.00  0.00    +0.012 C 
ATOM      8  C   LIG A   1      -4.531   2.855 127.359  0.00  0.00    -0.005 C 
ATOM      9  C   LIG A   1      -5.044   3.517 128.740  0.00  0.00    -0.019 C 
ATOM     10  C   LIG A   1      -4.674   2.670 129.995  0.00  0.00    +0.008 C 
ATOM     11  C   LIG A   1      -3.567   3.184 130.881  0.00  0.00    +0.005 C 
ATOM     12  C   LIG A   1      -3.783   4.667 131.186  0.00  0.00    +0.006 C 
ATOM     13  C   LIG A   1      -3.093   5.123 132.520  0.00  0.00    +0.023 C 
ATOM     14  C   LIG A   1      -3.225   6.659 132.679  0.00  0.00    +0.151 C 
ATOM     15  C   LIG A   1      -2.853   7.449 131.419  0.00  0.00    +0.144 C 
ATOM     16  C   LIG A   1      -3.697   7.013 130.219  0.00  0.00    +0.041 C 
ATOM     17  C   LIG A   1      -3.540   5.503 129.875  0.00  0.00    -0.022 C 
ATOM     18  C   LIG A   1      -4.679   5.064 128.838  0.00  0.00    +0.006 C 
ATOM     19  C   LIG A   1      -4.659   5.756 127.441  0.00  0.00    +0.031 C 
ATOM     20  C   LIG A   1      -5.260   4.956 126.302  0.00  0.00    -0.026 C 
ATOM     21  C   LIG A   1      -5.257   3.603 126.228  0.00  0.00    -0.060 C 
ATOM     22  C   LIG A   1      -5.843   2.814 125.041  0.00  0.00    +0.061 C 
ATOM     23  C   LIG A   1      -6.929   3.543 124.176  0.00  0.00    +0.128 C 
ATOM     24  C   LIG A   1      -2.120   5.337 129.287  0.00  0.00    +0.012 C 
ATOM     25  C   LIG A   1      -1.623   4.656 132.629  0.00  0.00    +0.016 C 
ATOM     26  C   LIG A   1      -6.636   3.492 128.749  0.00  0.00    +0.012 C 
ATOM     27  C   LIG A   1      -3.010   3.015 127.100  0.00  0.00    +0.016 C 
ATOM     28  C   LIG A   1      -6.138   2.991 121.832  0.00  0.00    +0.013 C 
ENDROOT
BRANCH  23  29
ATOM     29  O   LIG A   1      -8.101   3.844 124.931  0.00  0.00    -0.391 OA
ATOM     30  H   LIG A   1      -8.680   3.057 124.962  0.00  0.00    +0.210 HD
ENDBRANCH  23  29
BRANCH  15  31
ATOM     31  O   LIG A   1      -3.091   8.839 131.670  0.00  0.00    -0.389 OA
ATOM     32  H   LIG A   1      -2.718   9.293 130.887  0.00  0.00    +0.210 HD
ENDBRANCH  15  31
BRANCH  14  33
ATOM     33  O   LIG A   1      -2.427   7.157 133.763  0.00  0.00    -0.389 OA
ATOM     34  H   LIG A   1      -2.707   6.642 134.553  0.00  0.00    +0.210 HD
ENDBRANCH  14  33
BRANCH   5  35
ATOM     35  C   LIG A   1      -7.447   1.047 126.192  0.00  0.00    +0.316 C 
ATOM     36  O   LIG A   1      -8.031   1.931 126.838  0.00  0.00    -0.250 OA
BRANCH  35  37
ATOM     37  O   LIG A   1      -7.905  -0.224 126.106  0.00  0.00    -0.432 OA
BRANCH  37  38
ATOM     38  C   LIG A   1      -7.407  -1.272 126.978  0.00  0.00    +0.342 C 
ATOM     39  O   LIG A   1      -6.238  -1.840 126.314  0.00  0.00    -0.331 OA
ATOM     40  C   LIG A   1      -6.515  -2.968 125.456  0.00  0.00    +0.179 C 
ATOM     41  C   LIG A   1      -7.920  -2.835 124.859  0.00  0.00    +0.177 C 
ATOM     42  C   LIG A   1      -8.908  -3.071 126.018  0.00  0.00    +0.180 C 
ATOM     43  C   LIG A   1      -8.468  -2.353 127.306  0.00  0.00    +0.214 C 
BRANCH  42  44
ATOM     44  O   LIG A   1     -10.212  -2.612 125.646  0.00  0.00    -0.386 OA
ATOM     45  H   LIG A   1     -10.087  -1.803 125.116  0.00  0.00    +0.210 HD
ENDBRANCH  42  44
BRANCH  41  46
ATOM     46  O   LIG A   1      -8.209  -3.750 123.805  0.00  0.00    -0.387 OA
ATOM     47  H   LIG A   1      -8.486  -3.219 123.032  0.00  0.00    +0.210 HD
ENDBRANCH  41  46
BRANCH  43  48
ATOM     48  O   LIG A   1      -7.949  -3.308 128.247  0.00  0.00    -0.383 OA
ATOM     49  H   LIG A   1      -7.901  -4.155 127.766  0.00  0.00    +0.210 HD
ENDBRANCH  43  48
BRANCH  40  50
ATOM     50  C   LIG A   1      -5.405  -3.118 124.405  0.00  0.00    +0.190 C 
BRANCH  50  51
ATOM     51  O   LIG A   1      -5.805  -2.664 123.114  0.00  0.00    -0.392 OA
ATOM     52  H   LIG A   1      -6.707  -2.990 122.948  0.00  0.00    +0.209 HD
ENDBRANCH  50  51
ENDBRANCH  40  50
ENDBRANCH  37  38
ENDBRANCH  35  37
ENDBRANCH   5  35
BRANCH  13  53
ATOM     53  C   LIG A   1      -3.869   4.477 133.719  0.00  0.00    +0.165 C 
BRANCH  53  54
ATOM     54  O   LIG A   1      -3.186   4.697 134.952  0.00  0.00    -0.394 OA
ATOM     55  H   LIG A   1      -3.156   3.836 135.411  0.00  0.00    +0.209 HD
ENDBRANCH  53  54
ENDBRANCH  13  53
TORSDOF 13
ENDMDL
MODEL 9
REMARK VINA RESULT:      -8.3      3.444      7.700
REMARK  Name = NuBBE_543
REMARK  19 active torsions:
REMARK  status: ('A' for Active; 'I' for Inactive)
REMARK    1  A    between atoms: C_1  and  C_2
REMARK    2  A    between atoms: C_2  and  C_58
REMARK    3  A    between atoms: C_5  and  C_39
REMARK    4  A    between atoms: C_8  and  C_38
REMARK    5  A    between atoms: C_9  and  C_37
REMARK    6  A    between atoms: C_14  and  C_15
REMARK    7  A    between atoms: C_14  and  C_36
REMARK    8  A    between atoms: C_15  and  O_16
REMARK    9  A    between atoms: C_17  and  O_35
REMARK   10  A    between atoms: C_19  and  O_34
REMARK   11  A    between atoms: C_22  and  C_33
REMARK   12  A    between atoms: C_30  and  O_32
REMARK   13  A    between atoms: C_39  and  O_40
REMARK   14  A    between atoms: O_40  and  C_41
REMARK   15  A    between atoms: C_44  and  C_52
REMARK   16  A    between atoms: C_46  and  O_51
REMARK   17  A    between atoms: C_48  and  O_50
REMARK   18  A    between atoms: C_52  and  O_53
REMARK   19  A    between atoms: C_54  and  O_56
REMARK                            x       y       z     vdW  Elec       q    Type
REMARK                         _______ _______ _______ _____ _____    ______ ____
ROOT
ATOM      1  C   LIG A   1      -4.023   4.136 126.942  0.00  0.00    +0.013 C 
ATOM      2  C   LIG A   1      -5.128   3.078 127.157  0.00  0.00    -0.008 C 
ATOM      3  C   LIG A   1      -6.450   3.802 127.502  0.00  0.00    +0.010 C 
ATOM      4  C   LIG A   1      -7.570   2.876 127.996  0.00  0.00    +0.019 C 
ATOM      5  C   LIG A   1      -7.153   1.980 129.190  0.00  0.00    +0.077 C 
ATOM      6  C   LIG A   1      -8.276   0.957 129.455  0.00  0.00    +0.019 C 
ATOM      7  C   LIG A   1      -7.924   0.086 130.655  0.00  0.00    +0.012 C 
ATOM      8  C   LIG A   1      -6.587  -0.704 130.538  0.00  0.00    -0.005 C 
ATOM      9  C   LIG A   1      -5.920  -0.946 131.989  0.00  0.00    -0.019 C 
ATOM     10  C   LIG A   1      -6.965  -1.313 133.085  0.00  0.00    +0.008 C 
ATOM     11  C   LIG A   1      -7.012  -2.745 133.553  0.00  0.00    +0.005 C 
ATOM     12  C   LIG A   1      -5.599  -3.244 133.863  0.00  0.00    +0.006 C 
ATOM     13  C   LIG A   1      -5.583  -4.431 134.891  0.00  0.00    +0.023 C 
ATOM     14  C   LIG A   1      -4.139  -4.978 135.034  0.00  0.00    +0.151 C 
ATOM     15  C   LIG A   1      -3.434  -5.230 133.697  0.00  0.00    +0.144 C 
ATOM     16  C   LIG A   1      -3.386  -3.958 132.844  0.00  0.00    +0.041 C 
ATOM     17  C   LIG A   1      -4.796  -3.387 132.517  0.00  0.00    -0.022 C 
ATOM     18  C   LIG A   1      -4.653  -1.910 131.915  0.00  0.00    +0.006 C 
ATOM     19  C   LIG A   1      -3.888  -1.776 130.563  0.00  0.00    +0.031 C 
ATOM     20  C   LIG A   1      -4.274  -0.588 129.703  0.00  0.00    -0.026 C 
ATOM     21  C   LIG A   1      -5.508  -0.028 129.676  0.00  0.00    -0.060 C 
ATOM     22  C   LIG A   1      -5.884   1.157 128.765  0.00  0.00    +0.061 C 
ATOM     23  C   LIG A   1      -4.709   2.069 128.271  0.00  0.00    +0.128 C 
ATOM     24  C   LIG A   1      -5.441  -4.367 131.511  0.00  0.00    +0.012 C 
ATOM     25  C   LIG A   1      -6.591  -5.549 134.538  0.00  0.00    +0.016 C 
ATOM     26  C   LIG A   1      -5.326   0.437 132.508  0.00  0.00    +0.012 C 
ATOM     27  C   LIG A   1      -7.004  -2.003 129.800  0.00  0.00    +0.016 C 
ATOM     28  C   LIG A   1      -5.287   2.323 125.816  0.00  0.00    +0.013 C 
ENDROOT
BRANCH  23  29
ATOM     29  O   LIG A   1      -4.054   2.730 129.351  0.00  0.00    -0.391 OA
ATOM     30  H   LIG A   1      -4.274   3.683 129.331  0.00  0.00    +0.210 HD
ENDBRANCH  23  29
BRANCH  15  31
ATOM     31  O   LIG A   1      -2.093  -5.655 133.966  0.00  0.00    -0.389 OA
ATOM     32  H   LIG A   1      -1.746  -5.929 133.092  0.00  0.00    +0.210 HD
ENDBRANCH  15  31
BRANCH  14  33
ATOM     33  O   LIG A   1      -4.102  -6.199 135.789  0.00  0.00    -0.389 OA
ATOM     34  H   LIG A   1      -4.551  -6.869 135.227  0.00  0.00    +0.210 HD
ENDBRANCH  14  33
BRANCH   5  35
ATOM     35  C   LIG A   1      -6.997   2.896 130.425  0.00  0.00    +0.316 C 
ATOM     36  O   LIG A   1      -6.021   2.857 131.190  0.00  0.00    -0.250 OA
BRANCH  35  37
ATOM     37  O   LIG A   1      -7.983   3.817 130.539  0.00  0.00    -0.432 OA
BRANCH  37  38
ATOM     38  C   LIG A   1      -8.422   4.305 131.833  0.00  0.00    +0.342 C 
ATOM     39  O   LIG A   1      -9.851   4.577 131.707  0.00  0.00    -0.331 OA
ATOM     40  C   LIG A   1     -10.180   5.927 131.315  0.00  0.00    +0.179 C 
ATOM     41  C   LIG A   1      -9.070   6.497 130.427  0.00  0.00    +0.177 C 
ATOM     42  C   LIG A   1      -7.854   6.724 131.346  0.00  0.00    +0.180 C 
ATOM     43  C   LIG A   1      -7.638   5.550 132.317  0.00  0.00    +0.214 C 
BRANCH  42  44
ATOM     44  O   LIG A   1      -6.673   6.903 130.555  0.00  0.00    -0.386 OA
ATOM     45  H   LIG A   1      -6.952   6.881 129.621  0.00  0.00    +0.210 HD
ENDBRANCH  42  44
BRANCH  41  46
ATOM     46  O   LIG A   1      -9.396   7.721 129.774  0.00  0.00    -0.387 OA
ATOM     47  H   LIG A   1      -9.702   7.492 128.873  0.00  0.00    +0.210 HD
ENDBRANCH  41  46
BRANCH  43  48
ATOM     48  O   LIG A   1      -8.049   5.928 133.642  0.00  0.00    -0.383 OA
ATOM     49  H   LIG A   1      -8.946   5.562 133.757  0.00  0.00    +0.210 HD
ENDBRANCH  43  48
BRANCH  40  50
ATOM     50  C   LIG A   1     -11.573   5.965 130.668  0.00  0.00    +0.190 C 
BRANCH  50  51
ATOM     51  O   LIG A   1     -11.534   5.724 129.263  0.00  0.00    -0.392 OA
ATOM     52  H   LIG A   1     -11.986   4.878 129.092  0.00  0.00    +0.209 HD
ENDBRANCH  50  51
ENDBRANCH  40  50
ENDBRANCH  37  38
ENDBRANCH  35  37
ENDBRANCH   5  35
BRANCH  13  53
ATOM     53  C   LIG A   1      -5.994  -3.869 136.295  0.00  0.00    +0.165 C 
BRANCH  53  54
ATOM     54  O   LIG A   1      -4.846  -3.609 137.101  0.00  0.00    -0.394 OA
ATOM     55  H   LIG A   1      -5.126  -3.725 138.029  0.00  0.00    +0.209 HD
ENDBRANCH  53  54
ENDBRANCH  13  53
TORSDOF 13
ENDMDL
