MODEL 1
REMARK VINA RESULT:      -8.9      0.000      0.000
REMARK  Name = NuBBE_836
REMARK  10 active torsions:
REMARK  status: ('A' for Active; 'I' for Inactive)
REMARK    1  A    between atoms: C_5  and  C_35
REMARK    2  A    between atoms: C_14  and  C_16
REMARK    3  A    between atoms: C_16  and  C_18
REMARK    4  A    between atoms: C_16  and  C_26
REMARK    5  A    between atoms: C_19  and  C_20
REMARK    6  A    between atoms: C_20  and  C_22
REMARK    7  A    between atoms: C_20  and  C_25
REMARK    8  A    between atoms: C_22  and  C_23
REMARK    9  A    between atoms: C_22  and  C_24
REMARK   10  A    between atoms: C_27  and  C_28
REMARK                            x       y       z     vdW  Elec       q    Type
REMARK                         _______ _______ _______ _____ _____    ______ ____
ROOT
ATOM      1  O   LIG A   1      -4.263   5.842 120.947  0.00  0.00    -0.293 OA
ATOM      2  C   LIG A   1      -4.939   4.983 121.500  0.00  0.00    +0.157 C 
ATOM      3  C   LIG A   1      -5.854   4.063 120.729  0.00  0.00    +0.080 C 
ATOM      4  C   LIG A   1      -6.021   2.733 121.455  0.00  0.00    +0.019 C 
ATOM      5  C   LIG A   1      -6.509   2.884 122.929  0.00  0.00    +0.002 C 
ATOM      6  C   LIG A   1      -5.680   3.963 123.606  0.00  0.00    +0.005 C 
ATOM      7  C   LIG A   1      -5.721   4.039 125.097  0.00  0.00    +0.163 C 
ATOM      8  C   LIG A   1      -6.447   2.941 125.825  0.00  0.00    +0.117 C 
ATOM      9  C   LIG A   1      -6.319   1.592 125.172  0.00  0.00    +0.110 C 
ATOM     10  O   LIG A   1      -5.321   0.800 125.853  0.00  0.00    -0.360 OA
ATOM     11  C   LIG A   1      -6.645   0.297 125.931  0.00  0.00    +0.105 C 
ATOM     12  C   LIG A   1      -7.422   0.370 127.197  0.00  0.00    +0.039 C 
ATOM     13  C   LIG A   1      -8.726  -0.284 126.750  0.00  0.00    +0.007 C 
ATOM     14  C   LIG A   1      -8.291  -1.492 125.875  0.00  0.00    +0.005 C 
ATOM     15  C   LIG A   1      -6.879  -1.062 125.267  0.00  0.00    +0.003 C 
ATOM     16  C   LIG A   1      -5.709  -2.004 125.600  0.00  0.00    +0.014 C 
ATOM     17  C   LIG A   1      -6.946  -0.946 123.723  0.00  0.00    +0.010 C 
ATOM     18  C   LIG A   1      -7.344   0.438 123.213  0.00  0.00    +0.008 C 
ATOM     19  C   LIG A   1      -6.309   1.501 123.656  0.00  0.00    +0.035 C 
ATOM     20  O   LIG A   1      -5.263   5.011 125.696  0.00  0.00    -0.292 OA
ATOM     21  C   LIG A   1      -4.943   4.892 122.977  0.00  0.00    +0.053 C 
ATOM     22  C   LIG A   1      -7.989   3.335 122.917  0.00  0.00    +0.016 C 
ENDROOT
BRANCH  14  23
ATOM     23  C   LIG A   1      -8.511  -2.833 126.644  0.00  0.00    +0.012 C 
ATOM     24  C   LIG A   1      -9.809  -3.598 126.342  0.00  0.00    +0.012 C 
BRANCH  23  25
ATOM     25  C   LIG A   1      -8.321  -2.755 128.142  0.00  0.00    -0.027 C 
ATOM     26  C   LIG A   1      -7.210  -3.145 128.789  0.00  0.00    -0.027 C 
BRANCH  26  27
ATOM     27  C   LIG A   1      -7.039  -3.217 130.299  0.00  0.00    +0.011 C 
ATOM     28  C   LIG A   1      -7.438  -1.899 130.981  0.00  0.00    +0.012 C 
BRANCH  27  29
ATOM     29  C   LIG A   1      -5.616  -3.693 130.708  0.00  0.00    -0.011 C 
ATOM     30  C   LIG A   1      -5.567  -5.204 130.974  0.00  0.00    +0.008 C 
ATOM     31  C   LIG A   1      -4.568  -3.346 129.642  0.00  0.00    +0.008 C 
ENDBRANCH  27  29
ENDBRANCH  26  27
ENDBRANCH  23  25
ENDBRANCH  14  23
TORSDOF 4
ENDMDL
MODEL 2
REMARK VINA RESULT:      -8.5      4.293      7.147
REMARK  Name = NuBBE_836
REMARK  10 active torsions:
REMARK  status: ('A' for Active; 'I' for Inactive)
REMARK    1  A    between atoms: C_5  and  C_35
REMARK    2  A    between atoms: C_14  and  C_16
REMARK    3  A    between atoms: C_16  and  C_18
REMARK    4  A    between atoms: C_16  and  C_26
REMARK    5  A    between atoms: C_19  and  C_20
REMARK    6  A    between atoms: C_20  and  C_22
REMARK    7  A    between atoms: C_20  and  C_25
REMARK    8  A    between atoms: C_22  and  C_23
REMARK    9  A    between atoms: C_22  and  C_24
REMARK   10  A    between atoms: C_27  and  C_28
REMARK                            x       y       z     vdW  Elec       q    Type
REMARK                         _______ _______ _______ _____ _____    ______ ____
ROOT
ATOM      1  O   LIG A   1      -2.877   8.226 133.029  0.00  0.00    -0.293 OA
ATOM      2  C   LIG A   1      -3.311   7.314 132.334  0.00  0.00    +0.157 C 
ATOM      3  C   LIG A   1      -4.283   6.292 132.869  0.00  0.00    +0.080 C 
ATOM      4  C   LIG A   1      -5.162   5.744 131.751  0.00  0.00    +0.019 C 
ATOM      5  C   LIG A   1      -4.354   5.160 130.551  0.00  0.00    +0.002 C 
ATOM      6  C   LIG A   1      -3.262   6.146 130.176  0.00  0.00    +0.005 C 
ATOM      7  C   LIG A   1      -2.593   5.975 128.852  0.00  0.00    +0.163 C 
ATOM      8  C   LIG A   1      -3.163   4.941 127.918  0.00  0.00    +0.117 C 
ATOM      9  C   LIG A   1      -4.661   4.814 127.997  0.00  0.00    +0.110 C 
ATOM     10  O   LIG A   1      -5.280   5.524 126.903  0.00  0.00    -0.360 OA
ATOM     11  C   LIG A   1      -5.467   4.118 126.890  0.00  0.00    +0.105 C 
ATOM     12  C   LIG A   1      -4.760   3.257 125.905  0.00  0.00    +0.039 C 
ATOM     13  C   LIG A   1      -5.295   1.888 126.313  0.00  0.00    +0.007 C 
ATOM     14  C   LIG A   1      -6.808   2.112 126.590  0.00  0.00    +0.005 C 
ATOM     15  C   LIG A   1      -6.912   3.639 127.041  0.00  0.00    +0.003 C 
ATOM     16  C   LIG A   1      -7.837   4.516 126.177  0.00  0.00    +0.014 C 
ATOM     17  C   LIG A   1      -7.410   3.757 128.505  0.00  0.00    +0.010 C 
ATOM     18  C   LIG A   1      -6.295   3.749 129.550  0.00  0.00    +0.008 C 
ATOM     19  C   LIG A   1      -5.346   4.955 129.345  0.00  0.00    +0.035 C 
ATOM     20  O   LIG A   1      -1.561   6.586 128.576  0.00  0.00    -0.292 OA
ATOM     21  C   LIG A   1      -2.805   7.141 130.954  0.00  0.00    +0.053 C 
ATOM     22  C   LIG A   1      -3.690   3.836 130.999  0.00  0.00    +0.016 C 
ENDROOT
BRANCH  14  23
ATOM     23  C   LIG A   1      -7.671   1.506 125.437  0.00  0.00    +0.012 C 
ATOM     24  C   LIG A   1      -9.140   1.196 125.763  0.00  0.00    +0.012 C 
BRANCH  23  25
ATOM     25  C   LIG A   1      -7.059   0.318 124.731  0.00  0.00    -0.027 C 
ATOM     26  C   LIG A   1      -7.684  -0.856 124.535  0.00  0.00    -0.027 C 
BRANCH  26  27
ATOM     27  C   LIG A   1      -7.052  -2.115 123.964  0.00  0.00    +0.011 C 
ATOM     28  C   LIG A   1      -6.510  -1.887 122.543  0.00  0.00    +0.012 C 
BRANCH  27  29
ATOM     29  C   LIG A   1      -8.005  -3.341 124.047  0.00  0.00    -0.011 C 
ATOM     30  C   LIG A   1      -8.329  -3.724 125.498  0.00  0.00    +0.008 C 
ATOM     31  C   LIG A   1      -9.321  -3.096 123.298  0.00  0.00    +0.008 C 
ENDBRANCH  27  29
ENDBRANCH  26  27
ENDBRANCH  23  25
ENDBRANCH  14  23
TORSDOF 4
ENDMDL
MODEL 3
REMARK VINA RESULT:      -8.3      5.428      7.346
REMARK  Name = NuBBE_836
REMARK  10 active torsions:
REMARK  status: ('A' for Active; 'I' for Inactive)
REMARK    1  A    between atoms: C_5  and  C_35
REMARK    2  A    between atoms: C_14  and  C_16
REMARK    3  A    between atoms: C_16  and  C_18
REMARK    4  A    between atoms: C_16  and  C_26
REMARK    5  A    between atoms: C_19  and  C_20
REMARK    6  A    between atoms: C_20  and  C_22
REMARK    7  A    between atoms: C_20  and  C_25
REMARK    8  A    between atoms: C_22  and  C_23
REMARK    9  A    between atoms: C_22  and  C_24
REMARK   10  A    between atoms: C_27  and  C_28
REMARK                            x       y       z     vdW  Elec       q    Type
REMARK                         _______ _______ _______ _____ _____    ______ ____
ROOT
ATOM      1  O   LIG A   1     -11.855   8.867 128.510  0.00  0.00    -0.293 OA
ATOM      2  C   LIG A   1     -11.441   7.938 129.193  0.00  0.00    +0.157 C 
ATOM      3  C   LIG A   1     -12.370   6.930 129.824  0.00  0.00    +0.080 C 
ATOM      4  C   LIG A   1     -11.672   5.586 129.998  0.00  0.00    +0.019 C 
ATOM      5  C   LIG A   1     -10.335   5.676 130.796  0.00  0.00    +0.002 C 
ATOM      6  C   LIG A   1      -9.519   6.832 130.246  0.00  0.00    +0.005 C 
ATOM      7  C   LIG A   1      -8.071   6.896 130.605  0.00  0.00    +0.163 C 
ATOM      8  C   LIG A   1      -7.491   5.723 131.347  0.00  0.00    +0.117 C 
ATOM      9  C   LIG A   1      -8.081   4.398 130.944  0.00  0.00    +0.110 C 
ATOM     10  O   LIG A   1      -7.193   3.714 130.032  0.00  0.00    -0.360 OA
ATOM     11  C   LIG A   1      -7.383   3.072 131.282  0.00  0.00    +0.105 C 
ATOM     12  C   LIG A   1      -6.309   3.055 132.310  0.00  0.00    +0.039 C 
ATOM     13  C   LIG A   1      -7.006   2.267 133.415  0.00  0.00    +0.007 C 
ATOM     14  C   LIG A   1      -7.752   1.118 132.682  0.00  0.00    +0.005 C 
ATOM     15  C   LIG A   1      -8.059   1.700 131.228  0.00  0.00    +0.003 C 
ATOM     16  C   LIG A   1      -7.473   0.886 130.059  0.00  0.00    +0.014 C 
ATOM     17  C   LIG A   1      -9.585   1.816 130.982  0.00  0.00    +0.010 C 
ATOM     18  C   LIG A   1     -10.189   3.153 131.408  0.00  0.00    +0.008 C 
ATOM     19  C   LIG A   1      -9.559   4.318 130.607  0.00  0.00    +0.035 C 
ATOM     20  O   LIG A   1      -7.405   7.908 130.387  0.00  0.00    -0.292 OA
ATOM     21  C   LIG A   1      -9.996   7.839 129.495  0.00  0.00    +0.053 C 
ATOM     22  C   LIG A   1     -10.663   5.966 132.280  0.00  0.00    +0.016 C 
ENDROOT
BRANCH  14  23
ATOM     23  C   LIG A   1      -7.022  -0.244 132.915  0.00  0.00    +0.012 C 
ATOM     24  C   LIG A   1      -5.486  -0.218 132.889  0.00  0.00    +0.012 C 
BRANCH  23  25
ATOM     25  C   LIG A   1      -7.511  -1.391 132.060  0.00  0.00    -0.027 C 
ATOM     26  C   LIG A   1      -6.713  -2.312 131.493  0.00  0.00    -0.027 C 
BRANCH  26  27
ATOM     27  C   LIG A   1      -7.154  -3.387 130.512  0.00  0.00    +0.011 C 
ATOM     28  C   LIG A   1      -6.044  -4.421 130.262  0.00  0.00    +0.012 C 
BRANCH  27  29
ATOM     29  C   LIG A   1      -7.717  -2.786 129.193  0.00  0.00    -0.011 C 
ATOM     30  C   LIG A   1      -6.603  -2.435 128.197  0.00  0.00    +0.008 C 
ATOM     31  C   LIG A   1      -8.708  -3.736 128.508  0.00  0.00    +0.008 C 
ENDBRANCH  27  29
ENDBRANCH  26  27
ENDBRANCH  23  25
ENDBRANCH  14  23
TORSDOF 4
ENDMDL
MODEL 4
REMARK VINA RESULT:      -8.3      4.119      7.579
REMARK  Name = NuBBE_836
REMARK  10 active torsions:
REMARK  status: ('A' for Active; 'I' for Inactive)
REMARK    1  A    between atoms: C_5  and  C_35
REMARK    2  A    between atoms: C_14  and  C_16
REMARK    3  A    between atoms: C_16  and  C_18
REMARK    4  A    between atoms: C_16  and  C_26
REMARK    5  A    between atoms: C_19  and  C_20
REMARK    6  A    between atoms: C_20  and  C_22
REMARK    7  A    between atoms: C_20  and  C_25
REMARK    8  A    between atoms: C_22  and  C_23
REMARK    9  A    between atoms: C_22  and  C_24
REMARK   10  A    between atoms: C_27  and  C_28
REMARK                            x       y       z     vdW  Elec       q    Type
REMARK                         _______ _______ _______ _____ _____    ______ ____
ROOT
ATOM      1  O   LIG A   1      -7.992   4.686 135.146  0.00  0.00    -0.293 OA
ATOM      2  C   LIG A   1      -8.195   4.433 133.965  0.00  0.00    +0.157 C 
ATOM      3  C   LIG A   1      -8.700   5.475 132.997  0.00  0.00    +0.080 C 
ATOM      4  C   LIG A   1      -8.231   5.170 131.580  0.00  0.00    +0.019 C 
ATOM      5  C   LIG A   1      -8.608   3.738 131.092  0.00  0.00    +0.002 C 
ATOM      6  C   LIG A   1      -8.255   2.744 132.185  0.00  0.00    +0.005 C 
ATOM      7  C   LIG A   1      -8.196   1.298 131.819  0.00  0.00    +0.163 C 
ATOM      8  C   LIG A   1      -8.328   0.948 130.361  0.00  0.00    +0.117 C 
ATOM      9  C   LIG A   1      -7.701   1.956 129.436  0.00  0.00    +0.110 C 
ATOM     10  O   LIG A   1      -6.409   1.489 128.992  0.00  0.00    -0.360 OA
ATOM     11  C   LIG A   1      -7.386   1.616 127.972  0.00  0.00    +0.105 C 
ATOM     12  C   LIG A   1      -8.011   0.418 127.352  0.00  0.00    +0.039 C 
ATOM     13  C   LIG A   1      -8.951   1.089 126.356  0.00  0.00    +0.007 C 
ATOM     14  C   LIG A   1      -8.126   2.256 125.746  0.00  0.00    +0.005 C 
ATOM     15  C   LIG A   1      -7.084   2.652 126.887  0.00  0.00    +0.003 C 
ATOM     16  C   LIG A   1      -5.602   2.555 126.483  0.00  0.00    +0.014 C 
ATOM     17  C   LIG A   1      -7.326   4.100 127.388  0.00  0.00    +0.010 C 
ATOM     18  C   LIG A   1      -8.310   4.206 128.551  0.00  0.00    +0.008 C 
ATOM     19  C   LIG A   1      -7.784   3.432 129.785  0.00  0.00    +0.035 C 
ATOM     20  O   LIG A   1      -8.139   0.424 132.684  0.00  0.00    -0.292 OA
ATOM     21  C   LIG A   1      -8.033   3.046 133.475  0.00  0.00    +0.053 C 
ATOM     22  C   LIG A   1     -10.136   3.683 130.851  0.00  0.00    +0.016 C 
ENDROOT
BRANCH  14  23
ATOM     23  C   LIG A   1      -7.695   1.915 124.284  0.00  0.00    +0.012 C 
ATOM     24  C   LIG A   1      -8.297   2.782 123.166  0.00  0.00    +0.012 C 
BRANCH  23  25
ATOM     25  C   LIG A   1      -7.818   0.458 123.900  0.00  0.00    -0.027 C 
ATOM     26  C   LIG A   1      -6.775  -0.359 123.674  0.00  0.00    -0.027 C 
BRANCH  26  27
ATOM     27  C   LIG A   1      -6.860  -1.783 123.146  0.00  0.00    +0.011 C 
ATOM     28  C   LIG A   1      -8.250  -2.094 122.567  0.00  0.00    +0.012 C 
BRANCH  27  29
ATOM     29  C   LIG A   1      -6.406  -2.830 124.202  0.00  0.00    -0.011 C 
ATOM     30  C   LIG A   1      -7.507  -3.855 124.510  0.00  0.00    +0.008 C 
ATOM     31  C   LIG A   1      -5.144  -3.581 123.758  0.00  0.00    +0.008 C 
ENDBRANCH  27  29
ENDBRANCH  26  27
ENDBRANCH  23  25
ENDBRANCH  14  23
TORSDOF 4
ENDMDL
MODEL 5
REMARK VINA RESULT:      -8.1      3.471      5.987
REMARK  Name = NuBBE_836
REMARK  10 active torsions:
REMARK  status: ('A' for Active; 'I' for Inactive)
REMARK    1  A    between atoms: C_5  and  C_35
REMARK    2  A    between atoms: C_14  and  C_16
REMARK    3  A    between atoms: C_16  and  C_18
REMARK    4  A    between atoms: C_16  and  C_26
REMARK    5  A    between atoms: C_19  and  C_20
REMARK    6  A    between atoms: C_20  and  C_22
REMARK    7  A    between atoms: C_20  and  C_25
REMARK    8  A    between atoms: C_22  and  C_23
REMARK    9  A    between atoms: C_22  and  C_24
REMARK   10  A    between atoms: C_27  and  C_28
REMARK                            x       y       z     vdW  Elec       q    Type
REMARK                         _______ _______ _______ _____ _____    ______ ____
ROOT
ATOM      1  O   LIG A   1      -3.901   8.479 129.878  0.00  0.00    -0.293 OA
ATOM      2  C   LIG A   1      -4.222   7.297 129.916  0.00  0.00    +0.157 C 
ATOM      3  C   LIG A   1      -5.054   6.729 131.040  0.00  0.00    +0.080 C 
ATOM      4  C   LIG A   1      -5.868   5.533 130.560  0.00  0.00    +0.019 C 
ATOM      5  C   LIG A   1      -5.003   4.417 129.896  0.00  0.00    +0.002 C 
ATOM      6  C   LIG A   1      -4.046   5.065 128.912  0.00  0.00    +0.005 C 
ATOM      7  C   LIG A   1      -3.373   4.184 127.912  0.00  0.00    +0.163 C 
ATOM      8  C   LIG A   1      -3.817   2.747 127.846  0.00  0.00    +0.117 C 
ATOM      9  C   LIG A   1      -5.287   2.555 128.111  0.00  0.00    +0.110 C 
ATOM     10  O   LIG A   1      -5.999   2.386 126.866  0.00  0.00    -0.360 OA
ATOM     11  C   LIG A   1      -6.009   1.256 127.723  0.00  0.00    +0.105 C 
ATOM     12  C   LIG A   1      -5.208   0.043 127.406  0.00  0.00    +0.039 C 
ATOM     13  C   LIG A   1      -5.564  -0.834 128.602  0.00  0.00    +0.007 C 
ATOM     14  C   LIG A   1      -7.091  -0.630 128.812  0.00  0.00    +0.005 C 
ATOM     15  C   LIG A   1      -7.381   0.836 128.253  0.00  0.00    +0.003 C 
ATOM     16  C   LIG A   1      -8.416   0.910 127.115  0.00  0.00    +0.014 C 
ATOM     17  C   LIG A   1      -7.877   1.777 129.382  0.00  0.00    +0.010 C 
ATOM     18  C   LIG A   1      -6.761   2.514 130.120  0.00  0.00    +0.008 C 
ATOM     19  C   LIG A   1      -5.972   3.425 129.149  0.00  0.00    +0.035 C 
ATOM     20  O   LIG A   1      -2.428   4.592 127.237  0.00  0.00    -0.292 OA
ATOM     21  C   LIG A   1      -3.711   6.365 128.887  0.00  0.00    +0.053 C 
ATOM     22  C   LIG A   1      -4.175   3.713 130.998  0.00  0.00    +0.016 C 
ENDROOT
BRANCH  14  23
ATOM     23  C   LIG A   1      -7.881  -1.892 128.338  0.00  0.00    +0.012 C 
ATOM     24  C   LIG A   1      -8.274  -2.908 129.421  0.00  0.00    +0.012 C 
BRANCH  23  25
ATOM     25  C   LIG A   1      -7.274  -2.628 127.166  0.00  0.00    -0.027 C 
ATOM     26  C   LIG A   1      -7.658  -2.471 125.887  0.00  0.00    -0.027 C 
BRANCH  26  27
ATOM     27  C   LIG A   1      -7.174  -3.298 124.706  0.00  0.00    +0.011 C 
ATOM     28  C   LIG A   1      -5.680  -3.069 124.423  0.00  0.00    +0.012 C 
BRANCH  27  29
ATOM     29  C   LIG A   1      -8.057  -3.093 123.443  0.00  0.00    -0.011 C 
ATOM     30  C   LIG A   1      -9.555  -3.210 123.760  0.00  0.00    +0.008 C 
ATOM     31  C   LIG A   1      -7.799  -1.734 122.779  0.00  0.00    +0.008 C 
ENDBRANCH  27  29
ENDBRANCH  26  27
ENDBRANCH  23  25
ENDBRANCH  14  23
TORSDOF 4
ENDMDL
MODEL 6
REMARK VINA RESULT:      -8.1      1.395      2.137
REMARK  Name = NuBBE_836
REMARK  10 active torsions:
REMARK  status: ('A' for Active; 'I' for Inactive)
REMARK    1  A    between atoms: C_5  and  C_35
REMARK    2  A    between atoms: C_14  and  C_16
REMARK    3  A    between atoms: C_16  and  C_18
REMARK    4  A    between atoms: C_16  and  C_26
REMARK    5  A    between atoms: C_19  and  C_20
REMARK    6  A    between atoms: C_20  and  C_22
REMARK    7  A    between atoms: C_20  and  C_25
REMARK    8  A    between atoms: C_22  and  C_23
REMARK    9  A    between atoms: C_22  and  C_24
REMARK   10  A    between atoms: C_27  and  C_28
REMARK                            x       y       z     vdW  Elec       q    Type
REMARK                         _______ _______ _______ _____ _____    ______ ____
ROOT
ATOM      1  O   LIG A   1      -5.483   5.031 120.962  0.00  0.00    -0.293 OA
ATOM      2  C   LIG A   1      -5.937   4.250 121.789  0.00  0.00    +0.157 C 
ATOM      3  C   LIG A   1      -7.074   3.311 121.466  0.00  0.00    +0.080 C 
ATOM      4  C   LIG A   1      -6.997   2.052 122.321  0.00  0.00    +0.019 C 
ATOM      5  C   LIG A   1      -6.941   2.341 123.853  0.00  0.00    +0.002 C 
ATOM      6  C   LIG A   1      -5.916   3.433 124.103  0.00  0.00    +0.005 C 
ATOM      7  C   LIG A   1      -5.436   3.630 125.504  0.00  0.00    +0.163 C 
ATOM      8  C   LIG A   1      -5.878   2.626 126.533  0.00  0.00    +0.117 C 
ATOM      9  C   LIG A   1      -6.003   1.224 125.999  0.00  0.00    +0.110 C 
ATOM     10  O   LIG A   1      -4.841   0.447 126.363  0.00  0.00    -0.360 OA
ATOM     11  C   LIG A   1      -6.061   0.009 126.937  0.00  0.00    +0.105 C 
ATOM     12  C   LIG A   1      -6.351   0.217 128.381  0.00  0.00    +0.039 C 
ATOM     13  C   LIG A   1      -7.736  -0.414 128.471  0.00  0.00    +0.007 C 
ATOM     14  C   LIG A   1      -7.648  -1.706 127.611  0.00  0.00    +0.005 C 
ATOM     15  C   LIG A   1      -6.529  -1.387 126.519  0.00  0.00    +0.003 C 
ATOM     16  C   LIG A   1      -5.328  -2.349 126.512  0.00  0.00    +0.014 C 
ATOM     17  C   LIG A   1      -7.126  -1.391 125.088  0.00  0.00    +0.010 C 
ATOM     18  C   LIG A   1      -7.657  -0.036 124.625  0.00  0.00    +0.008 C 
ATOM     19  C   LIG A   1      -6.520   1.013 124.587  0.00  0.00    +0.035 C 
ATOM     20  O   LIG A   1      -4.785   4.626 125.819  0.00  0.00    -0.292 OA
ATOM     21  C   LIG A   1      -5.430   4.277 123.178  0.00  0.00    +0.053 C 
ATOM     22  C   LIG A   1      -8.328   2.853 124.310  0.00  0.00    +0.016 C 
ENDROOT
BRANCH  14  23
ATOM     23  C   LIG A   1      -7.605  -2.971 128.527  0.00  0.00    +0.012 C 
ATOM     24  C   LIG A   1      -8.924  -3.737 128.708  0.00  0.00    +0.012 C 
BRANCH  23  25
ATOM     25  C   LIG A   1      -6.963  -2.765 129.879  0.00  0.00    -0.027 C 
ATOM     26  C   LIG A   1      -7.611  -2.863 131.053  0.00  0.00    -0.027 C 
BRANCH  26  27
ATOM     27  C   LIG A   1      -7.035  -2.520 132.418  0.00  0.00    +0.011 C 
ATOM     28  C   LIG A   1      -7.642  -3.394 133.528  0.00  0.00    +0.012 C 
BRANCH  27  29
ATOM     29  C   LIG A   1      -7.135  -1.001 132.734  0.00  0.00    -0.011 C 
ATOM     30  C   LIG A   1      -5.941  -0.215 132.175  0.00  0.00    +0.008 C 
ATOM     31  C   LIG A   1      -8.429  -0.386 132.185  0.00  0.00    +0.008 C 
ENDBRANCH  27  29
ENDBRANCH  26  27
ENDBRANCH  23  25
ENDBRANCH  14  23
TORSDOF 4
ENDMDL
MODEL 7
REMARK VINA RESULT:      -8.1      4.433      7.509
REMARK  Name = NuBBE_836
REMARK  10 active torsions:
REMARK  status: ('A' for Active; 'I' for Inactive)
REMARK    1  A    between atoms: C_5  and  C_35
REMARK    2  A    between atoms: C_14  and  C_16
REMARK    3  A    between atoms: C_16  and  C_18
REMARK    4  A    between atoms: C_16  and  C_26
REMARK    5  A    between atoms: C_19  and  C_20
REMARK    6  A    between atoms: C_20  and  C_22
REMARK    7  A    between atoms: C_20  and  C_25
REMARK    8  A    between atoms: C_22  and  C_23
REMARK    9  A    between atoms: C_22  and  C_24
REMARK   10  A    between atoms: C_27  and  C_28
REMARK                            x       y       z     vdW  Elec       q    Type
REMARK                         _______ _______ _______ _____ _____    ______ ____
ROOT
ATOM      1  O   LIG A   1     -10.080  -3.522 123.421  0.00  0.00    -0.293 OA
ATOM      2  C   LIG A   1      -9.252  -2.746 123.883  0.00  0.00    +0.157 C 
ATOM      3  C   LIG A   1      -8.355  -1.912 123.002  0.00  0.00    +0.080 C 
ATOM      4  C   LIG A   1      -7.959  -0.618 123.702  0.00  0.00    +0.019 C 
ATOM      5  C   LIG A   1      -7.304  -0.841 125.100  0.00  0.00    +0.002 C 
ATOM      6  C   LIG A   1      -8.144  -1.839 125.876  0.00  0.00    +0.005 C 
ATOM      7  C   LIG A   1      -7.920  -1.943 127.349  0.00  0.00    +0.163 C 
ATOM      8  C   LIG A   1      -6.996  -0.936 127.980  0.00  0.00    +0.117 C 
ATOM      9  C   LIG A   1      -7.068   0.430 127.351  0.00  0.00    +0.110 C 
ATOM     10  O   LIG A   1      -7.882   1.308 128.157  0.00  0.00    -0.360 OA
ATOM     11  C   LIG A   1      -6.515   1.673 128.064  0.00  0.00    +0.105 C 
ATOM     12  C   LIG A   1      -5.592   1.501 129.218  0.00  0.00    +0.039 C 
ATOM     13  C   LIG A   1      -4.297   2.026 128.607  0.00  0.00    +0.007 C 
ATOM     14  C   LIG A   1      -4.714   3.285 127.798  0.00  0.00    +0.005 C 
ATOM     15  C   LIG A   1      -6.229   3.010 127.378  0.00  0.00    +0.003 C 
ATOM     16  C   LIG A   1      -7.244   4.062 127.862  0.00  0.00    +0.014 C 
ATOM     17  C   LIG A   1      -6.374   2.912 125.838  0.00  0.00    +0.010 C 
ATOM     18  C   LIG A   1      -6.191   1.503 125.278  0.00  0.00    +0.008 C 
ATOM     19  C   LIG A   1      -7.264   0.544 125.849  0.00  0.00    +0.035 C 
ATOM     20  O   LIG A   1      -8.395  -2.872 128.002  0.00  0.00    -0.292 OA
ATOM     21  C   LIG A   1      -9.049  -2.679 125.347  0.00  0.00    +0.053 C 
ATOM     22  C   LIG A   1      -5.892  -1.440 124.895  0.00  0.00    +0.016 C 
ENDROOT
BRANCH  14  23
ATOM     23  C   LIG A   1      -4.259   4.585 128.535  0.00  0.00    +0.012 C 
ATOM     24  C   LIG A   1      -3.898   5.789 127.653  0.00  0.00    +0.012 C 
BRANCH  23  25
ATOM     25  C   LIG A   1      -3.178   4.391 129.574  0.00  0.00    -0.027 C 
ATOM     26  C   LIG A   1      -3.099   5.076 130.727  0.00  0.00    -0.027 C 
BRANCH  26  27
ATOM     27  C   LIG A   1      -1.951   5.012 131.722  0.00  0.00    +0.011 C 
ATOM     28  C   LIG A   1      -2.309   4.162 132.953  0.00  0.00    +0.012 C 
BRANCH  27  29
ATOM     29  C   LIG A   1      -1.425   6.424 132.106  0.00  0.00    -0.011 C 
ATOM     30  C   LIG A   1      -2.506   7.503 131.955  0.00  0.00    +0.008 C 
ATOM     31  C   LIG A   1      -0.887   6.464 133.543  0.00  0.00    +0.008 C 
ENDBRANCH  27  29
ENDBRANCH  26  27
ENDBRANCH  23  25
ENDBRANCH  14  23
TORSDOF 4
ENDMDL
MODEL 8
REMARK VINA RESULT:      -8.0      5.153      7.526
REMARK  Name = NuBBE_836
REMARK  10 active torsions:
REMARK  status: ('A' for Active; 'I' for Inactive)
REMARK    1  A    between atoms: C_5  and  C_35
REMARK    2  A    between atoms: C_14  and  C_16
REMARK    3  A    between atoms: C_16  and  C_18
REMARK    4  A    between atoms: C_16  and  C_26
REMARK    5  A    between atoms: C_19  and  C_20
REMARK    6  A    between atoms: C_20  and  C_22
REMARK    7  A    between atoms: C_20  and  C_25
REMARK    8  A    between atoms: C_22  and  C_23
REMARK    9  A    between atoms: C_22  and  C_24
REMARK   10  A    between atoms: C_27  and  C_28
REMARK                            x       y       z     vdW  Elec       q    Type
REMARK                         _______ _______ _______ _____ _____    ______ ____
ROOT
ATOM      1  O   LIG A   1     -12.914   8.207 128.766  0.00  0.00    -0.293 OA
ATOM      2  C   LIG A   1     -12.094   7.529 129.372  0.00  0.00    +0.157 C 
ATOM      3  C   LIG A   1     -12.013   7.525 130.878  0.00  0.00    +0.080 C 
ATOM      4  C   LIG A   1     -11.471   6.195 131.388  0.00  0.00    +0.019 C 
ATOM      5  C   LIG A   1     -10.097   5.800 130.762  0.00  0.00    +0.002 C 
ATOM      6  C   LIG A   1     -10.171   6.007 129.260  0.00  0.00    +0.005 C 
ATOM      7  C   LIG A   1      -9.115   5.373 128.416  0.00  0.00    +0.163 C 
ATOM      8  C   LIG A   1      -8.152   4.440 129.100  0.00  0.00    +0.117 C 
ATOM      9  C   LIG A   1      -8.772   3.638 130.212  0.00  0.00    +0.110 C 
ATOM     10  O   LIG A   1      -9.074   2.302 129.754  0.00  0.00    -0.360 OA
ATOM     11  C   LIG A   1      -8.089   2.380 130.772  0.00  0.00    +0.105 C 
ATOM     12  C   LIG A   1      -6.653   2.136 130.473  0.00  0.00    +0.039 C 
ATOM     13  C   LIG A   1      -6.052   2.338 131.860  0.00  0.00    +0.007 C 
ATOM     14  C   LIG A   1      -7.038   1.634 132.833  0.00  0.00    +0.005 C 
ATOM     15  C   LIG A   1      -8.453   1.716 132.101  0.00  0.00    +0.003 C 
ATOM     16  C   LIG A   1      -9.129   0.359 131.829  0.00  0.00    +0.014 C 
ATOM     17  C   LIG A   1      -9.457   2.569 132.918  0.00  0.00    +0.010 C 
ATOM     18  C   LIG A   1      -9.438   4.058 132.577  0.00  0.00    +0.008 C 
ATOM     19  C   LIG A   1      -9.824   4.285 131.095  0.00  0.00    +0.035 C 
ATOM     20  O   LIG A   1      -8.979   5.676 127.231  0.00  0.00    -0.292 OA
ATOM     21  C   LIG A   1     -11.084   6.754 128.617  0.00  0.00    +0.053 C 
ATOM     22  C   LIG A   1      -9.006   6.735 131.335  0.00  0.00    +0.016 C 
ENDROOT
BRANCH  14  23
ATOM     23  C   LIG A   1      -6.428   0.294 133.356  0.00  0.00    +0.012 C 
ATOM     24  C   LIG A   1      -5.714   0.343 134.715  0.00  0.00    +0.012 C 
BRANCH  23  25
ATOM     25  C   LIG A   1      -5.557  -0.446 132.366  0.00  0.00    -0.027 C 
ATOM     26  C   LIG A   1      -5.813  -1.680 131.900  0.00  0.00    -0.027 C 
BRANCH  26  27
ATOM     27  C   LIG A   1      -4.889  -2.509 131.022  0.00  0.00    +0.011 C 
ATOM     28  C   LIG A   1      -3.588  -1.756 130.694  0.00  0.00    +0.012 C 
BRANCH  27  29
ATOM     29  C   LIG A   1      -5.606  -3.041 129.750  0.00  0.00    -0.011 C 
ATOM     30  C   LIG A   1      -7.087  -2.637 129.709  0.00  0.00    +0.008 C 
ATOM     31  C   LIG A   1      -4.927  -2.553 128.463  0.00  0.00    +0.008 C 
ENDBRANCH  27  29
ENDBRANCH  26  27
ENDBRANCH  23  25
ENDBRANCH  14  23
TORSDOF 4
ENDMDL
MODEL 9
REMARK VINA RESULT:      -7.9      5.685      9.862
REMARK  Name = NuBBE_836
REMARK  10 active torsions:
REMARK  status: ('A' for Active; 'I' for Inactive)
REMARK    1  A    between atoms: C_5  and  C_35
REMARK    2  A    between atoms: C_14  and  C_16
REMARK    3  A    between atoms: C_16  and  C_18
REMARK    4  A    between atoms: C_16  and  C_26
REMARK    5  A    between atoms: C_19  and  C_20
REMARK    6  A    between atoms: C_20  and  C_22
REMARK    7  A    between atoms: C_20  and  C_25
REMARK    8  A    between atoms: C_22  and  C_23
REMARK    9  A    between atoms: C_22  and  C_24
REMARK   10  A    between atoms: C_27  and  C_28
REMARK                            x       y       z     vdW  Elec       q    Type
REMARK                         _______ _______ _______ _____ _____    ______ ____
ROOT
ATOM      1  O   LIG A   1      -5.991  -5.009 130.371  0.00  0.00    -0.293 OA
ATOM      2  C   LIG A   1      -6.230  -3.810 130.291  0.00  0.00    +0.157 C 
ATOM      3  C   LIG A   1      -7.266  -3.262 129.340  0.00  0.00    +0.080 C 
ATOM      4  C   LIG A   1      -7.856  -1.962 129.874  0.00  0.00    +0.019 C 
ATOM      5  C   LIG A   1      -6.782  -0.878 130.203  0.00  0.00    +0.002 C 
ATOM      6  C   LIG A   1      -5.664  -1.530 130.998  0.00  0.00    +0.005 C 
ATOM      7  C   LIG A   1      -4.712  -0.635 131.721  0.00  0.00    +0.163 C 
ATOM      8  C   LIG A   1      -5.027   0.836 131.744  0.00  0.00    +0.117 C 
ATOM      9  C   LIG A   1      -6.500   1.139 131.811  0.00  0.00    +0.110 C 
ATOM     10  O   LIG A   1      -6.880   1.472 133.164  0.00  0.00    -0.360 OA
ATOM     11  C   LIG A   1      -7.017   2.526 132.224  0.00  0.00    +0.105 C 
ATOM     12  C   LIG A   1      -6.082   3.682 132.223  0.00  0.00    +0.039 C 
ATOM     13  C   LIG A   1      -6.653   4.488 131.061  0.00  0.00    +0.007 C 
ATOM     14  C   LIG A   1      -8.195   4.408 131.234  0.00  0.00    +0.005 C 
ATOM     15  C   LIG A   1      -8.444   3.024 131.988  0.00  0.00    +0.003 C 
ATOM     16  C   LIG A   1      -9.178   3.136 133.337  0.00  0.00    +0.014 C 
ATOM     17  C   LIG A   1      -9.260   2.044 131.106  0.00  0.00    +0.010 C 
ATOM     18  C   LIG A   1      -8.407   1.152 130.206  0.00  0.00    +0.008 C 
ATOM     19  C   LIG A   1      -7.473   0.254 131.053  0.00  0.00    +0.035 C 
ATOM     20  O   LIG A   1      -3.663  -1.072 132.195  0.00  0.00    -0.292 OA
ATOM     21  C   LIG A   1      -5.424  -2.849 131.074  0.00  0.00    +0.053 C 
ATOM     22  C   LIG A   1      -6.196  -0.344 128.875  0.00  0.00    +0.016 C 
ENDROOT
BRANCH  14  23
ATOM     23  C   LIG A   1      -8.759   5.770 131.750  0.00  0.00    +0.012 C 
ATOM     24  C   LIG A   1      -8.710   6.008 133.267  0.00  0.00    +0.012 C 
BRANCH  23  25
ATOM     25  C   LIG A   1     -10.134   6.133 131.237  0.00  0.00    -0.027 C 
ATOM     26  C   LIG A   1     -10.383   7.117 130.356  0.00  0.00    -0.027 C 
BRANCH  26  27
ATOM     27  C   LIG A   1     -11.759   7.604 129.931  0.00  0.00    +0.011 C 
ATOM     28  C   LIG A   1     -12.824   7.308 131.001  0.00  0.00    +0.012 C 
BRANCH  27  29
ATOM     29  C   LIG A   1     -12.164   7.074 128.527  0.00  0.00    -0.011 C 
ATOM     30  C   LIG A   1     -13.668   7.225 128.263  0.00  0.00    +0.008 C 
ATOM     31  C   LIG A   1     -11.393   7.782 127.404  0.00  0.00    +0.008 C 
ENDBRANCH  27  29
ENDBRANCH  26  27
ENDBRANCH  23  25
ENDBRANCH  14  23
TORSDOF 4
ENDMDL
