MODEL 1
REMARK VINA RESULT:      -8.8      0.000      0.000
REMARK  Name = NuBBE_95
REMARK  13 active torsions:
REMARK  status: ('A' for Active; 'I' for Inactive)
REMARK    1  A    between atoms: C_2  and  C_3
REMARK    2  A    between atoms: C_4  and  O_29
REMARK    3  A    between atoms: C_8  and  C_25
REMARK    4  A    between atoms: C_9  and  C_10
REMARK    5  A    between atoms: C_10  and  C_11
REMARK    6  A    between atoms: C_25  and  O_26
REMARK    7  A    between atoms: O_26  and  C_27
REMARK    8  A    between atoms: O_29  and  C_30
REMARK    9  A    between atoms: C_33  and  C_41
REMARK   10  A    between atoms: C_35  and  O_40
REMARK   11  A    between atoms: C_37  and  O_39
REMARK   12  A    between atoms: C_41  and  O_42
REMARK   13  A    between atoms: C_43  and  O_45
REMARK                            x       y       z     vdW  Elec       q    Type
REMARK                         _______ _______ _______ _____ _____    ______ ____
ROOT
ATOM      1  C   LIG A   1      -6.606   2.051 125.699  0.00  0.00    +0.088 C 
ATOM      2  C   LIG A   1      -5.620   3.218 125.985  0.00  0.00    +0.316 C 
ATOM      3  O   LIG A   1      -6.040   4.418 125.332  0.00  0.00    -0.470 OA
ATOM      4  C   LIG A   1      -6.432   4.285 124.036  0.00  0.00    +0.201 C 
ATOM      5  C   LIG A   1      -6.687   3.138 123.390  0.00  0.00    +0.075 C 
ATOM      6  C   LIG A   1      -6.574   1.808 124.133  0.00  0.00    +0.043 C 
ENDROOT
BRANCH   1   8
ATOM      7  C   LIG A   1      -8.596   1.569 127.210  0.00  0.00    +0.004 C 
ATOM      8  C   LIG A   1      -8.005   2.302 126.254  0.00  0.00    -0.025 C 
ENDBRANCH   1   8
BRANCH   5   9
ATOM      9  C   LIG A   1      -7.006   3.237 121.933  0.00  0.00    +0.338 C 
ATOM     10  O   LIG A   1      -6.201   3.233 121.033  0.00  0.00    -0.245 OA
BRANCH   9  11
ATOM     11  O   LIG A   1      -8.354   3.417 121.798  0.00  0.00    -0.465 OA
ATOM     12  C   LIG A   1      -8.817   3.827 120.513  0.00  0.00    +0.280 C 
ENDBRANCH   9  11
ENDBRANCH   5   9
BRANCH   6  13
ATOM     13  C   LIG A   1      -7.481   0.644 123.664  0.00  0.00    +0.034 C 
BRANCH  13  14
ATOM     14  C   LIG A   1      -6.856  -0.754 123.893  0.00  0.00    +0.101 C 
ATOM     15  C   LIG A   1      -7.367  -1.394 125.135  0.00  0.00    +0.037 A 
ATOM     16  C   LIG A   1      -8.334  -2.374 125.203  0.00  0.00    -0.016 A 
ATOM     17  C   LIG A   1      -8.999  -2.892 123.975  0.00  0.00    +0.052 C 
ATOM     18  C   LIG A   1      -8.463  -2.195 122.698  0.00  0.00    +0.086 C 
ATOM     19  N   LIG A   1      -7.070  -1.707 122.782  0.00  0.00    -0.308 NA
ATOM     20  C   LIG A   1      -8.397  -2.816 126.553  0.00  0.00    +0.003 A 
ATOM     21  C   LIG A   1      -9.128  -3.808 127.229  0.00  0.00    +0.010 A 
ATOM     22  C   LIG A   1      -8.866  -4.050 128.583  0.00  0.00    +0.001 A 
ATOM     23  C   LIG A   1      -7.894  -3.318 129.262  0.00  0.00    +0.002 A 
ATOM     24  C   LIG A   1      -7.168  -2.312 128.619  0.00  0.00    +0.026 A 
ATOM     25  C   LIG A   1      -7.442  -2.083 127.265  0.00  0.00    +0.047 A 
ATOM     26  N   LIG A   1      -6.867  -1.189 126.388  0.00  0.00    -0.356 N 
ATOM     27  H   LIG A   1      -6.792  -1.305 121.895  0.00  0.00    +0.123 HD
ATOM     28  H   LIG A   1      -6.126  -0.547 126.628  0.00  0.00    +0.166 HD
ENDBRANCH  13  14
ENDBRANCH   6  13
BRANCH   2  29
ATOM     29  O   LIG A   1      -5.417   3.452 127.392  0.00  0.00    -0.309 OA
BRANCH  29  30
ATOM     30  C   LIG A   1      -4.919   4.784 127.599  0.00  0.00    +0.286 C 
ATOM     31  O   LIG A   1      -3.642   4.979 126.976  0.00  0.00    -0.340 OA
ATOM     32  C   LIG A   1      -2.507   4.429 127.654  0.00  0.00    +0.178 C 
ATOM     33  C   LIG A   1      -2.447   4.833 129.139  0.00  0.00    +0.177 C 
ATOM     34  C   LIG A   1      -3.774   4.568 129.863  0.00  0.00    +0.179 C 
ATOM     35  C   LIG A   1      -4.925   5.218 129.084  0.00  0.00    +0.201 C 
BRANCH  34  36
ATOM     36  O   LIG A   1      -3.979   3.170 130.056  0.00  0.00    -0.386 OA
ATOM     37  H   LIG A   1      -3.358   2.703 129.467  0.00  0.00    +0.210 HD
ENDBRANCH  34  36
BRANCH  33  38
ATOM     38  O   LIG A   1      -2.184   6.255 129.214  0.00  0.00    -0.387 OA
ATOM     39  H   LIG A   1      -1.461   6.441 128.587  0.00  0.00    +0.210 HD
ENDBRANCH  33  38
BRANCH  35  40
ATOM     40  O   LIG A   1      -4.816   6.655 129.174  0.00  0.00    -0.384 OA
ATOM     41  H   LIG A   1      -4.437   6.964 128.320  0.00  0.00    +0.210 HD
ENDBRANCH  35  40
BRANCH  32  42
ATOM     42  C   LIG A   1      -2.320   2.929 127.395  0.00  0.00    +0.190 C 
BRANCH  42  43
ATOM     43  O   LIG A   1      -1.089   2.689 126.720  0.00  0.00    -0.392 OA
ATOM     44  H   LIG A   1      -0.759   3.551 126.412  0.00  0.00    +0.209 HD
ENDBRANCH  42  43
ENDBRANCH  32  42
ENDBRANCH  29  30
ENDBRANCH   2  29
TORSDOF 12
ENDMDL
MODEL 2
REMARK VINA RESULT:      -8.8      0.690      1.947
REMARK  Name = NuBBE_95
REMARK  13 active torsions:
REMARK  status: ('A' for Active; 'I' for Inactive)
REMARK    1  A    between atoms: C_2  and  C_3
REMARK    2  A    between atoms: C_4  and  O_29
REMARK    3  A    between atoms: C_8  and  C_25
REMARK    4  A    between atoms: C_9  and  C_10
REMARK    5  A    between atoms: C_10  and  C_11
REMARK    6  A    between atoms: C_25  and  O_26
REMARK    7  A    between atoms: O_26  and  C_27
REMARK    8  A    between atoms: O_29  and  C_30
REMARK    9  A    between atoms: C_33  and  C_41
REMARK   10  A    between atoms: C_35  and  O_40
REMARK   11  A    between atoms: C_37  and  O_39
REMARK   12  A    between atoms: C_41  and  O_42
REMARK   13  A    between atoms: C_43  and  O_45
REMARK                            x       y       z     vdW  Elec       q    Type
REMARK                         _______ _______ _______ _____ _____    ______ ____
ROOT
ATOM      1  C   LIG A   1      -6.576   1.988 125.728  0.00  0.00    +0.088 C 
ATOM      2  C   LIG A   1      -5.600   3.139 126.097  0.00  0.00    +0.316 C 
ATOM      3  O   LIG A   1      -5.953   4.349 125.422  0.00  0.00    -0.470 OA
ATOM      4  C   LIG A   1      -6.246   4.229 124.099  0.00  0.00    +0.201 C 
ATOM      5  C   LIG A   1      -6.466   3.089 123.427  0.00  0.00    +0.075 C 
ATOM      6  C   LIG A   1      -6.427   1.754 124.168  0.00  0.00    +0.043 C 
ENDROOT
BRANCH   1   8
ATOM      7  C   LIG A   1      -8.636   1.612 127.175  0.00  0.00    +0.004 C 
ATOM      8  C   LIG A   1      -8.010   2.255 126.177  0.00  0.00    -0.025 C 
ENDBRANCH   1   8
BRANCH   5   9
ATOM      9  C   LIG A   1      -6.672   3.201 121.951  0.00  0.00    +0.338 C 
ATOM     10  O   LIG A   1      -5.803   3.152 121.113  0.00  0.00    -0.245 OA
BRANCH   9  11
ATOM     11  O   LIG A   1      -7.994   3.450 121.717  0.00  0.00    -0.465 OA
ATOM     12  C   LIG A   1      -8.337   3.901 120.408  0.00  0.00    +0.280 C 
ENDBRANCH   9  11
ENDBRANCH   5   9
BRANCH   6  13
ATOM     13  C   LIG A   1      -7.311   0.604 123.623  0.00  0.00    +0.034 C 
BRANCH  13  14
ATOM     14  C   LIG A   1      -6.717  -0.802 123.877  0.00  0.00    +0.101 C 
ATOM     15  C   LIG A   1      -7.265  -1.422 125.114  0.00  0.00    +0.037 A 
ATOM     16  C   LIG A   1      -8.251  -2.383 125.171  0.00  0.00    -0.016 A 
ATOM     17  C   LIG A   1      -8.901  -2.900 123.935  0.00  0.00    +0.052 C 
ATOM     18  C   LIG A   1      -8.325  -2.225 122.662  0.00  0.00    +0.086 C 
ATOM     19  N   LIG A   1      -6.926  -1.761 122.771  0.00  0.00    -0.308 NA
ATOM     20  C   LIG A   1      -8.350  -2.810 126.523  0.00  0.00    +0.003 A 
ATOM     21  C   LIG A   1      -9.114  -3.783 127.193  0.00  0.00    +0.010 A 
ATOM     22  C   LIG A   1      -8.884  -4.017 128.554  0.00  0.00    +0.001 A 
ATOM     23  C   LIG A   1      -7.912  -3.297 129.247  0.00  0.00    +0.002 A 
ATOM     24  C   LIG A   1      -7.155  -2.311 128.610  0.00  0.00    +0.026 A 
ATOM     25  C   LIG A   1      -7.397  -2.089 127.249  0.00  0.00    +0.047 A 
ATOM     26  N   LIG A   1      -6.788  -1.214 126.376  0.00  0.00    -0.356 N 
ATOM     27  H   LIG A   1      -6.622  -1.374 121.886  0.00  0.00    +0.123 HD
ATOM     28  H   LIG A   1      -6.040  -0.583 126.626  0.00  0.00    +0.166 HD
ENDBRANCH  13  14
ENDBRANCH   6  13
BRANCH   2  29
ATOM     29  O   LIG A   1      -5.502   3.363 127.517  0.00  0.00    -0.309 OA
BRANCH  29  30
ATOM     30  C   LIG A   1      -4.127   3.284 127.930  0.00  0.00    +0.286 C 
ATOM     31  O   LIG A   1      -3.990   3.403 129.352  0.00  0.00    -0.340 OA
ATOM     32  C   LIG A   1      -4.098   4.723 129.899  0.00  0.00    +0.178 C 
ATOM     33  C   LIG A   1      -3.188   5.740 129.184  0.00  0.00    +0.177 C 
ATOM     34  C   LIG A   1      -3.362   5.697 127.659  0.00  0.00    +0.179 C 
ATOM     35  C   LIG A   1      -3.200   4.255 127.162  0.00  0.00    +0.201 C 
BRANCH  34  36
ATOM     36  O   LIG A   1      -4.613   6.260 127.274  0.00  0.00    -0.386 OA
ATOM     37  H   LIG A   1      -4.910   5.787 126.474  0.00  0.00    +0.210 HD
ENDBRANCH  34  36
BRANCH  33  38
ATOM     38  O   LIG A   1      -1.811   5.403 129.477  0.00  0.00    -0.387 OA
ATOM     39  H   LIG A   1      -1.363   6.235 129.718  0.00  0.00    +0.210 HD
ENDBRANCH  33  38
BRANCH  35  40
ATOM     40  O   LIG A   1      -1.824   3.844 127.319  0.00  0.00    -0.384 OA
ATOM     41  H   LIG A   1      -1.512   4.220 128.174  0.00  0.00    +0.210 HD
ENDBRANCH  35  40
BRANCH  32  42
ATOM     42  C   LIG A   1      -5.550   5.184 130.076  0.00  0.00    +0.190 C 
BRANCH  42  43
ATOM     43  O   LIG A   1      -5.624   6.606 130.089  0.00  0.00    -0.392 OA
ATOM     44  H   LIG A   1      -4.788   6.932 130.465  0.00  0.00    +0.209 HD
ENDBRANCH  42  43
ENDBRANCH  32  42
ENDBRANCH  29  30
ENDBRANCH   2  29
TORSDOF 12
ENDMDL
MODEL 3
REMARK VINA RESULT:      -8.7      4.571      7.382
REMARK  Name = NuBBE_95
REMARK  13 active torsions:
REMARK  status: ('A' for Active; 'I' for Inactive)
REMARK    1  A    between atoms: C_2  and  C_3
REMARK    2  A    between atoms: C_4  and  O_29
REMARK    3  A    between atoms: C_8  and  C_25
REMARK    4  A    between atoms: C_9  and  C_10
REMARK    5  A    between atoms: C_10  and  C_11
REMARK    6  A    between atoms: C_25  and  O_26
REMARK    7  A    between atoms: O_26  and  C_27
REMARK    8  A    between atoms: O_29  and  C_30
REMARK    9  A    between atoms: C_33  and  C_41
REMARK   10  A    between atoms: C_35  and  O_40
REMARK   11  A    between atoms: C_37  and  O_39
REMARK   12  A    between atoms: C_41  and  O_42
REMARK   13  A    between atoms: C_43  and  O_45
REMARK                            x       y       z     vdW  Elec       q    Type
REMARK                         _______ _______ _______ _____ _____    ______ ____
ROOT
ATOM      1  C   LIG A   1      -7.789   3.296 129.954  0.00  0.00    +0.088 C 
ATOM      2  C   LIG A   1      -9.337   3.308 129.818  0.00  0.00    +0.316 C 
ATOM      3  O   LIG A   1      -9.965   2.988 131.061  0.00  0.00    -0.470 OA
ATOM      4  C   LIG A   1      -9.443   1.929 131.737  0.00  0.00    +0.201 C 
ATOM      5  C   LIG A   1      -8.280   1.313 131.485  0.00  0.00    +0.075 C 
ATOM      6  C   LIG A   1      -7.384   1.818 130.356  0.00  0.00    +0.043 C 
ENDROOT
BRANCH   1   8
ATOM      7  C   LIG A   1      -6.423   5.350 130.583  0.00  0.00    +0.004 C 
ATOM      8  C   LIG A   1      -7.267   4.360 130.915  0.00  0.00    -0.025 C 
ENDBRANCH   1   8
BRANCH   5   9
ATOM      9  C   LIG A   1      -7.962   0.102 132.302  0.00  0.00    +0.338 C 
ATOM     10  O   LIG A   1      -8.234  -1.037 132.009  0.00  0.00    -0.245 OA
BRANCH   9  11
ATOM     11  O   LIG A   1      -7.388   0.510 133.473  0.00  0.00    -0.465 OA
ATOM     12  C   LIG A   1      -6.141  -0.090 133.816  0.00  0.00    +0.280 C 
ENDBRANCH   9  11
ENDBRANCH   5   9
BRANCH   6  13
ATOM     13  C   LIG A   1      -5.856   1.609 130.502  0.00  0.00    +0.034 C 
BRANCH  13  14
ATOM     14  C   LIG A   1      -5.269   0.616 129.471  0.00  0.00    +0.101 C 
ATOM     15  C   LIG A   1      -6.307  -0.303 128.930  0.00  0.00    +0.037 A 
ATOM     16  C   LIG A   1      -6.933  -0.189 127.708  0.00  0.00    -0.016 A 
ATOM     17  C   LIG A   1      -6.621   0.933 126.779  0.00  0.00    +0.052 C 
ATOM     18  C   LIG A   1      -5.550   1.885 127.374  0.00  0.00    +0.086 C 
ATOM     19  N   LIG A   1      -4.601   1.258 128.317  0.00  0.00    -0.308 NA
ATOM     20  C   LIG A   1      -7.722  -1.356 127.524  0.00  0.00    +0.003 A 
ATOM     21  C   LIG A   1      -8.531  -1.843 126.481  0.00  0.00    +0.010 A 
ATOM     22  C   LIG A   1      -9.104  -3.115 126.594  0.00  0.00    +0.001 A 
ATOM     23  C   LIG A   1      -8.883  -3.898 127.726  0.00  0.00    +0.002 A 
ATOM     24  C   LIG A   1      -8.101  -3.430 128.785  0.00  0.00    +0.026 A 
ATOM     25  C   LIG A   1      -7.535  -2.156 128.657  0.00  0.00    +0.047 A 
ATOM     26  N   LIG A   1      -6.711  -1.466 129.519  0.00  0.00    -0.356 N 
ATOM     27  H   LIG A   1      -3.917   1.940 128.622  0.00  0.00    +0.123 HD
ATOM     28  H   LIG A   1      -6.389  -1.818 130.409  0.00  0.00    +0.166 HD
ENDBRANCH  13  14
ENDBRANCH   6  13
BRANCH   2  29
ATOM     29  O   LIG A   1      -9.848   4.551 129.297  0.00  0.00    -0.309 OA
BRANCH  29  30
ATOM     30  C   LIG A   1     -11.011   4.951 130.042  0.00  0.00    +0.286 C 
ATOM     31  O   LIG A   1     -12.042   5.461 129.188  0.00  0.00    -0.340 OA
ATOM     32  C   LIG A   1     -11.870   6.798 128.702  0.00  0.00    +0.178 C 
ATOM     33  C   LIG A   1     -11.557   7.804 129.825  0.00  0.00    +0.177 C 
ATOM     34  C   LIG A   1     -10.403   7.329 130.720  0.00  0.00    +0.179 C 
ATOM     35  C   LIG A   1     -10.688   5.906 131.216  0.00  0.00    +0.201 C 
BRANCH  34  36
ATOM     36  O   LIG A   1      -9.157   7.418 130.033  0.00  0.00    -0.386 OA
ATOM     37  H   LIG A   1      -9.030   6.580 129.552  0.00  0.00    +0.210 HD
ENDBRANCH  34  36
BRANCH  33  38
ATOM     38  O   LIG A   1     -12.733   7.935 130.660  0.00  0.00    -0.387 OA
ATOM     39  H   LIG A   1     -12.896   8.890 130.769  0.00  0.00    +0.210 HD
ENDBRANCH  33  38
BRANCH  35  40
ATOM     40  O   LIG A   1     -11.795   5.932 132.144  0.00  0.00    -0.384 OA
ATOM     41  H   LIG A   1     -12.589   5.633 131.645  0.00  0.00    +0.210 HD
ENDBRANCH  35  40
BRANCH  32  42
ATOM     42  C   LIG A   1     -10.931   6.882 127.493  0.00  0.00    +0.190 C 
BRANCH  42  43
ATOM     43  O   LIG A   1     -11.638   6.591 126.291  0.00  0.00    -0.392 OA
ATOM     44  H   LIG A   1     -11.622   5.625 126.177  0.00  0.00    +0.209 HD
ENDBRANCH  42  43
ENDBRANCH  32  42
ENDBRANCH  29  30
ENDBRANCH   2  29
TORSDOF 12
ENDMDL
MODEL 4
REMARK VINA RESULT:      -8.6      3.899      7.119
REMARK  Name = NuBBE_95
REMARK  13 active torsions:
REMARK  status: ('A' for Active; 'I' for Inactive)
REMARK    1  A    between atoms: C_2  and  C_3
REMARK    2  A    between atoms: C_4  and  O_29
REMARK    3  A    between atoms: C_8  and  C_25
REMARK    4  A    between atoms: C_9  and  C_10
REMARK    5  A    between atoms: C_10  and  C_11
REMARK    6  A    between atoms: C_25  and  O_26
REMARK    7  A    between atoms: O_26  and  C_27
REMARK    8  A    between atoms: O_29  and  C_30
REMARK    9  A    between atoms: C_33  and  C_41
REMARK   10  A    between atoms: C_35  and  O_40
REMARK   11  A    between atoms: C_37  and  O_39
REMARK   12  A    between atoms: C_41  and  O_42
REMARK   13  A    between atoms: C_43  and  O_45
REMARK                            x       y       z     vdW  Elec       q    Type
REMARK                         _______ _______ _______ _____ _____    ______ ____
ROOT
ATOM      1  C   LIG A   1      -7.839   2.382 128.348  0.00  0.00    +0.088 C 
ATOM      2  C   LIG A   1      -8.268   2.134 129.821  0.00  0.00    +0.316 C 
ATOM      3  O   LIG A   1      -7.563   1.025 130.383  0.00  0.00    -0.470 OA
ATOM      4  C   LIG A   1      -7.478  -0.085 129.601  0.00  0.00    +0.201 C 
ATOM      5  C   LIG A   1      -7.772  -0.170 128.296  0.00  0.00    +0.075 C 
ATOM      6  C   LIG A   1      -8.228   1.076 127.540  0.00  0.00    +0.043 C 
ENDROOT
BRANCH   1   8
ATOM      7  C   LIG A   1      -5.924   4.014 127.959  0.00  0.00    +0.004 C 
ATOM      8  C   LIG A   1      -6.370   2.773 128.214  0.00  0.00    -0.025 C 
ENDBRANCH   1   8
BRANCH   5   9
ATOM      9  C   LIG A   1      -7.697  -1.526 127.671  0.00  0.00    +0.338 C 
ATOM     10  O   LIG A   1      -7.370  -1.759 126.532  0.00  0.00    -0.245 OA
BRANCH   9  11
ATOM     11  O   LIG A   1      -8.141  -2.445 128.579  0.00  0.00    -0.465 OA
ATOM     12  C   LIG A   1      -8.601  -3.689 128.055  0.00  0.00    +0.280 C 
ENDBRANCH   9  11
ENDBRANCH   5   9
BRANCH   6  13
ATOM     13  C   LIG A   1      -7.901   1.159 126.028  0.00  0.00    +0.034 C 
BRANCH  13  14
ATOM     14  C   LIG A   1      -8.359   2.483 125.370  0.00  0.00    +0.101 C 
ATOM     15  C   LIG A   1      -7.484   2.869 124.230  0.00  0.00    +0.037 A 
ATOM     16  C   LIG A   1      -7.771   2.695 122.893  0.00  0.00    -0.016 A 
ATOM     17  C   LIG A   1      -9.042   2.055 122.450  0.00  0.00    +0.052 C 
ATOM     18  C   LIG A   1      -9.926   1.646 123.658  0.00  0.00    +0.086 C 
ATOM     19  N   LIG A   1      -9.753   2.467 124.875  0.00  0.00    -0.308 NA
ATOM     20  C   LIG A   1      -6.751   3.349 122.151  0.00  0.00    +0.003 A 
ATOM     21  C   LIG A   1      -6.518   3.569 120.782  0.00  0.00    +0.010 A 
ATOM     22  C   LIG A   1      -5.434   4.362 120.389  0.00  0.00    +0.001 A 
ATOM     23  C   LIG A   1      -4.586   4.931 121.339  0.00  0.00    +0.002 A 
ATOM     24  C   LIG A   1      -4.783   4.711 122.705  0.00  0.00    +0.026 A 
ATOM     25  C   LIG A   1      -5.872   3.916 123.080  0.00  0.00    +0.047 A 
ATOM     26  N   LIG A   1      -6.314   3.563 124.337  0.00  0.00    -0.356 N 
ATOM     27  H   LIG A   1     -10.395   2.156 125.594  0.00  0.00    +0.123 HD
ATOM     28  H   LIG A   1      -5.880   3.855 125.200  0.00  0.00    +0.166 HD
ENDBRANCH  13  14
ENDBRANCH   6  13
BRANCH   2  29
ATOM     29  O   LIG A   1      -8.125   3.300 130.655  0.00  0.00    -0.309 OA
BRANCH  29  30
ATOM     30  C   LIG A   1      -9.274   3.435 131.508  0.00  0.00    +0.286 C 
ATOM     31  O   LIG A   1     -10.404   3.964 130.802  0.00  0.00    -0.340 OA
ATOM     32  C   LIG A   1     -10.401   5.374 130.550  0.00  0.00    +0.178 C 
ATOM     33  C   LIG A   1     -10.124   6.204 131.818  0.00  0.00    +0.177 C 
ATOM     34  C   LIG A   1      -8.874   5.717 132.564  0.00  0.00    +0.179 C 
ATOM     35  C   LIG A   1      -8.979   4.207 132.815  0.00  0.00    +0.201 C 
BRANCH  34  36
ATOM     36  O   LIG A   1      -7.689   6.061 131.851  0.00  0.00    -0.386 OA
ATOM     37  H   LIG A   1      -7.906   6.038 130.900  0.00  0.00    +0.210 HD
ENDBRANCH  34  36
BRANCH  33  38
ATOM     38  O   LIG A   1     -11.253   6.058 132.713  0.00  0.00    -0.387 OA
ATOM     39  H   LIG A   1     -12.037   5.906 132.155  0.00  0.00    +0.210 HD
ENDBRANCH  33  38
BRANCH  35  40
ATOM     40  O   LIG A   1     -10.023   3.952 133.780  0.00  0.00    -0.384 OA
ATOM     41  H   LIG A   1     -10.559   4.775 133.842  0.00  0.00    +0.210 HD
ENDBRANCH  35  40
BRANCH  32  42
ATOM     42  C   LIG A   1      -9.552   5.767 129.335  0.00  0.00    +0.190 C 
BRANCH  42  43
ATOM     43  O   LIG A   1      -9.214   7.150 129.389  0.00  0.00    -0.392 OA
ATOM     44  H   LIG A   1     -10.038   7.639 129.560  0.00  0.00    +0.209 HD
ENDBRANCH  42  43
ENDBRANCH  32  42
ENDBRANCH  29  30
ENDBRANCH   2  29
TORSDOF 12
ENDMDL
MODEL 5
REMARK VINA RESULT:      -8.5      4.517      7.437
REMARK  Name = NuBBE_95
REMARK  13 active torsions:
REMARK  status: ('A' for Active; 'I' for Inactive)
REMARK    1  A    between atoms: C_2  and  C_3
REMARK    2  A    between atoms: C_4  and  O_29
REMARK    3  A    between atoms: C_8  and  C_25
REMARK    4  A    between atoms: C_9  and  C_10
REMARK    5  A    between atoms: C_10  and  C_11
REMARK    6  A    between atoms: C_25  and  O_26
REMARK    7  A    between atoms: O_26  and  C_27
REMARK    8  A    between atoms: O_29  and  C_30
REMARK    9  A    between atoms: C_33  and  C_41
REMARK   10  A    between atoms: C_35  and  O_40
REMARK   11  A    between atoms: C_37  and  O_39
REMARK   12  A    between atoms: C_41  and  O_42
REMARK   13  A    between atoms: C_43  and  O_45
REMARK                            x       y       z     vdW  Elec       q    Type
REMARK                         _______ _______ _______ _____ _____    ______ ____
ROOT
ATOM      1  C   LIG A   1      -8.461   2.675 129.257  0.00  0.00    +0.088 C 
ATOM      2  C   LIG A   1      -9.703   3.308 129.944  0.00  0.00    +0.316 C 
ATOM      3  O   LIG A   1      -9.511   3.417 131.356  0.00  0.00    -0.470 OA
ATOM      4  C   LIG A   1      -8.994   2.321 131.973  0.00  0.00    +0.201 C 
ATOM      5  C   LIG A   1      -8.437   1.255 131.379  0.00  0.00    +0.075 C 
ATOM      6  C   LIG A   1      -8.309   1.217 129.858  0.00  0.00    +0.043 C 
ENDROOT
BRANCH   1   8
ATOM      7  C   LIG A   1      -6.486   4.011 128.366  0.00  0.00    +0.004 C 
ATOM      8  C   LIG A   1      -7.204   3.530 129.393  0.00  0.00    -0.025 C 
ENDBRANCH   1   8
BRANCH   5   9
ATOM      9  C   LIG A   1      -8.029   0.122 132.264  0.00  0.00    +0.338 C 
ATOM     10  O   LIG A   1      -8.389  -1.025 132.150  0.00  0.00    -0.245 OA
BRANCH   9  11
ATOM     11  O   LIG A   1      -7.251   0.618 133.271  0.00  0.00    -0.465 OA
ATOM     12  C   LIG A   1      -5.847   0.675 133.024  0.00  0.00    +0.280 C 
ENDBRANCH   9  11
ENDBRANCH   5   9
BRANCH   6  13
ATOM     13  C   LIG A   1      -7.129   0.415 129.256  0.00  0.00    +0.034 C 
BRANCH  13  14
ATOM     14  C   LIG A   1      -7.541  -0.976 128.716  0.00  0.00    +0.101 C 
ATOM     15  C   LIG A   1      -7.071  -1.193 127.321  0.00  0.00    +0.037 A 
ATOM     16  C   LIG A   1      -5.972  -1.932 126.942  0.00  0.00    -0.016 A 
ATOM     17  C   LIG A   1      -5.103  -2.601 127.950  0.00  0.00    +0.052 C 
ATOM     18  C   LIG A   1      -5.604  -2.344 129.396  0.00  0.00    +0.086 C 
ATOM     19  N   LIG A   1      -7.058  -2.114 129.528  0.00  0.00    -0.308 NA
ATOM     20  C   LIG A   1      -5.984  -2.015 125.523  0.00  0.00    +0.003 A 
ATOM     21  C   LIG A   1      -5.179  -2.663 124.568  0.00  0.00    +0.010 A 
ATOM     22  C   LIG A   1      -5.543  -2.615 123.218  0.00  0.00    +0.001 A 
ATOM     23  C   LIG A   1      -6.689  -1.931 122.813  0.00  0.00    +0.002 A 
ATOM     24  C   LIG A   1      -7.494  -1.261 123.738  0.00  0.00    +0.026 A 
ATOM     25  C   LIG A   1      -7.116  -1.320 125.085  0.00  0.00    +0.047 A 
ATOM     26  N   LIG A   1      -7.729  -0.785 126.197  0.00  0.00    -0.356 N 
ATOM     27  H   LIG A   1      -7.300  -1.997 130.505  0.00  0.00    +0.123 HD
ATOM     28  H   LIG A   1      -8.586  -0.251 126.178  0.00  0.00    +0.166 HD
ENDBRANCH  13  14
ENDBRANCH   6  13
BRANCH   2  29
ATOM     29  O   LIG A   1     -10.068   4.584 129.382  0.00  0.00    -0.309 OA
BRANCH  29  30
ATOM     30  C   LIG A   1     -11.240   5.092 130.044  0.00  0.00    +0.286 C 
ATOM     31  O   LIG A   1     -12.178   5.649 129.114  0.00  0.00    -0.340 OA
ATOM     32  C   LIG A   1     -11.878   6.953 128.603  0.00  0.00    +0.178 C 
ATOM     33  C   LIG A   1     -11.558   7.969 129.716  0.00  0.00    +0.177 C 
ATOM     34  C   LIG A   1     -10.497   7.440 130.692  0.00  0.00    +0.179 C 
ATOM     35  C   LIG A   1     -10.917   6.057 131.208  0.00  0.00    +0.201 C 
BRANCH  34  36
ATOM     36  O   LIG A   1      -9.209   7.416 130.081  0.00  0.00    -0.386 OA
ATOM     37  H   LIG A   1      -8.749   8.234 130.344  0.00  0.00    +0.210 HD
ENDBRANCH  34  36
BRANCH  33  38
ATOM     38  O   LIG A   1     -12.768   8.211 130.473  0.00  0.00    -0.387 OA
ATOM     39  H   LIG A   1     -12.788   9.165 130.674  0.00  0.00    +0.210 HD
ENDBRANCH  33  38
BRANCH  35  40
ATOM     40  O   LIG A   1     -12.071   6.193 132.065  0.00  0.00    -0.384 OA
ATOM     41  H   LIG A   1     -12.418   5.285 132.219  0.00  0.00    +0.210 HD
ENDBRANCH  35  40
BRANCH  32  42
ATOM     42  C   LIG A   1     -10.865   6.930 127.452  0.00  0.00    +0.190 C 
BRANCH  42  43
ATOM     43  O   LIG A   1     -11.512   6.608 126.225  0.00  0.00    -0.392 OA
ATOM     44  H   LIG A   1     -11.040   5.846 125.845  0.00  0.00    +0.209 HD
ENDBRANCH  42  43
ENDBRANCH  32  42
ENDBRANCH  29  30
ENDBRANCH   2  29
TORSDOF 12
ENDMDL
MODEL 6
REMARK VINA RESULT:      -8.4      3.812      6.893
REMARK  Name = NuBBE_95
REMARK  13 active torsions:
REMARK  status: ('A' for Active; 'I' for Inactive)
REMARK    1  A    between atoms: C_2  and  C_3
REMARK    2  A    between atoms: C_4  and  O_29
REMARK    3  A    between atoms: C_8  and  C_25
REMARK    4  A    between atoms: C_9  and  C_10
REMARK    5  A    between atoms: C_10  and  C_11
REMARK    6  A    between atoms: C_25  and  O_26
REMARK    7  A    between atoms: O_26  and  C_27
REMARK    8  A    between atoms: O_29  and  C_30
REMARK    9  A    between atoms: C_33  and  C_41
REMARK   10  A    between atoms: C_35  and  O_40
REMARK   11  A    between atoms: C_37  and  O_39
REMARK   12  A    between atoms: C_41  and  O_42
REMARK   13  A    between atoms: C_43  and  O_45
REMARK                            x       y       z     vdW  Elec       q    Type
REMARK                         _______ _______ _______ _____ _____    ______ ____
ROOT
ATOM      1  C   LIG A   1      -7.433   1.658 127.914  0.00  0.00    +0.088 C 
ATOM      2  C   LIG A   1      -7.781   1.254 129.373  0.00  0.00    +0.316 C 
ATOM      3  O   LIG A   1      -7.217  -0.017 129.704  0.00  0.00    -0.470 OA
ATOM      4  C   LIG A   1      -7.368  -0.996 128.771  0.00  0.00    +0.201 C 
ATOM      5  C   LIG A   1      -7.773  -0.839 127.503  0.00  0.00    +0.075 C 
ATOM      6  C   LIG A   1      -8.084   0.561 126.975  0.00  0.00    +0.043 C 
ENDROOT
BRANCH   1   8
ATOM      7  C   LIG A   1      -5.331   3.033 127.495  0.00  0.00    +0.004 C 
ATOM      8  C   LIG A   1      -5.935   1.850 127.690  0.00  0.00    -0.025 C 
ENDBRANCH   1   8
BRANCH   5   9
ATOM      9  C   LIG A   1      -7.960  -2.080 126.691  0.00  0.00    +0.338 C 
ATOM     10  O   LIG A   1      -8.989  -2.703 126.586  0.00  0.00    -0.245 OA
BRANCH   9  11
ATOM     11  O   LIG A   1      -6.753  -2.435 126.160  0.00  0.00    -0.465 OA
ATOM     12  C   LIG A   1      -6.758  -2.883 124.806  0.00  0.00    +0.280 C 
ENDBRANCH   9  11
ENDBRANCH   5   9
BRANCH   6  13
ATOM     13  C   LIG A   1      -7.865   0.824 125.464  0.00  0.00    +0.034 C 
BRANCH  13  14
ATOM     14  C   LIG A   1      -8.307   2.238 125.015  0.00  0.00    +0.101 C 
ATOM     15  C   LIG A   1      -7.511   2.727 123.858  0.00  0.00    +0.037 A 
ATOM     16  C   LIG A   1      -7.915   2.735 122.540  0.00  0.00    -0.016 A 
ATOM     17  C   LIG A   1      -9.249   2.209 122.137  0.00  0.00    +0.052 C 
ATOM     18  C   LIG A   1     -10.051   1.688 123.359  0.00  0.00    +0.086 C 
ATOM     19  N   LIG A   1      -9.736   2.342 124.646  0.00  0.00    -0.308 NA
ATOM     20  C   LIG A   1      -6.927   3.434 121.796  0.00  0.00    +0.003 A 
ATOM     21  C   LIG A   1      -6.797   3.814 120.448  0.00  0.00    +0.010 A 
ATOM     22  C   LIG A   1      -5.709   4.605 120.060  0.00  0.00    +0.001 A 
ATOM     23  C   LIG A   1      -4.757   5.015 120.994  0.00  0.00    +0.002 A 
ATOM     24  C   LIG A   1      -4.853   4.633 122.335  0.00  0.00    +0.026 A 
ATOM     25  C   LIG A   1      -5.946   3.843 122.706  0.00  0.00    +0.047 A 
ATOM     26  N   LIG A   1      -6.301   3.354 123.944  0.00  0.00    -0.356 N 
ATOM     27  H   LIG A   1     -10.332   1.970 125.376  0.00  0.00    +0.123 HD
ATOM     28  H   LIG A   1      -5.783   3.517 124.795  0.00  0.00    +0.166 HD
ENDBRANCH  13  14
ENDBRANCH   6  13
BRANCH   2  29
ATOM     29  O   LIG A   1      -7.392   2.248 130.342  0.00  0.00    -0.309 OA
BRANCH  29  30
ATOM     30  C   LIG A   1      -8.470   3.176 130.549  0.00  0.00    +0.286 C 
ATOM     31  O   LIG A   1      -8.030   4.361 131.226  0.00  0.00    -0.340 OA
ATOM     32  C   LIG A   1      -7.826   4.253 132.640  0.00  0.00    +0.178 C 
ATOM     33  C   LIG A   1      -9.033   3.633 133.370  0.00  0.00    +0.177 C 
ATOM     34  C   LIG A   1      -9.487   2.319 132.720  0.00  0.00    +0.179 C 
ATOM     35  C   LIG A   1      -9.709   2.538 131.217  0.00  0.00    +0.201 C 
BRANCH  34  36
ATOM     36  O   LIG A   1      -8.553   1.274 132.977  0.00  0.00    -0.386 OA
ATOM     37  H   LIG A   1      -8.901   0.752 133.724  0.00  0.00    +0.210 HD
ENDBRANCH  34  36
BRANCH  33  38
ATOM     38  O   LIG A   1     -10.139   4.565 133.294  0.00  0.00    -0.387 OA
ATOM     39  H   LIG A   1     -10.729   4.243 132.588  0.00  0.00    +0.210 HD
ENDBRANCH  33  38
BRANCH  35  40
ATOM     40  O   LIG A   1     -10.863   3.384 131.020  0.00  0.00    -0.384 OA
ATOM     41  H   LIG A   1     -11.425   2.943 130.342  0.00  0.00    +0.210 HD
ENDBRANCH  35  40
BRANCH  32  42
ATOM     42  C   LIG A   1      -6.473   3.632 133.007  0.00  0.00    +0.190 C 
BRANCH  42  43
ATOM     43  O   LIG A   1      -6.516   3.084 134.321  0.00  0.00    -0.392 OA
ATOM     44  H   LIG A   1      -6.931   3.752 134.896  0.00  0.00    +0.209 HD
ENDBRANCH  42  43
ENDBRANCH  32  42
ENDBRANCH  29  30
ENDBRANCH   2  29
TORSDOF 12
ENDMDL
MODEL 7
REMARK VINA RESULT:      -8.3      4.414      8.691
REMARK  Name = NuBBE_95
REMARK  13 active torsions:
REMARK  status: ('A' for Active; 'I' for Inactive)
REMARK    1  A    between atoms: C_2  and  C_3
REMARK    2  A    between atoms: C_4  and  O_29
REMARK    3  A    between atoms: C_8  and  C_25
REMARK    4  A    between atoms: C_9  and  C_10
REMARK    5  A    between atoms: C_10  and  C_11
REMARK    6  A    between atoms: C_25  and  O_26
REMARK    7  A    between atoms: O_26  and  C_27
REMARK    8  A    between atoms: O_29  and  C_30
REMARK    9  A    between atoms: C_33  and  C_41
REMARK   10  A    between atoms: C_35  and  O_40
REMARK   11  A    between atoms: C_37  and  O_39
REMARK   12  A    between atoms: C_41  and  O_42
REMARK   13  A    between atoms: C_43  and  O_45
REMARK                            x       y       z     vdW  Elec       q    Type
REMARK                         _______ _______ _______ _____ _____    ______ ____
ROOT
ATOM      1  C   LIG A   1      -7.551   1.819 128.642  0.00  0.00    +0.088 C 
ATOM      2  C   LIG A   1      -7.366   1.497 127.133  0.00  0.00    +0.316 C 
ATOM      3  O   LIG A   1      -5.983   1.499 126.771  0.00  0.00    -0.470 OA
ATOM      4  C   LIG A   1      -5.246   2.540 127.244  0.00  0.00    +0.201 C 
ATOM      5  C   LIG A   1      -5.614   3.419 128.187  0.00  0.00    +0.075 C 
ATOM      6  C   LIG A   1      -6.976   3.279 128.864  0.00  0.00    +0.043 C 
ENDROOT
BRANCH   1   8
ATOM      7  C   LIG A   1      -7.609  -0.208 130.180  0.00  0.00    +0.004 C 
ATOM      8  C   LIG A   1      -6.930   0.767 129.556  0.00  0.00    -0.025 C 
ENDBRANCH   1   8
BRANCH   5   9
ATOM      9  C   LIG A   1      -4.670   4.543 128.471  0.00  0.00    +0.338 C 
ATOM     10  O   LIG A   1      -4.777   5.673 128.060  0.00  0.00    -0.245 OA
BRANCH   9  11
ATOM     11  O   LIG A   1      -3.626   4.056 129.204  0.00  0.00    -0.465 OA
ATOM     12  C   LIG A   1      -3.426   4.631 130.493  0.00  0.00    +0.280 C 
ENDBRANCH   9  11
ENDBRANCH   5   9
BRANCH   6  13
ATOM     13  C   LIG A   1      -7.110   3.786 130.322  0.00  0.00    +0.034 C 
BRANCH  13  14
ATOM     14  C   LIG A   1      -7.337   5.314 130.423  0.00  0.00    +0.101 C 
ATOM     15  C   LIG A   1      -8.784   5.661 130.428  0.00  0.00    +0.037 A 
ATOM     16  C   LIG A   1      -9.535   5.986 131.537  0.00  0.00    -0.016 A 
ATOM     17  C   LIG A   1      -8.937   6.002 132.901  0.00  0.00    +0.052 C 
ATOM     18  C   LIG A   1      -7.434   5.618 132.870  0.00  0.00    +0.086 C 
ATOM     19  N   LIG A   1      -6.726   5.943 131.614  0.00  0.00    -0.308 NA
ATOM     20  C   LIG A   1     -10.812   6.407 131.076  0.00  0.00    +0.003 A 
ATOM     21  C   LIG A   1     -11.970   6.903 131.703  0.00  0.00    +0.010 A 
ATOM     22  C   LIG A   1     -13.048   7.326 130.917  0.00  0.00    +0.001 A 
ATOM     23  C   LIG A   1     -12.985   7.258 129.525  0.00  0.00    +0.002 A 
ATOM     24  C   LIG A   1     -11.855   6.750 128.879  0.00  0.00    +0.026 A 
ATOM     25  C   LIG A   1     -10.786   6.331 129.680  0.00  0.00    +0.047 A 
ATOM     26  N   LIG A   1      -9.558   5.824 129.316  0.00  0.00    -0.356 N 
ATOM     27  H   LIG A   1      -5.746   5.697 131.698  0.00  0.00    +0.123 HD
ATOM     28  H   LIG A   1      -9.254   5.684 128.363  0.00  0.00    +0.166 HD
ENDBRANCH  13  14
ENDBRANCH   6  13
BRANCH   2  29
ATOM     29  O   LIG A   1      -7.991   0.259 126.740  0.00  0.00    -0.309 OA
BRANCH  29  30
ATOM     30  C   LIG A   1      -9.177   0.531 125.975  0.00  0.00    +0.286 C 
ATOM     31  O   LIG A   1      -9.804  -0.674 125.517  0.00  0.00    -0.340 OA
ATOM     32  C   LIG A   1      -9.203  -1.323 124.391  0.00  0.00    +0.178 C 
ATOM     33  C   LIG A   1      -8.960  -0.363 123.211  0.00  0.00    +0.177 C 
ATOM     34  C   LIG A   1      -8.219   0.910 123.646  0.00  0.00    +0.179 C 
ATOM     35  C   LIG A   1      -8.950   1.550 124.834  0.00  0.00    +0.201 C 
BRANCH  34  36
ATOM     36  O   LIG A   1      -6.855   0.627 123.944  0.00  0.00    -0.386 OA
ATOM     37  H   LIG A   1      -6.834   0.176 124.808  0.00  0.00    +0.210 HD
ENDBRANCH  34  36
BRANCH  33  38
ATOM     38  O   LIG A   1     -10.246   0.039 122.679  0.00  0.00    -0.387 OA
ATOM     39  H   LIG A   1     -10.362   0.980 122.906  0.00  0.00    +0.210 HD
ENDBRANCH  33  38
BRANCH  35  40
ATOM     40  O   LIG A   1     -10.219   2.079 124.390  0.00  0.00    -0.384 OA
ATOM     41  H   LIG A   1     -10.513   2.721 125.076  0.00  0.00    +0.210 HD
ENDBRANCH  35  40
BRANCH  32  42
ATOM     42  C   LIG A   1      -7.993  -2.186 124.768  0.00  0.00    +0.190 C 
BRANCH  42  43
ATOM     43  O   LIG A   1      -7.153  -2.389 123.636  0.00  0.00    -0.392 OA
ATOM     44  H   LIG A   1      -7.012  -1.518 123.225  0.00  0.00    +0.209 HD
ENDBRANCH  42  43
ENDBRANCH  32  42
ENDBRANCH  29  30
ENDBRANCH   2  29
TORSDOF 12
ENDMDL
MODEL 8
REMARK VINA RESULT:      -8.3      1.606      2.800
REMARK  Name = NuBBE_95
REMARK  13 active torsions:
REMARK  status: ('A' for Active; 'I' for Inactive)
REMARK    1  A    between atoms: C_2  and  C_3
REMARK    2  A    between atoms: C_4  and  O_29
REMARK    3  A    between atoms: C_8  and  C_25
REMARK    4  A    between atoms: C_9  and  C_10
REMARK    5  A    between atoms: C_10  and  C_11
REMARK    6  A    between atoms: C_25  and  O_26
REMARK    7  A    between atoms: O_26  and  C_27
REMARK    8  A    between atoms: O_29  and  C_30
REMARK    9  A    between atoms: C_33  and  C_41
REMARK   10  A    between atoms: C_35  and  O_40
REMARK   11  A    between atoms: C_37  and  O_39
REMARK   12  A    between atoms: C_41  and  O_42
REMARK   13  A    between atoms: C_43  and  O_45
REMARK                            x       y       z     vdW  Elec       q    Type
REMARK                         _______ _______ _______ _____ _____    ______ ____
ROOT
ATOM      1  C   LIG A   1      -6.840   1.916 125.552  0.00  0.00    +0.088 C 
ATOM      2  C   LIG A   1      -5.931   3.073 126.053  0.00  0.00    +0.316 C 
ATOM      3  O   LIG A   1      -6.200   4.284 125.343  0.00  0.00    -0.470 OA
ATOM      4  C   LIG A   1      -6.315   4.170 123.993  0.00  0.00    +0.201 C 
ATOM      5  C   LIG A   1      -6.435   3.033 123.292  0.00  0.00    +0.075 C 
ATOM      6  C   LIG A   1      -6.485   1.694 124.024  0.00  0.00    +0.043 C 
ENDROOT
BRANCH   1   8
ATOM      7  C   LIG A   1      -9.175   1.284 126.346  0.00  0.00    +0.004 C 
ATOM      8  C   LIG A   1      -8.323   2.171 125.809  0.00  0.00    -0.025 C 
ENDBRANCH   1   8
BRANCH   5   9
ATOM      9  C   LIG A   1      -6.445   3.153 121.802  0.00  0.00    +0.338 C 
ATOM     10  O   LIG A   1      -5.489   3.014 121.078  0.00  0.00    -0.245 OA
BRANCH   9  11
ATOM     11  O   LIG A   1      -7.698   3.527 121.407  0.00  0.00    -0.465 OA
ATOM     12  C   LIG A   1      -7.820   4.062 120.091  0.00  0.00    +0.280 C 
ENDBRANCH   9  11
ENDBRANCH   5   9
BRANCH   6  13
ATOM     13  C   LIG A   1      -7.281   0.541 123.361  0.00  0.00    +0.034 C 
BRANCH  13  14
ATOM     14  C   LIG A   1      -6.693  -0.860 123.654  0.00  0.00    +0.101 C 
ATOM     15  C   LIG A   1      -7.236  -1.439 124.913  0.00  0.00    +0.037 A 
ATOM     16  C   LIG A   1      -8.227  -2.392 125.005  0.00  0.00    -0.016 A 
ATOM     17  C   LIG A   1      -8.888  -2.943 123.789  0.00  0.00    +0.052 C 
ATOM     18  C   LIG A   1      -8.317  -2.309 122.493  0.00  0.00    +0.086 C 
ATOM     19  N   LIG A   1      -6.914  -1.851 122.579  0.00  0.00    -0.308 NA
ATOM     20  C   LIG A   1      -8.319  -2.778 126.370  0.00  0.00    +0.003 A 
ATOM     21  C   LIG A   1      -9.083  -3.726 127.074  0.00  0.00    +0.010 A 
ATOM     22  C   LIG A   1      -8.846  -3.920 128.440  0.00  0.00    +0.001 A 
ATOM     23  C   LIG A   1      -7.865  -3.184 129.104  0.00  0.00    +0.002 A 
ATOM     24  C   LIG A   1      -7.107  -2.223 128.432  0.00  0.00    +0.026 A 
ATOM     25  C   LIG A   1      -7.357  -2.041 127.067  0.00  0.00    +0.047 A 
ATOM     26  N   LIG A   1      -6.749  -1.196 126.164  0.00  0.00    -0.356 N 
ATOM     27  H   LIG A   1      -6.614  -1.492 121.680  0.00  0.00    +0.123 HD
ATOM     28  H   LIG A   1      -5.995  -0.562 126.390  0.00  0.00    +0.166 HD
ENDBRANCH  13  14
ENDBRANCH   6  13
BRANCH   2  29
ATOM     29  O   LIG A   1      -6.023   3.288 127.475  0.00  0.00    -0.309 OA
BRANCH  29  30
ATOM     30  C   LIG A   1      -5.640   2.092 128.175  0.00  0.00    +0.286 C 
ATOM     31  O   LIG A   1      -6.743   1.512 128.883  0.00  0.00    -0.340 OA
ATOM     32  C   LIG A   1      -7.117   2.138 130.116  0.00  0.00    +0.178 C 
ATOM     33  C   LIG A   1      -5.920   2.345 131.064  0.00  0.00    +0.177 C 
ATOM     34  C   LIG A   1      -4.741   3.036 130.363  0.00  0.00    +0.179 C 
ATOM     35  C   LIG A   1      -4.395   2.280 129.074  0.00  0.00    +0.201 C 
BRANCH  34  36
ATOM     36  O   LIG A   1      -5.029   4.410 130.120  0.00  0.00    -0.386 OA
ATOM     37  H   LIG A   1      -4.951   4.878 130.972  0.00  0.00    +0.210 HD
ENDBRANCH  34  36
BRANCH  33  38
ATOM     38  O   LIG A   1      -5.463   1.045 131.510  0.00  0.00    -0.387 OA
ATOM     39  H   LIG A   1      -4.729   1.203 132.131  0.00  0.00    +0.210 HD
ENDBRANCH  33  38
BRANCH  35  40
ATOM     40  O   LIG A   1      -3.832   0.992 129.406  0.00  0.00    -0.384 OA
ATOM     41  H   LIG A   1      -2.909   1.156 129.708  0.00  0.00    +0.210 HD
ENDBRANCH  35  40
BRANCH  32  42
ATOM     42  C   LIG A   1      -7.994   3.380 129.919  0.00  0.00    +0.190 C 
BRANCH  42  43
ATOM     43  O   LIG A   1      -9.260   3.016 129.380  0.00  0.00    -0.392 OA
ATOM     44  H   LIG A   1      -9.412   2.083 129.611  0.00  0.00    +0.209 HD
ENDBRANCH  42  43
ENDBRANCH  32  42
ENDBRANCH  29  30
ENDBRANCH   2  29
TORSDOF 12
ENDMDL
MODEL 9
REMARK VINA RESULT:      -8.3      4.414      9.215
REMARK  Name = NuBBE_95
REMARK  13 active torsions:
REMARK  status: ('A' for Active; 'I' for Inactive)
REMARK    1  A    between atoms: C_2  and  C_3
REMARK    2  A    between atoms: C_4  and  O_29
REMARK    3  A    between atoms: C_8  and  C_25
REMARK    4  A    between atoms: C_9  and  C_10
REMARK    5  A    between atoms: C_10  and  C_11
REMARK    6  A    between atoms: C_25  and  O_26
REMARK    7  A    between atoms: O_26  and  C_27
REMARK    8  A    between atoms: O_29  and  C_30
REMARK    9  A    between atoms: C_33  and  C_41
REMARK   10  A    between atoms: C_35  and  O_40
REMARK   11  A    between atoms: C_37  and  O_39
REMARK   12  A    between atoms: C_41  and  O_42
REMARK   13  A    between atoms: C_43  and  O_45
REMARK                            x       y       z     vdW  Elec       q    Type
REMARK                         _______ _______ _______ _____ _____    ______ ____
ROOT
ATOM      1  C   LIG A   1      -8.539   3.458 130.338  0.00  0.00    +0.088 C 
ATOM      2  C   LIG A   1      -7.582   2.931 129.233  0.00  0.00    +0.316 C 
ATOM      3  O   LIG A   1      -7.305   1.540 129.412  0.00  0.00    -0.470 OA
ATOM      4  C   LIG A   1      -7.008   1.150 130.681  0.00  0.00    +0.201 C 
ATOM      5  C   LIG A   1      -7.174   1.870 131.799  0.00  0.00    +0.075 C 
ATOM      6  C   LIG A   1      -7.782   3.269 131.717  0.00  0.00    +0.043 C 
ENDROOT
BRANCH   1   8
ATOM      7  C   LIG A   1     -11.084   3.458 130.357  0.00  0.00    +0.004 C 
ATOM      8  C   LIG A   1      -9.915   2.801 130.297  0.00  0.00    -0.025 C 
ENDBRANCH   1   8
BRANCH   5   9
ATOM      9  C   LIG A   1      -6.679   1.266 133.074  0.00  0.00    +0.338 C 
ATOM     10  O   LIG A   1      -7.202   0.356 133.671  0.00  0.00    -0.245 OA
BRANCH   9  11
ATOM     11  O   LIG A   1      -5.586   1.972 133.491  0.00  0.00    -0.465 OA
ATOM     12  C   LIG A   1      -5.591   2.415 134.846  0.00  0.00    +0.280 C 
ENDBRANCH   9  11
ENDBRANCH   5   9
BRANCH   6  13
ATOM     13  C   LIG A   1      -8.582   3.778 132.942  0.00  0.00    +0.034 C 
BRANCH  13  14
ATOM     14  C   LIG A   1      -8.256   5.242 133.324  0.00  0.00    +0.101 C 
ATOM     15  C   LIG A   1      -7.043   5.743 132.624  0.00  0.00    +0.037 A 
ATOM     16  C   LIG A   1      -7.026   6.561 131.515  0.00  0.00    -0.016 A 
ATOM     17  C   LIG A   1      -8.289   7.027 130.877  0.00  0.00    +0.052 C 
ATOM     18  C   LIG A   1      -9.538   6.476 131.615  0.00  0.00    +0.086 C 
ATOM     19  N   LIG A   1      -9.351   6.201 133.055  0.00  0.00    -0.308 NA
ATOM     20  C   LIG A   1      -5.674   6.928 131.277  0.00  0.00    +0.003 A 
ATOM     21  C   LIG A   1      -5.031   7.768 130.350  0.00  0.00    +0.010 A 
ATOM     22  C   LIG A   1      -3.653   7.987 130.463  0.00  0.00    +0.001 A 
ATOM     23  C   LIG A   1      -2.917   7.380 131.480  0.00  0.00    +0.002 A 
ATOM     24  C   LIG A   1      -3.528   6.525 132.401  0.00  0.00    +0.026 A 
ATOM     25  C   LIG A   1      -4.906   6.317 132.274  0.00  0.00    +0.047 A 
ATOM     26  N   LIG A   1      -5.758   5.560 133.047  0.00  0.00    -0.356 N 
ATOM     27  H   LIG A   1     -10.224   5.886 133.461  0.00  0.00    +0.123 HD
ATOM     28  H   LIG A   1      -5.477   5.027 133.857  0.00  0.00    +0.166 HD
ENDBRANCH  13  14
ENDBRANCH   6  13
BRANCH   2  29
ATOM     29  O   LIG A   1      -8.066   3.184 127.900  0.00  0.00    -0.309 OA
BRANCH  29  30
ATOM     30  C   LIG A   1      -7.607   2.154 127.009  0.00  0.00    +0.286 C 
ATOM     31  O   LIG A   1      -6.281   2.414 126.531  0.00  0.00    -0.340 OA
ATOM     32  C   LIG A   1      -6.154   3.394 125.493  0.00  0.00    +0.178 C 
ATOM     33  C   LIG A   1      -7.110   3.138 124.313  0.00  0.00    +0.177 C 
ATOM     34  C   LIG A   1      -8.559   2.929 124.778  0.00  0.00    +0.179 C 
ATOM     35  C   LIG A   1      -8.599   1.845 125.864  0.00  0.00    +0.201 C 
BRANCH  34  36
ATOM     36  O   LIG A   1      -9.132   4.156 125.223  0.00  0.00    -0.386 OA
ATOM     37  H   LIG A   1      -9.224   4.733 124.442  0.00  0.00    +0.210 HD
ENDBRANCH  34  36
BRANCH  33  38
ATOM     38  O   LIG A   1      -6.689   1.927 123.640  0.00  0.00    -0.387 OA
ATOM     39  H   LIG A   1      -6.744   2.103 122.682  0.00  0.00    +0.210 HD
ENDBRANCH  33  38
BRANCH  35  40
ATOM     40  O   LIG A   1      -8.286   0.564 125.276  0.00  0.00    -0.384 OA
ATOM     41  H   LIG A   1      -7.304   0.501 125.242  0.00  0.00    +0.210 HD
ENDBRANCH  35  40
BRANCH  32  42
ATOM     42  C   LIG A   1      -6.166   4.834 126.020  0.00  0.00    +0.190 C 
BRANCH  42  43
ATOM     43  O   LIG A   1      -6.555   5.738 124.991  0.00  0.00    -0.392 OA
ATOM     44  H   LIG A   1      -5.740   6.128 124.629  0.00  0.00    +0.209 HD
ENDBRANCH  42  43
ENDBRANCH  32  42
ENDBRANCH  29  30
ENDBRANCH   2  29
TORSDOF 12
ENDMDL
