MODEL 1
REMARK VINA RESULT:      -6.8      0.000      0.000
REMARK  Name = NuBBE_855
REMARK  6 active torsions:
REMARK  status: ('A' for Active; 'I' for Inactive)
REMARK    1  A    between atoms: C_3  and  O_4
REMARK    2  A    between atoms: O_4  and  C_5
REMARK    3  A    between atoms: C_7  and  O_8
REMARK    4  A    between atoms: C_12  and  C_13
REMARK    5  A    between atoms: C_17  and  C_19
REMARK    6  A    between atoms: C_19  and  C_20
REMARK                            x       y       z     vdW  Elec       q    Type
REMARK                         _______ _______ _______ _____ _____    ______ ____
ROOT
ATOM      1  O   LIG A   1      -4.876   2.272 125.909  0.00  0.00    -0.289 OA
ATOM      2  C   LIG A   1      -6.022   2.521 125.518  0.00  0.00    +0.191 C 
ATOM      3  C   LIG A   1      -6.643   3.929 125.614  0.00  0.00    +0.191 C 
ATOM      4  C   LIG A   1      -8.167   3.884 125.527  0.00  0.00    +0.079 C 
ATOM      5  C   LIG A   1      -8.634   3.054 124.346  0.00  0.00    +0.183 C 
ATOM      6  C   LIG A   1      -6.827   1.411 124.917  0.00  0.00    +0.038 C 
ATOM      7  C   LIG A   1      -8.037   1.678 124.377  0.00  0.00    +0.133 C 
ATOM      8  O   LIG A   1      -8.886   0.695 123.869  0.00  0.00    -0.487 OA
ATOM      9  C   LIG A   1      -8.569  -0.623 124.334  0.00  0.00    +0.111 C 
ATOM     10  C   LIG A   1      -9.084  -0.782 125.781  0.00  0.00    +0.056 C 
ATOM     11  C   LIG A   1      -7.081  -0.903 124.093  0.00  0.00    +0.044 C 
ATOM     12  C   LIG A   1      -6.226   0.025 124.947  0.00  0.00    +0.050 C 
ATOM     13  C   LIG A   1      -6.962  -2.423 124.272  0.00  0.00    +0.021 C 
ATOM     14  C   LIG A   1      -8.308  -2.943 123.683  0.00  0.00    +0.012 C 
ATOM     15  C   LIG A   1      -9.192  -1.705 123.451  0.00  0.00    +0.049 C 
ENDROOT
BRANCH  13  16
ATOM     16  C   LIG A   1      -5.681  -3.014 123.711  0.00  0.00    -0.076 C 
ATOM     17  C   LIG A   1      -5.240  -2.464 122.377  0.00  0.00    +0.038 C 
ATOM     18  C   LIG A   1      -4.937  -3.948 124.327  0.00  0.00    +0.007 C 
ENDBRANCH  13  16
BRANCH   3  19
ATOM     19  O   LIG A   1      -6.230   4.514 126.858  0.00  0.00    -0.372 OA
ATOM     20  C   LIG A   1      -6.989   4.097 127.983  0.00  0.00    +0.195 C 
ENDBRANCH   3  19
BRANCH   5  21
ATOM     21  O   LIG A   1      -8.254   3.688 123.131  0.00  0.00    -0.384 OA
ATOM     22  H   LIG A   1      -7.985   2.976 122.523  0.00  0.00    +0.210 HD
ENDBRANCH   5  21
TORSDOF 3
ENDMDL
MODEL 2
REMARK VINA RESULT:      -6.7      1.758      1.849
REMARK  Name = NuBBE_855
REMARK  6 active torsions:
REMARK  status: ('A' for Active; 'I' for Inactive)
REMARK    1  A    between atoms: C_3  and  O_4
REMARK    2  A    between atoms: O_4  and  C_5
REMARK    3  A    between atoms: C_7  and  O_8
REMARK    4  A    between atoms: C_12  and  C_13
REMARK    5  A    between atoms: C_17  and  C_19
REMARK    6  A    between atoms: C_19  and  C_20
REMARK                            x       y       z     vdW  Elec       q    Type
REMARK                         _______ _______ _______ _____ _____    ______ ____
ROOT
ATOM      1  O   LIG A   1      -4.493   1.667 126.443  0.00  0.00    -0.289 OA
ATOM      2  C   LIG A   1      -5.715   1.692 126.627  0.00  0.00    +0.191 C 
ATOM      3  C   LIG A   1      -6.427   2.880 127.305  0.00  0.00    +0.191 C 
ATOM      4  C   LIG A   1      -7.801   2.488 127.840  0.00  0.00    +0.079 C 
ATOM      5  C   LIG A   1      -8.621   1.759 126.792  0.00  0.00    +0.183 C 
ATOM      6  C   LIG A   1      -6.531   0.526 126.161  0.00  0.00    +0.038 C 
ATOM      7  C   LIG A   1      -7.879   0.576 126.245  0.00  0.00    +0.133 C 
ATOM      8  O   LIG A   1      -8.710  -0.492 125.910  0.00  0.00    -0.487 OA
ATOM      9  C   LIG A   1      -8.028  -1.752 125.873  0.00  0.00    +0.111 C 
ATOM     10  C   LIG A   1      -7.806  -2.246 127.319  0.00  0.00    +0.056 C 
ATOM     11  C   LIG A   1      -6.784  -1.630 124.984  0.00  0.00    +0.044 C 
ATOM     12  C   LIG A   1      -5.784  -0.666 125.609  0.00  0.00    +0.050 C 
ATOM     13  C   LIG A   1      -6.375  -3.087 124.727  0.00  0.00    +0.021 C 
ATOM     14  C   LIG A   1      -7.748  -3.817 124.635  0.00  0.00    +0.012 C 
ATOM     15  C   LIG A   1      -8.814  -2.805 125.090  0.00  0.00    +0.049 C 
ENDROOT
BRANCH  13  16
ATOM     16  C   LIG A   1      -5.412  -3.264 123.567  0.00  0.00    -0.076 C 
ATOM     17  C   LIG A   1      -5.635  -2.347 122.390  0.00  0.00    +0.038 C 
ATOM     18  C   LIG A   1      -4.398  -4.146 123.545  0.00  0.00    +0.007 C 
ENDBRANCH  13  16
BRANCH   3  19
ATOM     19  O   LIG A   1      -5.589   3.352 128.371  0.00  0.00    -0.372 OA
ATOM     20  C   LIG A   1      -5.080   4.663 128.178  0.00  0.00    +0.195 C 
ENDBRANCH   3  19
BRANCH   5  21
ATOM     21  O   LIG A   1      -8.927   2.642 125.720  0.00  0.00    -0.384 OA
ATOM     22  H   LIG A   1      -8.382   3.438 125.858  0.00  0.00    +0.210 HD
ENDBRANCH   5  21
TORSDOF 3
ENDMDL
MODEL 3
REMARK VINA RESULT:      -6.5      8.017      9.671
REMARK  Name = NuBBE_855
REMARK  6 active torsions:
REMARK  status: ('A' for Active; 'I' for Inactive)
REMARK    1  A    between atoms: C_3  and  O_4
REMARK    2  A    between atoms: O_4  and  C_5
REMARK    3  A    between atoms: C_7  and  O_8
REMARK    4  A    between atoms: C_12  and  C_13
REMARK    5  A    between atoms: C_17  and  C_19
REMARK    6  A    between atoms: C_19  and  C_20
REMARK                            x       y       z     vdW  Elec       q    Type
REMARK                         _______ _______ _______ _____ _____    ______ ____
ROOT
ATOM      1  O   LIG A   1      -9.355   8.040 129.505  0.00  0.00    -0.289 OA
ATOM      2  C   LIG A   1      -9.606   6.907 129.933  0.00  0.00    +0.191 C 
ATOM      3  C   LIG A   1     -10.966   6.218 129.703  0.00  0.00    +0.191 C 
ATOM      4  C   LIG A   1     -11.202   5.083 130.696  0.00  0.00    +0.079 C 
ATOM      5  C   LIG A   1     -10.010   4.147 130.767  0.00  0.00    +0.183 C 
ATOM      6  C   LIG A   1      -8.541   6.178 130.689  0.00  0.00    +0.038 C 
ATOM      7  C   LIG A   1      -8.746   4.897 131.068  0.00  0.00    +0.133 C 
ATOM      8  O   LIG A   1      -7.844   4.170 131.843  0.00  0.00    -0.487 OA
ATOM      9  C   LIG A   1      -6.904   4.996 132.543  0.00  0.00    +0.111 C 
ATOM     10  C   LIG A   1      -7.603   5.626 133.767  0.00  0.00    +0.056 C 
ATOM     11  C   LIG A   1      -6.238   5.959 131.553  0.00  0.00    +0.044 C 
ATOM     12  C   LIG A   1      -7.267   6.932 130.993  0.00  0.00    +0.050 C 
ATOM     13  C   LIG A   1      -5.026   6.498 132.327  0.00  0.00    +0.021 C 
ATOM     14  C   LIG A   1      -4.575   5.260 133.160  0.00  0.00    +0.012 C 
ATOM     15  C   LIG A   1      -5.682   4.203 133.009  0.00  0.00    +0.049 C 
ENDROOT
BRANCH  13  16
ATOM     16  C   LIG A   1      -3.982   7.168 131.453  0.00  0.00    -0.076 C 
ATOM     17  C   LIG A   1      -2.963   8.008 132.184  0.00  0.00    +0.038 C 
ATOM     18  C   LIG A   1      -3.908   7.040 130.117  0.00  0.00    +0.007 C 
ENDBRANCH  13  16
BRANCH   3  19
ATOM     19  O   LIG A   1     -11.996   7.211 129.823  0.00  0.00    -0.372 OA
ATOM     20  C   LIG A   1     -12.654   7.223 131.080  0.00  0.00    +0.195 C 
ENDBRANCH   3  19
BRANCH   5  21
ATOM     21  O   LIG A   1      -9.854   3.471 129.526  0.00  0.00    -0.384 OA
ATOM     22  H   LIG A   1      -8.900   3.483 129.326  0.00  0.00    +0.210 HD
ENDBRANCH   5  21
TORSDOF 3
ENDMDL
MODEL 4
REMARK VINA RESULT:      -6.5      3.852      4.676
REMARK  Name = NuBBE_855
REMARK  6 active torsions:
REMARK  status: ('A' for Active; 'I' for Inactive)
REMARK    1  A    between atoms: C_3  and  O_4
REMARK    2  A    between atoms: O_4  and  C_5
REMARK    3  A    between atoms: C_7  and  O_8
REMARK    4  A    between atoms: C_12  and  C_13
REMARK    5  A    between atoms: C_17  and  C_19
REMARK    6  A    between atoms: C_19  and  C_20
REMARK                            x       y       z     vdW  Elec       q    Type
REMARK                         _______ _______ _______ _____ _____    ______ ____
ROOT
ATOM      1  O   LIG A   1      -4.106  -2.174 129.063  0.00  0.00    -0.289 OA
ATOM      2  C   LIG A   1      -5.224  -1.667 129.207  0.00  0.00    +0.191 C 
ATOM      3  C   LIG A   1      -5.652  -0.963 130.510  0.00  0.00    +0.191 C 
ATOM      4  C   LIG A   1      -7.171  -0.855 130.624  0.00  0.00    +0.079 C 
ATOM      5  C   LIG A   1      -7.786  -0.293 129.356  0.00  0.00    +0.183 C 
ATOM      6  C   LIG A   1      -6.188  -1.730 128.065  0.00  0.00    +0.038 C 
ATOM      7  C   LIG A   1      -7.373  -1.085 128.152  0.00  0.00    +0.133 C 
ATOM      8  O   LIG A   1      -8.362  -1.157 127.172  0.00  0.00    -0.487 OA
ATOM      9  C   LIG A   1      -8.202  -2.273 126.286  0.00  0.00    +0.111 C 
ATOM     10  C   LIG A   1      -8.677  -3.555 127.003  0.00  0.00    +0.056 C 
ATOM     11  C   LIG A   1      -6.773  -2.280 125.729  0.00  0.00    +0.044 C 
ATOM     12  C   LIG A   1      -5.773  -2.529 126.851  0.00  0.00    +0.050 C 
ATOM     13  C   LIG A   1      -6.846  -3.256 124.547  0.00  0.00    +0.021 C 
ATOM     14  C   LIG A   1      -8.270  -2.990 123.972  0.00  0.00    +0.012 C 
ATOM     15  C   LIG A   1      -8.994  -2.092 124.990  0.00  0.00    +0.049 C 
ENDROOT
BRANCH  13  16
ATOM     16  C   LIG A   1      -5.676  -3.153 123.586  0.00  0.00    -0.076 C 
ATOM     17  C   LIG A   1      -5.811  -2.110 122.505  0.00  0.00    +0.038 C 
ATOM     18  C   LIG A   1      -4.560  -3.899 123.660  0.00  0.00    +0.007 C 
ENDBRANCH  13  16
BRANCH   3  19
ATOM     19  O   LIG A   1      -5.119  -1.708 131.616  0.00  0.00    -0.372 OA
ATOM     20  C   LIG A   1      -6.094  -2.395 132.384  0.00  0.00    +0.195 C 
ENDBRANCH   3  19
BRANCH   5  21
ATOM     21  O   LIG A   1      -7.374   1.056 129.178  0.00  0.00    -0.384 OA
ATOM     22  H   LIG A   1      -6.800   1.065 128.390  0.00  0.00    +0.210 HD
ENDBRANCH   5  21
TORSDOF 3
ENDMDL
MODEL 5
REMARK VINA RESULT:      -6.5      2.494      5.879
REMARK  Name = NuBBE_855
REMARK  6 active torsions:
REMARK  status: ('A' for Active; 'I' for Inactive)
REMARK    1  A    between atoms: C_3  and  O_4
REMARK    2  A    between atoms: O_4  and  C_5
REMARK    3  A    between atoms: C_7  and  O_8
REMARK    4  A    between atoms: C_12  and  C_13
REMARK    5  A    between atoms: C_17  and  C_19
REMARK    6  A    between atoms: C_19  and  C_20
REMARK                            x       y       z     vdW  Elec       q    Type
REMARK                         _______ _______ _______ _____ _____    ______ ____
ROOT
ATOM      1  O   LIG A   1      -8.785  -1.189 122.786  0.00  0.00    -0.289 OA
ATOM      2  C   LIG A   1      -8.168  -1.108 123.854  0.00  0.00    +0.191 C 
ATOM      3  C   LIG A   1      -8.189  -2.231 124.910  0.00  0.00    +0.191 C 
ATOM      4  C   LIG A   1      -7.775  -1.722 126.288  0.00  0.00    +0.079 C 
ATOM      5  C   LIG A   1      -6.487  -0.923 126.224  0.00  0.00    +0.183 C 
ATOM      6  C   LIG A   1      -7.361   0.125 124.120  0.00  0.00    +0.038 C 
ATOM      7  C   LIG A   1      -6.586   0.192 125.225  0.00  0.00    +0.133 C 
ATOM      8  O   LIG A   1      -5.866   1.328 125.592  0.00  0.00    -0.487 OA
ATOM      9  C   LIG A   1      -6.331   2.524 124.953  0.00  0.00    +0.111 C 
ATOM     10  C   LIG A   1      -7.626   2.995 125.650  0.00  0.00    +0.056 C 
ATOM     11  C   LIG A   1      -6.404   2.297 123.438  0.00  0.00    +0.044 C 
ATOM     12  C   LIG A   1      -7.460   1.248 123.114  0.00  0.00    +0.050 C 
ATOM     13  C   LIG A   1      -6.538   3.713 122.862  0.00  0.00    +0.021 C 
ATOM     14  C   LIG A   1      -5.652   4.559 123.826  0.00  0.00    +0.012 C 
ATOM     15  C   LIG A   1      -5.290   3.643 125.007  0.00  0.00    +0.049 C 
ENDROOT
BRANCH  13  16
ATOM     16  C   LIG A   1      -6.240   3.808 121.377  0.00  0.00    -0.076 C 
ATOM     17  C   LIG A   1      -7.445   3.938 120.479  0.00  0.00    +0.038 C 
ATOM     18  C   LIG A   1      -5.006   3.805 120.844  0.00  0.00    +0.007 C 
ENDBRANCH  13  16
BRANCH   3  19
ATOM     19  O   LIG A   1      -9.516  -2.776 124.955  0.00  0.00    -0.372 OA
ATOM     20  C   LIG A   1      -9.906  -3.265 126.229  0.00  0.00    +0.195 C 
ENDBRANCH   3  19
BRANCH   5  21
ATOM     21  O   LIG A   1      -5.410  -1.774 125.851  0.00  0.00    -0.384 OA
ATOM     22  H   LIG A   1      -5.723  -2.687 125.988  0.00  0.00    +0.210 HD
ENDBRANCH   5  21
TORSDOF 3
ENDMDL
MODEL 6
REMARK VINA RESULT:      -6.3      6.833      8.690
REMARK  Name = NuBBE_855
REMARK  6 active torsions:
REMARK  status: ('A' for Active; 'I' for Inactive)
REMARK    1  A    between atoms: C_3  and  O_4
REMARK    2  A    between atoms: O_4  and  C_5
REMARK    3  A    between atoms: C_7  and  O_8
REMARK    4  A    between atoms: C_12  and  C_13
REMARK    5  A    between atoms: C_17  and  C_19
REMARK    6  A    between atoms: C_19  and  C_20
REMARK                            x       y       z     vdW  Elec       q    Type
REMARK                         _______ _______ _______ _____ _____    ______ ____
ROOT
ATOM      1  O   LIG A   1      -8.951   5.207 128.100  0.00  0.00    -0.289 OA
ATOM      2  C   LIG A   1      -9.561   5.708 129.051  0.00  0.00    +0.191 C 
ATOM      3  C   LIG A   1     -10.609   6.824 128.868  0.00  0.00    +0.191 C 
ATOM      4  C   LIG A   1     -10.857   7.587 130.166  0.00  0.00    +0.079 C 
ATOM      5  C   LIG A   1     -11.117   6.645 131.326  0.00  0.00    +0.183 C 
ATOM      6  C   LIG A   1      -9.278   5.196 130.428  0.00  0.00    +0.038 C 
ATOM      7  C   LIG A   1     -10.011   5.643 131.473  0.00  0.00    +0.133 C 
ATOM      8  O   LIG A   1      -9.763   5.282 132.796  0.00  0.00    -0.487 OA
ATOM      9  C   LIG A   1      -8.447   4.752 133.003  0.00  0.00    +0.111 C 
ATOM     10  C   LIG A   1      -7.434   5.917 133.023  0.00  0.00    +0.056 C 
ATOM     11  C   LIG A   1      -8.188   3.627 131.993  0.00  0.00    +0.044 C 
ATOM     12  C   LIG A   1      -8.163   4.187 130.577  0.00  0.00    +0.050 C 
ATOM     13  C   LIG A   1      -6.948   2.915 132.550  0.00  0.00    +0.021 C 
ATOM     14  C   LIG A   1      -7.163   3.008 134.091  0.00  0.00    +0.012 C 
ATOM     15  C   LIG A   1      -8.346   3.967 134.311  0.00  0.00    +0.049 C 
ENDROOT
BRANCH  13  16
ATOM     16  C   LIG A   1      -6.710   1.536 131.962  0.00  0.00    -0.076 C 
ATOM     17  C   LIG A   1      -7.877   0.584 132.041  0.00  0.00    +0.038 C 
ATOM     18  C   LIG A   1      -5.565   1.143 131.378  0.00  0.00    +0.007 C 
ENDBRANCH  13  16
BRANCH   3  19
ATOM     19  O   LIG A   1     -10.138   7.715 127.845  0.00  0.00    -0.372 OA
ATOM     20  C   LIG A   1     -11.026   7.870 126.749  0.00  0.00    +0.195 C 
ENDBRANCH   3  19
BRANCH   5  21
ATOM     21  O   LIG A   1     -12.339   5.948 131.117  0.00  0.00    -0.384 OA
ATOM     22  H   LIG A   1     -12.099   5.088 130.725  0.00  0.00    +0.210 HD
ENDBRANCH   5  21
TORSDOF 3
ENDMDL
MODEL 7
REMARK VINA RESULT:      -6.3      3.630      5.606
REMARK  Name = NuBBE_855
REMARK  6 active torsions:
REMARK  status: ('A' for Active; 'I' for Inactive)
REMARK    1  A    between atoms: C_3  and  O_4
REMARK    2  A    between atoms: O_4  and  C_5
REMARK    3  A    between atoms: C_7  and  O_8
REMARK    4  A    between atoms: C_12  and  C_13
REMARK    5  A    between atoms: C_17  and  C_19
REMARK    6  A    between atoms: C_19  and  C_20
REMARK                            x       y       z     vdW  Elec       q    Type
REMARK                         _______ _______ _______ _____ _____    ______ ____
ROOT
ATOM      1  O   LIG A   1      -7.649   0.020 128.858  0.00  0.00    -0.289 OA
ATOM      2  C   LIG A   1      -7.807  -1.191 128.671  0.00  0.00    +0.191 C 
ATOM      3  C   LIG A   1      -7.737  -2.222 129.816  0.00  0.00    +0.191 C 
ATOM      4  C   LIG A   1      -7.485  -3.634 129.294  0.00  0.00    +0.079 C 
ATOM      5  C   LIG A   1      -8.435  -3.989 128.165  0.00  0.00    +0.183 C 
ATOM      6  C   LIG A   1      -8.090  -1.668 127.281  0.00  0.00    +0.038 C 
ATOM      7  C   LIG A   1      -8.380  -2.970 127.065  0.00  0.00    +0.133 C 
ATOM      8  O   LIG A   1      -8.577  -3.515 125.797  0.00  0.00    -0.487 OA
ATOM      9  C   LIG A   1      -8.046  -2.701 124.743  0.00  0.00    +0.111 C 
ATOM     10  C   LIG A   1      -6.513  -2.880 124.693  0.00  0.00    +0.056 C 
ATOM     11  C   LIG A   1      -8.572  -1.269 124.892  0.00  0.00    +0.044 C 
ATOM     12  C   LIG A   1      -8.035  -0.642 126.172  0.00  0.00    +0.050 C 
ATOM     13  C   LIG A   1      -8.254  -0.620 123.538  0.00  0.00    +0.021 C 
ATOM     14  C   LIG A   1      -8.473  -1.793 122.537  0.00  0.00    +0.012 C 
ATOM     15  C   LIG A   1      -8.645  -3.066 123.383  0.00  0.00    +0.049 C 
ENDROOT
BRANCH  13  16
ATOM     16  C   LIG A   1      -9.010   0.670 123.277  0.00  0.00    -0.076 C 
ATOM     17  C   LIG A   1     -10.315   0.521 122.535  0.00  0.00    +0.038 C 
ATOM     18  C   LIG A   1      -8.604   1.887 123.677  0.00  0.00    +0.007 C 
ENDBRANCH  13  16
BRANCH   3  19
ATOM     19  O   LIG A   1      -6.687  -1.824 130.711  0.00  0.00    -0.372 OA
ATOM     20  C   LIG A   1      -6.434  -2.743 131.762  0.00  0.00    +0.195 C 
ENDBRANCH   3  19
BRANCH   5  21
ATOM     21  O   LIG A   1      -9.767  -4.054 128.659  0.00  0.00    -0.384 OA
ATOM     22  H   LIG A   1      -9.815  -3.425 129.402  0.00  0.00    +0.210 HD
ENDBRANCH   5  21
TORSDOF 3
ENDMDL
MODEL 8
REMARK VINA RESULT:      -6.3      1.506      2.111
REMARK  Name = NuBBE_855
REMARK  6 active torsions:
REMARK  status: ('A' for Active; 'I' for Inactive)
REMARK    1  A    between atoms: C_3  and  O_4
REMARK    2  A    between atoms: O_4  and  C_5
REMARK    3  A    between atoms: C_7  and  O_8
REMARK    4  A    between atoms: C_12  and  C_13
REMARK    5  A    between atoms: C_17  and  C_19
REMARK    6  A    between atoms: C_19  and  C_20
REMARK                            x       y       z     vdW  Elec       q    Type
REMARK                         _______ _______ _______ _____ _____    ______ ____
ROOT
ATOM      1  O   LIG A   1      -4.312   1.644 126.485  0.00  0.00    -0.289 OA
ATOM      2  C   LIG A   1      -4.970   2.523 125.918  0.00  0.00    +0.191 C 
ATOM      3  C   LIG A   1      -4.655   4.024 126.075  0.00  0.00    +0.191 C 
ATOM      4  C   LIG A   1      -5.848   4.897 125.693  0.00  0.00    +0.079 C 
ATOM      5  C   LIG A   1      -6.424   4.498 124.348  0.00  0.00    +0.183 C 
ATOM      6  C   LIG A   1      -6.106   2.107 125.035  0.00  0.00    +0.038 C 
ATOM      7  C   LIG A   1      -6.768   3.039 124.313  0.00  0.00    +0.133 C 
ATOM      8  O   LIG A   1      -7.886   2.753 123.531  0.00  0.00    -0.487 OA
ATOM      9  C   LIG A   1      -8.515   1.511 123.873  0.00  0.00    +0.111 C 
ATOM     10  C   LIG A   1      -9.342   1.706 125.162  0.00  0.00    +0.056 C 
ATOM     11  C   LIG A   1      -7.464   0.395 123.886  0.00  0.00    +0.044 C 
ATOM     12  C   LIG A   1      -6.454   0.638 125.000  0.00  0.00    +0.050 C 
ATOM     13  C   LIG A   1      -8.299  -0.893 123.886  0.00  0.00    +0.021 C 
ATOM     14  C   LIG A   1      -9.515  -0.512 122.989  0.00  0.00    +0.012 C 
ATOM     15  C   LIG A   1      -9.429   1.006 122.755  0.00  0.00    +0.049 C 
ENDROOT
BRANCH  13  16
ATOM     16  C   LIG A   1      -7.516  -2.138 123.508  0.00  0.00    -0.076 C 
ATOM     17  C   LIG A   1      -6.425  -1.935 122.486  0.00  0.00    +0.038 C 
ATOM     18  C   LIG A   1      -7.723  -3.358 124.032  0.00  0.00    +0.007 C 
ENDBRANCH  13  16
BRANCH   3  19
ATOM     19  O   LIG A   1      -4.278   4.260 127.440  0.00  0.00    -0.372 OA
ATOM     20  C   LIG A   1      -5.364   4.549 128.306  0.00  0.00    +0.195 C 
ENDBRANCH   3  19
BRANCH   5  21
ATOM     21  O   LIG A   1      -5.478   4.767 123.320  0.00  0.00    -0.384 OA
ATOM     22  H   LIG A   1      -5.388   3.943 122.809  0.00  0.00    +0.210 HD
ENDBRANCH   5  21
TORSDOF 3
ENDMDL
MODEL 9
REMARK VINA RESULT:      -6.1      5.886      7.926
REMARK  Name = NuBBE_855
REMARK  6 active torsions:
REMARK  status: ('A' for Active; 'I' for Inactive)
REMARK    1  A    between atoms: C_3  and  O_4
REMARK    2  A    between atoms: O_4  and  C_5
REMARK    3  A    between atoms: C_7  and  O_8
REMARK    4  A    between atoms: C_12  and  C_13
REMARK    5  A    between atoms: C_17  and  C_19
REMARK    6  A    between atoms: C_19  and  C_20
REMARK                            x       y       z     vdW  Elec       q    Type
REMARK                         _______ _______ _______ _____ _____    ______ ____
ROOT
ATOM      1  O   LIG A   1     -11.673   3.743 130.018  0.00  0.00    -0.289 OA
ATOM      2  C   LIG A   1     -10.848   4.514 130.519  0.00  0.00    +0.191 C 
ATOM      3  C   LIG A   1     -11.171   5.991 130.823  0.00  0.00    +0.191 C 
ATOM      4  C   LIG A   1      -9.904   6.829 130.976  0.00  0.00    +0.079 C 
ATOM      5  C   LIG A   1      -8.915   6.178 131.924  0.00  0.00    +0.183 C 
ATOM      6  C   LIG A   1      -9.488   3.984 130.854  0.00  0.00    +0.038 C 
ATOM      7  C   LIG A   1      -8.605   4.771 131.507  0.00  0.00    +0.133 C 
ATOM      8  O   LIG A   1      -7.294   4.388 131.786  0.00  0.00    -0.487 OA
ATOM      9  C   LIG A   1      -6.839   3.294 130.979  0.00  0.00    +0.111 C 
ATOM     10  C   LIG A   1      -6.492   3.819 129.569  0.00  0.00    +0.056 C 
ATOM     11  C   LIG A   1      -7.852   2.146 131.061  0.00  0.00    +0.044 C 
ATOM     12  C   LIG A   1      -9.175   2.567 130.434  0.00  0.00    +0.050 C 
ATOM     13  C   LIG A   1      -7.089   0.944 130.489  0.00  0.00    +0.021 C 
ATOM     14  C   LIG A   1      -5.635   1.190 130.993  0.00  0.00    +0.012 C 
ATOM     15  C   LIG A   1      -5.611   2.611 131.583  0.00  0.00    +0.049 C 
ENDROOT
BRANCH  13  16
ATOM     16  C   LIG A   1      -7.720  -0.399 130.811  0.00  0.00    -0.076 C 
ATOM     17  C   LIG A   1      -8.256  -0.548 132.213  0.00  0.00    +0.038 C 
ATOM     18  C   LIG A   1      -7.840  -1.414 129.938  0.00  0.00    +0.007 C 
ENDBRANCH  13  16
BRANCH   3  19
ATOM     19  O   LIG A   1     -11.983   6.499 129.754  0.00  0.00    -0.372 OA
ATOM     20  C   LIG A   1     -12.346   7.864 129.893  0.00  0.00    +0.195 C 
ENDBRANCH   3  19
BRANCH   5  21
ATOM     21  O   LIG A   1      -9.453   6.155 133.240  0.00  0.00    -0.384 OA
ATOM     22  H   LIG A   1     -10.259   6.703 133.216  0.00  0.00    +0.210 HD
ENDBRANCH   5  21
TORSDOF 3
ENDMDL
