MODEL 1
REMARK VINA RESULT:      -8.0      0.000      0.000
REMARK  Name = NuBBE_860
REMARK  10 active torsions:
REMARK  status: ('A' for Active; 'I' for Inactive)
REMARK    1  A    between atoms: C_1  and  C_2
REMARK    2  A    between atoms: C_2  and  C_3
REMARK    3  A    between atoms: C_11  and  O_12
REMARK    4  A    between atoms: C_13  and  C_16
REMARK    5  A    between atoms: C_20  and  C_22
REMARK    6  A    between atoms: C_30  and  C_31
REMARK    7  A    between atoms: C_34  and  C_36
REMARK    8  A    between atoms: C_36  and  C_37
REMARK    9  A    between atoms: C_37  and  O_38
REMARK   10  A    between atoms: O_38  and  C_39
REMARK                            x       y       z     vdW  Elec       q    Type
REMARK                         _______ _______ _______ _____ _____    ______ ____
ROOT
ATOM      1  C   LIG A   1      -4.926   4.872 126.914  0.00  0.00    +0.014 C 
ATOM      2  C   LIG A   1      -6.082   3.983 126.394  0.00  0.00    -0.004 C 
ATOM      3  C   LIG A   1      -6.907   4.846 125.407  0.00  0.00    +0.014 C 
ATOM      4  C   LIG A   1      -5.431   2.825 125.599  0.00  0.00    +0.135 C 
ATOM      5  C   LIG A   1      -4.674   1.802 126.443  0.00  0.00    +0.088 C 
ATOM      6  C   LIG A   1      -5.061   0.495 125.789  0.00  0.00    +0.052 C 
ATOM      7  C   LIG A   1      -6.540   0.767 125.466  0.00  0.00    +0.104 C 
ATOM      8  O   LIG A   1      -6.472   2.104 124.914  0.00  0.00    -0.366 OA
ATOM      9  C   LIG A   1      -7.289  -0.133 124.377  0.00  0.00    +0.114 C 
ATOM     10  C   LIG A   1      -8.424  -1.069 124.938  0.00  0.00    +0.041 C 
ATOM     11  C   LIG A   1      -9.377  -0.279 125.899  0.00  0.00    +0.014 C 
ATOM     12  C   LIG A   1      -8.814   1.008 126.505  0.00  0.00    +0.008 C 
ATOM     13  C   LIG A   1      -9.378  -1.550 123.787  0.00  0.00    +0.018 C 
ATOM     14  C   LIG A   1      -6.321  -0.967 123.535  0.00  0.00    +0.159 C 
ATOM     15  C   LIG A   1      -5.676  -2.025 124.383  0.00  0.00    +0.311 C 
ATOM     16  O   LIG A   1      -6.324  -2.306 125.540  0.00  0.00    -0.456 OA
ATOM     17  C   LIG A   1      -7.761  -2.389 125.485  0.00  0.00    +0.218 C 
ATOM     18  O   LIG A   1      -4.588  -2.516 124.109  0.00  0.00    -0.251 OA
ATOM     19  C   LIG A   1      -7.327   0.863 126.801  0.00  0.00    +0.037 C 
ATOM     20  C   LIG A   1      -6.771   1.898 127.871  0.00  0.00    +0.036 C 
ATOM     21  C   LIG A   1      -7.259   1.400 129.247  0.00  0.00    +0.019 C 
ATOM     22  C   LIG A   1      -5.253   1.770 127.832  0.00  0.00    +0.145 C 
ATOM     23  O   LIG A   1      -4.545   1.652 128.826  0.00  0.00    -0.296 OA
ATOM     24  C   LIG A   1      -7.067   3.418 127.539  0.00  0.00    +0.021 C 
ENDROOT
BRANCH  17  25
ATOM     25  C   LIG A   1      -8.278  -2.969 126.775  0.00  0.00    +0.031 A 
ATOM     26  C   LIG A   1      -9.325  -3.865 126.909  0.00  0.00    +0.202 A 
ATOM     27  O   LIG A   1      -9.491  -4.241 128.203  0.00  0.00    -0.471 OA
ATOM     28  C   LIG A   1      -8.538  -3.604 128.923  0.00  0.00    +0.195 A 
ATOM     29  C   LIG A   1      -7.763  -2.826 128.098  0.00  0.00    +0.048 A 
ENDBRANCH  17  25
BRANCH   9  30
ATOM     30  O   LIG A   1      -7.935   0.778 123.451  0.00  0.00    -0.385 OA
ATOM     31  H   LIG A   1      -7.641   0.508 122.553  0.00  0.00    +0.210 HD
ENDBRANCH   9  30
BRANCH  24  32
ATOM     32  C   LIG A   1      -7.088   4.366 128.769  0.00  0.00    +0.125 C 
BRANCH  32  33
ATOM     33  C   LIG A   1      -8.433   4.973 129.148  0.00  0.00    +0.307 C 
ATOM     34  O   LIG A   1      -8.616   6.133 129.451  0.00  0.00    -0.251 OA
BRANCH  33  35
ATOM     35  O   LIG A   1      -9.375   3.984 129.149  0.00  0.00    -0.468 OA
ATOM     36  C   LIG A   1      -9.988   3.681 130.402  0.00  0.00    +0.280 C 
ENDBRANCH  33  35
ENDBRANCH  32  33
ENDBRANCH  24  32
TORSDOF 5
ENDMDL
MODEL 2
REMARK VINA RESULT:      -7.9      2.814      6.149
REMARK  Name = NuBBE_860
REMARK  10 active torsions:
REMARK  status: ('A' for Active; 'I' for Inactive)
REMARK    1  A    between atoms: C_1  and  C_2
REMARK    2  A    between atoms: C_2  and  C_3
REMARK    3  A    between atoms: C_11  and  O_12
REMARK    4  A    between atoms: C_13  and  C_16
REMARK    5  A    between atoms: C_20  and  C_22
REMARK    6  A    between atoms: C_30  and  C_31
REMARK    7  A    between atoms: C_34  and  C_36
REMARK    8  A    between atoms: C_36  and  C_37
REMARK    9  A    between atoms: C_37  and  O_38
REMARK   10  A    between atoms: O_38  and  C_39
REMARK                            x       y       z     vdW  Elec       q    Type
REMARK                         _______ _______ _______ _____ _____    ______ ____
ROOT
ATOM      1  C   LIG A   1      -7.693  -2.281 124.113  0.00  0.00    +0.014 C 
ATOM      2  C   LIG A   1      -8.050  -2.004 125.594  0.00  0.00    -0.004 C 
ATOM      3  C   LIG A   1      -9.459  -2.600 125.838  0.00  0.00    +0.014 C 
ATOM      4  C   LIG A   1      -7.033  -2.795 126.453  0.00  0.00    +0.135 C 
ATOM      5  C   LIG A   1      -5.603  -2.261 126.424  0.00  0.00    +0.088 C 
ATOM      6  C   LIG A   1      -5.178  -2.399 127.868  0.00  0.00    +0.052 C 
ATOM      7  C   LIG A   1      -6.479  -2.002 128.585  0.00  0.00    +0.104 C 
ATOM      8  O   LIG A   1      -7.464  -2.745 127.825  0.00  0.00    -0.366 OA
ATOM      9  C   LIG A   1      -6.692  -2.408 130.117  0.00  0.00    +0.114 C 
ATOM     10  C   LIG A   1      -6.721  -1.210 131.137  0.00  0.00    +0.041 C 
ATOM     11  C   LIG A   1      -7.661  -0.063 130.628  0.00  0.00    +0.014 C 
ATOM     12  C   LIG A   1      -7.962  -0.049 129.129  0.00  0.00    +0.008 C 
ATOM     13  C   LIG A   1      -7.370  -1.643 132.499  0.00  0.00    +0.018 C 
ATOM     14  C   LIG A   1      -5.681  -3.451 130.597  0.00  0.00    +0.159 C 
ATOM     15  C   LIG A   1      -4.305  -2.853 130.649  0.00  0.00    +0.311 C 
ATOM     16  O   LIG A   1      -4.270  -1.498 130.673  0.00  0.00    -0.456 OA
ATOM     17  C   LIG A   1      -5.237  -0.830 131.506  0.00  0.00    +0.218 C 
ATOM     18  O   LIG A   1      -3.288  -3.530 130.563  0.00  0.00    -0.251 OA
ATOM     19  C   LIG A   1      -6.745  -0.494 128.327  0.00  0.00    +0.037 C 
ATOM     20  C   LIG A   1      -6.762  -0.035 126.806  0.00  0.00    +0.036 C 
ATOM     21  C   LIG A   1      -6.415   1.467 126.806  0.00  0.00    +0.019 C 
ATOM     22  C   LIG A   1      -5.624  -0.786 126.126  0.00  0.00    +0.145 C 
ATOM     23  O   LIG A   1      -4.789  -0.259 125.398  0.00  0.00    -0.296 OA
ATOM     24  C   LIG A   1      -8.065  -0.445 126.005  0.00  0.00    +0.021 C 
ENDROOT
BRANCH  17  25
ATOM     25  C   LIG A   1      -4.876   0.628 131.619  0.00  0.00    +0.031 A 
ATOM     26  C   LIG A   1      -4.949   1.404 132.763  0.00  0.00    +0.202 A 
ATOM     27  O   LIG A   1      -4.487   2.660 132.539  0.00  0.00    -0.471 OA
ATOM     28  C   LIG A   1      -4.091   2.708 131.246  0.00  0.00    +0.195 A 
ATOM     29  C   LIG A   1      -4.296   1.491 130.643  0.00  0.00    +0.048 A 
ENDBRANCH  17  25
BRANCH   9  30
ATOM     30  O   LIG A   1      -7.992  -3.047 130.207  0.00  0.00    -0.385 OA
ATOM     31  H   LIG A   1      -8.258  -2.991 131.151  0.00  0.00    +0.210 HD
ENDBRANCH   9  30
BRANCH  24  32
ATOM     32  C   LIG A   1      -8.388   0.448 124.775  0.00  0.00    +0.125 C 
BRANCH  32  33
ATOM     33  C   LIG A   1      -9.670   1.270 124.837  0.00  0.00    +0.307 C 
ATOM     34  O   LIG A   1     -10.791   0.828 124.698  0.00  0.00    -0.251 OA
BRANCH  33  35
ATOM     35  O   LIG A   1      -9.340   2.583 125.013  0.00  0.00    -0.468 OA
ATOM     36  C   LIG A   1      -8.364   3.126 124.122  0.00  0.00    +0.280 C 
ENDBRANCH  33  35
ENDBRANCH  32  33
ENDBRANCH  24  32
TORSDOF 5
ENDMDL
MODEL 3
REMARK VINA RESULT:      -7.9      4.134      7.386
REMARK  Name = NuBBE_860
REMARK  10 active torsions:
REMARK  status: ('A' for Active; 'I' for Inactive)
REMARK    1  A    between atoms: C_1  and  C_2
REMARK    2  A    between atoms: C_2  and  C_3
REMARK    3  A    between atoms: C_11  and  O_12
REMARK    4  A    between atoms: C_13  and  C_16
REMARK    5  A    between atoms: C_20  and  C_22
REMARK    6  A    between atoms: C_30  and  C_31
REMARK    7  A    between atoms: C_34  and  C_36
REMARK    8  A    between atoms: C_36  and  C_37
REMARK    9  A    between atoms: C_37  and  O_38
REMARK   10  A    between atoms: O_38  and  C_39
REMARK                            x       y       z     vdW  Elec       q    Type
REMARK                         _______ _______ _______ _____ _____    ______ ____
ROOT
ATOM      1  C   LIG A   1      -4.816   2.919 126.557  0.00  0.00    +0.014 C 
ATOM      2  C   LIG A   1      -5.730   3.828 127.415  0.00  0.00    -0.004 C 
ATOM      3  C   LIG A   1      -6.435   4.807 126.442  0.00  0.00    +0.014 C 
ATOM      4  C   LIG A   1      -6.807   2.911 128.043  0.00  0.00    +0.135 C 
ATOM      5  C   LIG A   1      -6.299   1.958 129.124  0.00  0.00    +0.088 C 
ATOM      6  C   LIG A   1      -7.403   2.019 130.154  0.00  0.00    +0.052 C 
ATOM      7  C   LIG A   1      -7.763   3.514 130.095  0.00  0.00    +0.104 C 
ATOM      8  O   LIG A   1      -7.804   3.743 128.665  0.00  0.00    -0.366 OA
ATOM      9  C   LIG A   1      -9.168   4.012 130.671  0.00  0.00    +0.114 C 
ATOM     10  C   LIG A   1      -9.090   4.914 131.959  0.00  0.00    +0.041 C 
ATOM     11  C   LIG A   1      -8.017   6.044 131.787  0.00  0.00    +0.014 C 
ATOM     12  C   LIG A   1      -6.947   5.805 130.721  0.00  0.00    +0.008 C 
ATOM     13  C   LIG A   1     -10.428   5.705 132.176  0.00  0.00    +0.018 C 
ATOM     14  C   LIG A   1     -10.143   2.860 130.924  0.00  0.00    +0.159 C 
ATOM     15  C   LIG A   1      -9.655   2.007 132.060  0.00  0.00    +0.311 C 
ATOM     16  O   LIG A   1      -8.742   2.599 132.869  0.00  0.00    -0.456 OA
ATOM     17  C   LIG A   1      -8.972   3.978 133.221  0.00  0.00    +0.218 C 
ATOM     18  O   LIG A   1      -9.969   0.830 132.183  0.00  0.00    -0.251 OA
ATOM     19  C   LIG A   1      -6.567   4.331 130.654  0.00  0.00    +0.037 C 
ATOM     20  C   LIG A   1      -5.152   4.052 129.987  0.00  0.00    +0.036 C 
ATOM     21  C   LIG A   1      -4.095   4.443 131.039  0.00  0.00    +0.019 C 
ATOM     22  C   LIG A   1      -5.076   2.544 129.776  0.00  0.00    +0.145 C 
ATOM     23  O   LIG A   1      -4.117   1.850 130.098  0.00  0.00    -0.296 OA
ATOM     24  C   LIG A   1      -4.962   4.681 128.547  0.00  0.00    +0.021 C 
ENDROOT
BRANCH  17  25
ATOM     25  C   LIG A   1      -8.025   4.376 134.323  0.00  0.00    +0.031 A 
ATOM     26  C   LIG A   1      -6.779   3.825 134.571  0.00  0.00    +0.202 A 
ATOM     27  O   LIG A   1      -6.155   4.457 135.597  0.00  0.00    -0.471 OA
ATOM     28  C   LIG A   1      -6.985   5.440 136.016  0.00  0.00    +0.195 A 
ATOM     29  C   LIG A   1      -8.135   5.442 135.264  0.00  0.00    +0.048 A 
ENDBRANCH  17  25
BRANCH   9  30
ATOM     30  O   LIG A   1      -9.780   4.829 129.641  0.00  0.00    -0.385 OA
ATOM     31  H   LIG A   1     -10.037   5.671 130.079  0.00  0.00    +0.210 HD
ENDBRANCH   9  30
BRANCH  24  32
ATOM     32  C   LIG A   1      -3.489   4.947 128.135  0.00  0.00    +0.125 C 
BRANCH  32  33
ATOM     33  C   LIG A   1      -3.008   6.392 128.188  0.00  0.00    +0.307 C 
ATOM     34  O   LIG A   1      -1.855   6.751 128.066  0.00  0.00    -0.251 OA
BRANCH  33  35
ATOM     35  O   LIG A   1      -4.076   7.199 128.455  0.00  0.00    -0.468 OA
ATOM     36  C   LIG A   1      -3.985   8.024 129.617  0.00  0.00    +0.280 C 
ENDBRANCH  33  35
ENDBRANCH  32  33
ENDBRANCH  24  32
TORSDOF 5
ENDMDL
MODEL 4
REMARK VINA RESULT:      -7.7      2.345      4.762
REMARK  Name = NuBBE_860
REMARK  10 active torsions:
REMARK  status: ('A' for Active; 'I' for Inactive)
REMARK    1  A    between atoms: C_1  and  C_2
REMARK    2  A    between atoms: C_2  and  C_3
REMARK    3  A    between atoms: C_11  and  O_12
REMARK    4  A    between atoms: C_13  and  C_16
REMARK    5  A    between atoms: C_20  and  C_22
REMARK    6  A    between atoms: C_30  and  C_31
REMARK    7  A    between atoms: C_34  and  C_36
REMARK    8  A    between atoms: C_36  and  C_37
REMARK    9  A    between atoms: C_37  and  O_38
REMARK   10  A    between atoms: O_38  and  C_39
REMARK                            x       y       z     vdW  Elec       q    Type
REMARK                         _______ _______ _______ _____ _____    ______ ____
ROOT
ATOM      1  C   LIG A   1      -6.092   5.772 132.676  0.00  0.00    +0.014 C 
ATOM      2  C   LIG A   1      -6.408   5.753 131.160  0.00  0.00    -0.004 C 
ATOM      3  C   LIG A   1      -6.725   7.212 130.746  0.00  0.00    +0.014 C 
ATOM      4  C   LIG A   1      -5.109   5.317 130.439  0.00  0.00    +0.135 C 
ATOM      5  C   LIG A   1      -4.713   3.855 130.641  0.00  0.00    +0.088 C 
ATOM      6  C   LIG A   1      -4.242   3.455 129.263  0.00  0.00    +0.052 C 
ATOM      7  C   LIG A   1      -5.263   4.200 128.387  0.00  0.00    +0.104 C 
ATOM      8  O   LIG A   1      -5.293   5.501 129.024  0.00  0.00    -0.366 OA
ATOM      9  C   LIG A   1      -4.938   4.461 126.843  0.00  0.00    +0.114 C 
ATOM     10  C   LIG A   1      -5.846   3.683 125.819  0.00  0.00    +0.041 C 
ATOM     11  C   LIG A   1      -7.361   3.816 126.200  0.00  0.00    +0.014 C 
ATOM     12  C   LIG A   1      -7.664   4.195 127.650  0.00  0.00    +0.008 C 
ATOM     13  C   LIG A   1      -5.766   4.328 124.390  0.00  0.00    +0.018 C 
ATOM     14  C   LIG A   1      -3.468   4.213 126.500  0.00  0.00    +0.159 C 
ATOM     15  C   LIG A   1      -3.149   2.750 126.614  0.00  0.00    +0.311 C 
ATOM     16  O   LIG A   1      -4.225   1.926 126.586  0.00  0.00    -0.456 OA
ATOM     17  C   LIG A   1      -5.263   2.231 125.634  0.00  0.00    +0.218 C 
ATOM     18  O   LIG A   1      -2.017   2.338 126.831  0.00  0.00    -0.251 OA
ATOM     19  C   LIG A   1      -6.659   3.555 128.600  0.00  0.00    +0.037 C 
ATOM     20  C   LIG A   1      -7.160   3.446 130.103  0.00  0.00    +0.036 C 
ATOM     21  C   LIG A   1      -8.175   2.286 130.137  0.00  0.00    +0.019 C 
ATOM     22  C   LIG A   1      -5.944   3.036 130.925  0.00  0.00    +0.145 C 
ATOM     23  O   LIG A   1      -5.942   2.127 131.748  0.00  0.00    -0.296 OA
ATOM     24  C   LIG A   1      -7.648   4.812 130.740  0.00  0.00    +0.021 C 
ENDROOT
BRANCH  17  25
ATOM     25  C   LIG A   1      -6.226   1.076 125.558  0.00  0.00    +0.031 A 
ATOM     26  C   LIG A   1      -6.805   0.567 124.408  0.00  0.00    +0.202 A 
ATOM     27  O   LIG A   1      -7.572  -0.519 124.680  0.00  0.00    -0.471 OA
ATOM     28  C   LIG A   1      -7.485  -0.739 126.012  0.00  0.00    +0.195 A 
ATOM     29  C   LIG A   1      -6.665   0.199 126.593  0.00  0.00    +0.048 A 
ENDBRANCH  17  25
BRANCH   9  30
ATOM     30  O   LIG A   1      -5.169   5.872 126.597  0.00  0.00    -0.385 OA
ATOM     31  H   LIG A   1      -4.526   6.136 125.902  0.00  0.00    +0.210 HD
ENDBRANCH   9  30
BRANCH  24  32
ATOM     32  C   LIG A   1      -8.654   4.667 131.914  0.00  0.00    +0.125 C 
BRANCH  32  33
ATOM     33  C   LIG A   1      -9.907   5.533 131.859  0.00  0.00    +0.307 C 
ATOM     34  O   LIG A   1     -10.148   6.463 132.599  0.00  0.00    -0.251 OA
BRANCH  33  35
ATOM     35  O   LIG A   1     -10.732   5.047 130.885  0.00  0.00    -0.468 OA
ATOM     36  C   LIG A   1     -11.671   5.963 130.321  0.00  0.00    +0.280 C 
ENDBRANCH  33  35
ENDBRANCH  32  33
ENDBRANCH  24  32
TORSDOF 5
ENDMDL
MODEL 5
REMARK VINA RESULT:      -7.6      1.983      4.483
REMARK  Name = NuBBE_860
REMARK  10 active torsions:
REMARK  status: ('A' for Active; 'I' for Inactive)
REMARK    1  A    between atoms: C_1  and  C_2
REMARK    2  A    between atoms: C_2  and  C_3
REMARK    3  A    between atoms: C_11  and  O_12
REMARK    4  A    between atoms: C_13  and  C_16
REMARK    5  A    between atoms: C_20  and  C_22
REMARK    6  A    between atoms: C_30  and  C_31
REMARK    7  A    between atoms: C_34  and  C_36
REMARK    8  A    between atoms: C_36  and  C_37
REMARK    9  A    between atoms: C_37  and  O_38
REMARK   10  A    between atoms: O_38  and  C_39
REMARK                            x       y       z     vdW  Elec       q    Type
REMARK                         _______ _______ _______ _____ _____    ______ ____
ROOT
ATOM      1  C   LIG A   1      -6.037   3.350 131.234  0.00  0.00    +0.014 C 
ATOM      2  C   LIG A   1      -5.511   2.418 130.114  0.00  0.00    -0.004 C 
ATOM      3  C   LIG A   1      -3.990   2.241 130.350  0.00  0.00    +0.014 C 
ATOM      4  C   LIG A   1      -6.197   1.045 130.317  0.00  0.00    +0.135 C 
ATOM      5  C   LIG A   1      -7.692   1.013 130.004  0.00  0.00    +0.088 C 
ATOM      6  C   LIG A   1      -7.844  -0.313 129.295  0.00  0.00    +0.052 C 
ATOM      7  C   LIG A   1      -6.552  -0.339 128.462  0.00  0.00    +0.104 C 
ATOM      8  O   LIG A   1      -5.572   0.092 129.439  0.00  0.00    -0.366 OA
ATOM      9  C   LIG A   1      -6.019  -1.726 127.873  0.00  0.00    +0.114 C 
ATOM     10  C   LIG A   1      -6.070  -1.860 126.305  0.00  0.00    +0.041 C 
ATOM     11  C   LIG A   1      -5.473  -0.585 125.615  0.00  0.00    +0.014 C 
ATOM     12  C   LIG A   1      -5.425   0.686 126.465  0.00  0.00    +0.008 C 
ATOM     13  C   LIG A   1      -5.138  -3.020 125.806  0.00  0.00    +0.018 C 
ATOM     14  C   LIG A   1      -6.711  -2.938 128.501  0.00  0.00    +0.159 C 
ATOM     15  C   LIG A   1      -8.152  -2.987 128.086  0.00  0.00    +0.311 C 
ATOM     16  O   LIG A   1      -8.455  -2.258 126.983  0.00  0.00    -0.456 OA
ATOM     17  C   LIG A   1      -7.522  -2.307 125.886  0.00  0.00    +0.218 C 
ATOM     18  O   LIG A   1      -9.013  -3.546 128.753  0.00  0.00    -0.251 OA
ATOM     19  C   LIG A   1      -6.639   0.772 127.381  0.00  0.00    +0.037 C 
ATOM     20  C   LIG A   1      -6.958   2.238 127.905  0.00  0.00    +0.036 C 
ATOM     21  C   LIG A   1      -7.596   2.990 126.720  0.00  0.00    +0.019 C 
ATOM     22  C   LIG A   1      -8.016   2.077 128.990  0.00  0.00    +0.145 C 
ATOM     23  O   LIG A   1      -9.045   2.742 129.054  0.00  0.00    -0.296 OA
ATOM     24  C   LIG A   1      -5.744   2.967 128.615  0.00  0.00    +0.021 C 
ENDROOT
BRANCH  17  25
ATOM     25  C   LIG A   1      -8.145  -1.672 124.671  0.00  0.00    +0.031 A 
ATOM     26  C   LIG A   1      -8.239  -2.235 123.410  0.00  0.00    +0.202 A 
ATOM     27  O   LIG A   1      -8.919  -1.427 122.557  0.00  0.00    -0.471 OA
ATOM     28  C   LIG A   1      -9.291  -0.334 123.264  0.00  0.00    +0.195 A 
ATOM     29  C   LIG A   1      -8.855  -0.440 124.562  0.00  0.00    +0.048 A 
ENDBRANCH  17  25
BRANCH   9  30
ATOM     30  O   LIG A   1      -4.621  -1.833 128.242  0.00  0.00    -0.385 OA
ATOM     31  H   LIG A   1      -4.607  -2.207 129.151  0.00  0.00    +0.210 HD
ENDBRANCH   9  30
BRANCH  24  32
ATOM     32  C   LIG A   1      -5.809   4.518 128.598  0.00  0.00    +0.125 C 
BRANCH  32  33
ATOM     33  C   LIG A   1      -4.605   5.251 128.018  0.00  0.00    +0.307 C 
ATOM     34  O   LIG A   1      -4.364   6.430 128.171  0.00  0.00    -0.251 OA
BRANCH  33  35
ATOM     35  O   LIG A   1      -3.887   4.377 127.253  0.00  0.00    -0.468 OA
ATOM     36  C   LIG A   1      -2.478   4.329 127.482  0.00  0.00    +0.280 C 
ENDBRANCH  33  35
ENDBRANCH  32  33
ENDBRANCH  24  32
TORSDOF 5
ENDMDL
MODEL 6
REMARK VINA RESULT:      -7.5      2.225      3.346
REMARK  Name = NuBBE_860
REMARK  10 active torsions:
REMARK  status: ('A' for Active; 'I' for Inactive)
REMARK    1  A    between atoms: C_1  and  C_2
REMARK    2  A    between atoms: C_2  and  C_3
REMARK    3  A    between atoms: C_11  and  O_12
REMARK    4  A    between atoms: C_13  and  C_16
REMARK    5  A    between atoms: C_20  and  C_22
REMARK    6  A    between atoms: C_30  and  C_31
REMARK    7  A    between atoms: C_34  and  C_36
REMARK    8  A    between atoms: C_36  and  C_37
REMARK    9  A    between atoms: C_37  and  O_38
REMARK   10  A    between atoms: O_38  and  C_39
REMARK                            x       y       z     vdW  Elec       q    Type
REMARK                         _______ _______ _______ _____ _____    ______ ____
ROOT
ATOM      1  C   LIG A   1      -5.280   4.789 129.443  0.00  0.00    +0.014 C 
ATOM      2  C   LIG A   1      -6.478   4.106 128.739  0.00  0.00    -0.004 C 
ATOM      3  C   LIG A   1      -7.755   4.865 129.182  0.00  0.00    +0.014 C 
ATOM      4  C   LIG A   1      -6.286   4.327 127.218  0.00  0.00    +0.135 C 
ATOM      5  C   LIG A   1      -5.134   3.546 126.589  0.00  0.00    +0.088 C 
ATOM      6  C   LIG A   1      -5.731   3.092 125.277  0.00  0.00    +0.052 C 
ATOM      7  C   LIG A   1      -7.165   2.758 125.719  0.00  0.00    +0.104 C 
ATOM      8  O   LIG A   1      -7.486   3.904 126.545  0.00  0.00    -0.366 OA
ATOM      9  C   LIG A   1      -8.325   2.654 124.623  0.00  0.00    +0.114 C 
ATOM     10  C   LIG A   1      -8.924   1.214 124.406  0.00  0.00    +0.041 C 
ATOM     11  C   LIG A   1      -9.258   0.533 125.778  0.00  0.00    +0.014 C 
ATOM     12  C   LIG A   1      -8.538   1.094 127.006  0.00  0.00    +0.008 C 
ATOM     13  C   LIG A   1     -10.314   1.284 123.681  0.00  0.00    +0.018 C 
ATOM     14  C   LIG A   1      -7.912   3.234 123.269  0.00  0.00    +0.159 C 
ATOM     15  C   LIG A   1      -6.849   2.379 122.641  0.00  0.00    +0.311 C 
ATOM     16  O   LIG A   1      -6.757   1.122 123.140  0.00  0.00    -0.456 OA
ATOM     17  C   LIG A   1      -7.992   0.429 123.407  0.00  0.00    +0.218 C 
ATOM     18  O   LIG A   1      -6.051   2.816 121.822  0.00  0.00    -0.251 OA
ATOM     19  C   LIG A   1      -7.118   1.519 126.654  0.00  0.00    +0.037 C 
ATOM     20  C   LIG A   1      -6.139   1.619 127.901  0.00  0.00    +0.036 C 
ATOM     21  C   LIG A   1      -5.782   0.169 128.286  0.00  0.00    +0.019 C 
ATOM     22  C   LIG A   1      -4.874   2.300 127.392  0.00  0.00    +0.145 C 
ATOM     23  O   LIG A   1      -3.738   1.890 127.603  0.00  0.00    -0.296 OA
ATOM     24  C   LIG A   1      -6.658   2.541 129.080  0.00  0.00    +0.021 C 
ENDROOT
BRANCH  17  25
ATOM     25  C   LIG A   1      -7.700  -1.022 123.689  0.00  0.00    +0.031 A 
ATOM     26  C   LIG A   1      -8.484  -2.101 123.322  0.00  0.00    +0.202 A 
ATOM     27  O   LIG A   1      -7.901  -3.277 123.669  0.00  0.00    -0.471 OA
ATOM     28  C   LIG A   1      -6.719  -2.972 124.252  0.00  0.00    +0.195 A 
ATOM     29  C   LIG A   1      -6.542  -1.610 124.278  0.00  0.00    +0.048 A 
ENDBRANCH  17  25
BRANCH   9  30
ATOM     30  O   LIG A   1      -9.421   3.481 125.090  0.00  0.00    -0.385 OA
ATOM     31  H   LIG A   1      -9.307   3.562 126.063  0.00  0.00    +0.210 HD
ENDBRANCH   9  30
BRANCH  24  32
ATOM     32  C   LIG A   1      -6.074   2.209 130.480  0.00  0.00    +0.125 C 
BRANCH  32  33
ATOM     33  C   LIG A   1      -7.074   1.984 131.608  0.00  0.00    +0.307 C 
ATOM     34  O   LIG A   1      -7.474   2.840 132.369  0.00  0.00    -0.251 OA
BRANCH  33  35
ATOM     35  O   LIG A   1      -7.390   0.657 131.655  0.00  0.00    -0.468 OA
ATOM     36  C   LIG A   1      -8.702   0.292 131.224  0.00  0.00    +0.280 C 
ENDBRANCH  33  35
ENDBRANCH  32  33
ENDBRANCH  24  32
TORSDOF 5
ENDMDL
MODEL 7
REMARK VINA RESULT:      -7.5      3.552      8.206
REMARK  Name = NuBBE_860
REMARK  10 active torsions:
REMARK  status: ('A' for Active; 'I' for Inactive)
REMARK    1  A    between atoms: C_1  and  C_2
REMARK    2  A    between atoms: C_2  and  C_3
REMARK    3  A    between atoms: C_11  and  O_12
REMARK    4  A    between atoms: C_13  and  C_16
REMARK    5  A    between atoms: C_20  and  C_22
REMARK    6  A    between atoms: C_30  and  C_31
REMARK    7  A    between atoms: C_34  and  C_36
REMARK    8  A    between atoms: C_36  and  C_37
REMARK    9  A    between atoms: C_37  and  O_38
REMARK   10  A    between atoms: O_38  and  C_39
REMARK                            x       y       z     vdW  Elec       q    Type
REMARK                         _______ _______ _______ _____ _____    ______ ____
ROOT
ATOM      1  C   LIG A   1      -4.122  -0.156 130.008  0.00  0.00    +0.014 C 
ATOM      2  C   LIG A   1      -5.011   0.623 131.008  0.00  0.00    -0.004 C 
ATOM      3  C   LIG A   1      -4.654   0.109 132.426  0.00  0.00    +0.014 C 
ATOM      4  C   LIG A   1      -4.592   2.111 130.913  0.00  0.00    +0.135 C 
ATOM      5  C   LIG A   1      -4.982   2.814 129.614  0.00  0.00    +0.088 C 
ATOM      6  C   LIG A   1      -5.434   4.170 130.105  0.00  0.00    +0.052 C 
ATOM      7  C   LIG A   1      -6.168   3.774 131.397  0.00  0.00    +0.104 C 
ATOM      8  O   LIG A   1      -5.234   2.832 131.980  0.00  0.00    -0.366 OA
ATOM      9  C   LIG A   1      -6.450   4.880 132.517  0.00  0.00    +0.114 C 
ATOM     10  C   LIG A   1      -7.964   5.252 132.734  0.00  0.00    +0.041 C 
ATOM     11  C   LIG A   1      -8.846   3.963 132.853  0.00  0.00    +0.014 C 
ATOM     12  C   LIG A   1      -8.252   2.679 132.272  0.00  0.00    +0.008 C 
ATOM     13  C   LIG A   1      -8.176   5.973 134.112  0.00  0.00    +0.018 C 
ATOM     14  C   LIG A   1      -5.645   6.162 132.294  0.00  0.00    +0.159 C 
ATOM     15  C   LIG A   1      -6.129   6.872 131.064  0.00  0.00    +0.311 C 
ATOM     16  O   LIG A   1      -7.367   6.510 130.644  0.00  0.00    -0.456 OA
ATOM     17  C   LIG A   1      -8.376   6.325 131.656  0.00  0.00    +0.218 C 
ATOM     18  O   LIG A   1      -5.420   7.636 130.421  0.00  0.00    -0.251 OA
ATOM     19  C   LIG A   1      -7.443   2.976 131.015  0.00  0.00    +0.037 C 
ATOM     20  C   LIG A   1      -7.228   1.720 130.066  0.00  0.00    +0.036 C 
ATOM     21  C   LIG A   1      -8.571   1.490 129.343  0.00  0.00    +0.019 C 
ATOM     22  C   LIG A   1      -6.198   2.147 129.028  0.00  0.00    +0.145 C 
ATOM     23  O   LIG A   1      -6.323   1.975 127.820  0.00  0.00    -0.296 OA
ATOM     24  C   LIG A   1      -6.598   0.452 130.777  0.00  0.00    +0.021 C 
ENDROOT
BRANCH  17  25
ATOM     25  C   LIG A   1      -9.725   6.198 130.997  0.00  0.00    +0.031 A 
ATOM     26  C   LIG A   1      -9.984   5.623 129.765  0.00  0.00    +0.202 A 
ATOM     27  O   LIG A   1     -11.314   5.609 129.496  0.00  0.00    -0.471 OA
ATOM     28  C   LIG A   1     -11.937   6.161 130.563  0.00  0.00    +0.195 A 
ATOM     29  C   LIG A   1     -11.014   6.526 131.512  0.00  0.00    +0.048 A 
ENDBRANCH  17  25
BRANCH   9  30
ATOM     30  O   LIG A   1      -5.983   4.333 133.776  0.00  0.00    -0.385 OA
ATOM     31  H   LIG A   1      -6.765   3.909 134.196  0.00  0.00    +0.210 HD
ENDBRANCH   9  30
BRANCH  24  32
ATOM     32  C   LIG A   1      -6.914  -0.907 130.096  0.00  0.00    +0.125 C 
BRANCH  32  33
ATOM     33  C   LIG A   1      -7.426  -2.026 130.996  0.00  0.00    +0.307 C 
ATOM     34  O   LIG A   1      -7.695  -1.909 132.173  0.00  0.00    -0.251 OA
BRANCH  33  35
ATOM     35  O   LIG A   1      -7.469  -3.183 130.273  0.00  0.00    -0.468 OA
ATOM     36  C   LIG A   1      -8.285  -3.180 129.101  0.00  0.00    +0.280 C 
ENDBRANCH  33  35
ENDBRANCH  32  33
ENDBRANCH  24  32
TORSDOF 5
ENDMDL
MODEL 8
REMARK VINA RESULT:      -7.5      2.685      7.721
REMARK  Name = NuBBE_860
REMARK  10 active torsions:
REMARK  status: ('A' for Active; 'I' for Inactive)
REMARK    1  A    between atoms: C_1  and  C_2
REMARK    2  A    between atoms: C_2  and  C_3
REMARK    3  A    between atoms: C_11  and  O_12
REMARK    4  A    between atoms: C_13  and  C_16
REMARK    5  A    between atoms: C_20  and  C_22
REMARK    6  A    between atoms: C_30  and  C_31
REMARK    7  A    between atoms: C_34  and  C_36
REMARK    8  A    between atoms: C_36  and  C_37
REMARK    9  A    between atoms: C_37  and  O_38
REMARK   10  A    between atoms: O_38  and  C_39
REMARK                            x       y       z     vdW  Elec       q    Type
REMARK                         _______ _______ _______ _____ _____    ______ ____
ROOT
ATOM      1  C   LIG A   1      -4.877  -2.725 129.224  0.00  0.00    +0.014 C 
ATOM      2  C   LIG A   1      -5.930  -1.931 130.035  0.00  0.00    -0.004 C 
ATOM      3  C   LIG A   1      -6.501  -2.897 131.103  0.00  0.00    +0.014 C 
ATOM      4  C   LIG A   1      -5.170  -0.796 130.764  0.00  0.00    +0.135 C 
ATOM      5  C   LIG A   1      -4.642   0.317 129.861  0.00  0.00    +0.088 C 
ATOM      6  C   LIG A   1      -4.930   1.557 130.675  0.00  0.00    +0.052 C 
ATOM      7  C   LIG A   1      -6.299   1.191 131.273  0.00  0.00    +0.104 C 
ATOM      8  O   LIG A   1      -6.070  -0.175 131.698  0.00  0.00    -0.366 OA
ATOM      9  C   LIG A   1      -6.837   1.979 132.556  0.00  0.00    +0.114 C 
ATOM     10  C   LIG A   1      -8.096   2.891 132.311  0.00  0.00    +0.041 C 
ATOM     11  C   LIG A   1      -9.199   2.119 131.509  0.00  0.00    +0.014 C 
ATOM     12  C   LIG A   1      -8.729   0.904 130.707  0.00  0.00    +0.008 C 
ATOM     13  C   LIG A   1      -8.806   3.248 133.665  0.00  0.00    +0.018 C 
ATOM     14  C   LIG A   1      -5.745   2.804 133.241  0.00  0.00    +0.159 C 
ATOM     15  C   LIG A   1      -5.328   3.945 132.360  0.00  0.00    +0.311 C 
ATOM     16  O   LIG A   1      -6.213   4.269 131.385  0.00  0.00    -0.456 OA
ATOM     17  C   LIG A   1      -7.609   4.276 131.740  0.00  0.00    +0.218 C 
ATOM     18  O   LIG A   1      -4.225   4.472 132.441  0.00  0.00    -0.251 OA
ATOM     19  C   LIG A   1      -7.342   1.143 130.124  0.00  0.00    +0.037 C 
ATOM     20  C   LIG A   1      -6.985   0.209 128.889  0.00  0.00    +0.036 C 
ATOM     21  C   LIG A   1      -7.765   0.771 127.684  0.00  0.00    +0.019 C 
ATOM     22  C   LIG A   1      -5.497   0.410 128.626  0.00  0.00    +0.145 C 
ATOM     23  O   LIG A   1      -5.016   0.628 127.519  0.00  0.00    -0.296 OA
ATOM     24  C   LIG A   1      -7.151  -1.342 129.161  0.00  0.00    +0.021 C 
ENDROOT
BRANCH  17  25
ATOM     25  C   LIG A   1      -8.403   4.912 130.629  0.00  0.00    +0.031 A 
ATOM     26  C   LIG A   1      -8.205   4.728 129.271  0.00  0.00    +0.202 A 
ATOM     27  O   LIG A   1      -9.136   5.394 128.541  0.00  0.00    -0.471 OA
ATOM     28  C   LIG A   1      -9.962   6.006 129.421  0.00  0.00    +0.195 A 
ATOM     29  C   LIG A   1      -9.566   5.734 130.708  0.00  0.00    +0.048 A 
ENDBRANCH  17  25
BRANCH   9  30
ATOM     30  O   LIG A   1      -7.244   0.979 133.524  0.00  0.00    -0.385 OA
ATOM     31  H   LIG A   1      -7.122   0.108 133.085  0.00  0.00    +0.210 HD
ENDBRANCH   9  30
BRANCH  24  32
ATOM     32  C   LIG A   1      -7.393  -2.208 127.895  0.00  0.00    +0.125 C 
BRANCH  32  33
ATOM     33  C   LIG A   1      -8.538  -3.212 127.955  0.00  0.00    +0.307 C 
ATOM     34  O   LIG A   1      -9.067  -3.609 128.972  0.00  0.00    -0.251 OA
BRANCH  33  35
ATOM     35  O   LIG A   1      -8.820  -3.631 126.687  0.00  0.00    -0.468 OA
ATOM     36  C   LIG A   1      -9.403  -2.670 125.806  0.00  0.00    +0.280 C 
ENDBRANCH  33  35
ENDBRANCH  32  33
ENDBRANCH  24  32
TORSDOF 5
ENDMDL
MODEL 9
REMARK VINA RESULT:      -7.5      2.166      6.866
REMARK  Name = NuBBE_860
REMARK  10 active torsions:
REMARK  status: ('A' for Active; 'I' for Inactive)
REMARK    1  A    between atoms: C_1  and  C_2
REMARK    2  A    between atoms: C_2  and  C_3
REMARK    3  A    between atoms: C_11  and  O_12
REMARK    4  A    between atoms: C_13  and  C_16
REMARK    5  A    between atoms: C_20  and  C_22
REMARK    6  A    between atoms: C_30  and  C_31
REMARK    7  A    between atoms: C_34  and  C_36
REMARK    8  A    between atoms: C_36  and  C_37
REMARK    9  A    between atoms: C_37  and  O_38
REMARK   10  A    between atoms: O_38  and  C_39
REMARK                            x       y       z     vdW  Elec       q    Type
REMARK                         _______ _______ _______ _____ _____    ______ ____
ROOT
ATOM      1  C   LIG A   1      -6.937   0.239 123.883  0.00  0.00    +0.014 C 
ATOM      2  C   LIG A   1      -6.383   0.334 125.326  0.00  0.00    -0.004 C 
ATOM      3  C   LIG A   1      -5.396  -0.847 125.510  0.00  0.00    +0.014 C 
ATOM      4  C   LIG A   1      -5.579   1.655 125.409  0.00  0.00    +0.135 C 
ATOM      5  C   LIG A   1      -6.419   2.930 125.367  0.00  0.00    +0.088 C 
ATOM      6  C   LIG A   1      -5.737   3.799 126.398  0.00  0.00    +0.052 C 
ATOM      7  C   LIG A   1      -5.394   2.751 127.470  0.00  0.00    +0.104 C 
ATOM      8  O   LIG A   1      -4.865   1.673 126.658  0.00  0.00    -0.366 OA
ATOM      9  C   LIG A   1      -4.278   3.078 128.567  0.00  0.00    +0.114 C 
ATOM     10  C   LIG A   1      -4.804   3.229 130.043  0.00  0.00    +0.041 C 
ATOM     11  C   LIG A   1      -5.763   2.048 130.419  0.00  0.00    +0.014 C 
ATOM     12  C   LIG A   1      -6.398   1.292 129.251  0.00  0.00    +0.008 C 
ATOM     13  C   LIG A   1      -3.630   3.095 131.076  0.00  0.00    +0.018 C 
ATOM     14  C   LIG A   1      -3.439   4.306 128.206  0.00  0.00    +0.159 C 
ATOM     15  C   LIG A   1      -4.279   5.547 128.275  0.00  0.00    +0.311 C 
ATOM     16  O   LIG A   1      -5.421   5.427 128.997  0.00  0.00    -0.456 OA
ATOM     17  C   LIG A   1      -5.340   4.697 130.237  0.00  0.00    +0.218 C 
ATOM     18  O   LIG A   1      -4.015   6.559 127.637  0.00  0.00    -0.251 OA
ATOM     19  C   LIG A   1      -6.717   2.240 128.102  0.00  0.00    +0.037 C 
ATOM     20  C   LIG A   1      -7.813   1.693 127.090  0.00  0.00    +0.036 C 
ATOM     21  C   LIG A   1      -9.172   1.842 127.803  0.00  0.00    +0.019 C 
ATOM     22  C   LIG A   1      -7.797   2.641 125.897  0.00  0.00    +0.145 C 
ATOM     23  O   LIG A   1      -8.801   3.137 125.397  0.00  0.00    -0.296 OA
ATOM     24  C   LIG A   1      -7.502   0.263 126.485  0.00  0.00    +0.021 C 
ENDROOT
BRANCH  17  25
ATOM     25  C   LIG A   1      -6.612   4.899 131.018  0.00  0.00    +0.031 A 
ATOM     26  C   LIG A   1      -6.707   5.170 132.373  0.00  0.00    +0.202 A 
ATOM     27  O   LIG A   1      -7.997   5.363 132.749  0.00  0.00    -0.471 OA
ATOM     28  C   LIG A   1      -8.754   5.236 131.634  0.00  0.00    +0.195 A 
ATOM     29  C   LIG A   1      -7.957   4.965 130.549  0.00  0.00    +0.048 A 
ENDBRANCH  17  25
BRANCH   9  30
ATOM     30  O   LIG A   1      -3.357   1.958 128.578  0.00  0.00    -0.385 OA
ATOM     31  H   LIG A   1      -3.798   1.247 129.094  0.00  0.00    +0.210 HD
ENDBRANCH   9  30
BRANCH  24  32
ATOM     32  C   LIG A   1      -8.746  -0.532 126.004  0.00  0.00    +0.125 C 
BRANCH  32  33
ATOM     33  C   LIG A   1      -8.770  -2.025 126.309  0.00  0.00    +0.307 C 
ATOM     34  O   LIG A   1      -8.052  -2.587 127.109  0.00  0.00    -0.251 OA
BRANCH  33  35
ATOM     35  O   LIG A   1      -9.685  -2.624 125.491  0.00  0.00    -0.468 OA
ATOM     36  C   LIG A   1      -9.194  -3.167 124.265  0.00  0.00    +0.280 C 
ENDBRANCH  33  35
ENDBRANCH  32  33
ENDBRANCH  24  32
TORSDOF 5
ENDMDL
