MODEL 1
REMARK VINA RESULT:      -9.2      0.000      0.000
REMARK  Name = NuBBE_1037
REMARK  12 active torsions:
REMARK  status: ('A' for Active; 'I' for Inactive)
REMARK    1  A    between atoms: C_1  and  C_2
REMARK    2  A    between atoms: C_5  and  O_6
REMARK    3  A    between atoms: O_6  and  C_7
REMARK    4  A    between atoms: C_7  and  C_8
REMARK    5  A    between atoms: C_11  and  C_12
REMARK    6  A    between atoms: C_11  and  C_13
REMARK    7  A    between atoms: C_16  and  C_17
REMARK    8  A    between atoms: C_23  and  C_24
REMARK    9  A    between atoms: C_27  and  C_28
REMARK   10  A    between atoms: C_28  and  O_29
REMARK   11  A    between atoms: C_34  and  C_37
REMARK   12  A    between atoms: C_34  and  C_38
REMARK                            x       y       z     vdW  Elec       q    Type
REMARK                         _______ _______ _______ _____ _____    ______ ____
ROOT
ATOM      1  C   LIG A   1      -5.747  -1.519 127.748  0.00  0.00    +0.012 C 
ATOM      2  C   LIG A   1      -7.301  -1.442 127.680  0.00  0.00    -0.025 C 
ATOM      3  C   LIG A   1      -7.835  -2.913 127.814  0.00  0.00    +0.011 C 
ATOM      4  C   LIG A   1      -8.334  -3.313 129.213  0.00  0.00    +0.046 C 
ATOM      5  C   LIG A   1      -7.515  -2.731 130.368  0.00  0.00    +0.182 C 
ATOM      6  C   LIG A   1      -7.866  -0.628 128.882  0.00  0.00    +0.004 C 
ATOM      7  C   LIG A   1      -7.509  -1.162 130.330  0.00  0.00    +0.005 C 
ATOM      8  C   LIG A   1      -8.643  -0.683 131.285  0.00  0.00    +0.015 C 
ATOM      9  C   LIG A   1      -6.205  -0.571 130.922  0.00  0.00    +0.015 C 
ATOM     10  C   LIG A   1      -7.568   0.851 128.677  0.00  0.00    +0.005 C 
ATOM     11  C   LIG A   1      -8.502   1.397 127.619  0.00  0.00    +0.008 C 
ATOM     12  C   LIG A   1      -8.550   0.634 126.253  0.00  0.00    -0.019 C 
ATOM     13  C   LIG A   1     -10.064   0.338 126.006  0.00  0.00    +0.012 C 
ATOM     14  C   LIG A   1      -7.787  -0.822 126.252  0.00  0.00    +0.006 C 
ATOM     15  C   LIG A   1      -6.692  -0.927 125.133  0.00  0.00    +0.031 C 
ATOM     16  C   LIG A   1      -5.858   0.316 125.100  0.00  0.00    -0.026 C 
ATOM     17  C   LIG A   1      -6.456   1.515 125.227  0.00  0.00    -0.063 C 
ATOM     18  C   LIG A   1      -7.990   1.597 125.079  0.00  0.00    -0.005 C 
ATOM     19  C   LIG A   1      -8.449   1.087 123.666  0.00  0.00    +0.016 C 
ATOM     20  C   LIG A   1      -8.551   3.083 125.093  0.00  0.00    +0.012 C 
ATOM     21  C   LIG A   1      -7.608   4.267 125.384  0.00  0.00    +0.019 C 
ATOM     22  C   LIG A   1      -6.121   4.023 125.049  0.00  0.00    +0.074 C 
ATOM     23  C   LIG A   1      -5.751   2.729 125.796  0.00  0.00    +0.033 C 
ATOM     24  C   LIG A   1      -4.255   2.667 126.157  0.00  0.00    +0.015 C 
ATOM     25  C   LIG A   1      -3.882   3.801 127.160  0.00  0.00    -0.034 C 
ATOM     26  C   LIG A   1      -4.770   5.060 126.972  0.00  0.00    +0.007 C 
ATOM     27  C   LIG A   1      -5.262   5.227 125.534  0.00  0.00    +0.019 C 
ATOM     28  C   LIG A   1      -2.399   4.164 126.973  0.00  0.00    +0.011 C 
ATOM     29  C   LIG A   1      -4.062   3.301 128.612  0.00  0.00    +0.011 C 
ENDROOT
BRANCH  22  30
ATOM     30  C   LIG A   1      -5.936   3.908 123.534  0.00  0.00    +0.311 C 
ATOM     31  O   LIG A   1      -6.792   3.630 122.713  0.00  0.00    -0.250 OA
BRANCH  30  32
ATOM     32  O   LIG A   1      -4.692   4.212 123.112  0.00  0.00    -0.480 OA
ATOM     33  H   LIG A   1      -4.537   3.588 122.373  0.00  0.00    +0.295 HD
ENDBRANCH  30  32
ENDBRANCH  22  30
BRANCH   5  34
ATOM     34  O   LIG A   1      -6.172  -3.256 130.323  0.00  0.00    -0.461 OA
BRANCH  34  35
ATOM     35  C   LIG A   1      -5.902  -4.330 131.113  0.00  0.00    +0.304 C 
ATOM     36  C   LIG A   1      -6.012  -3.941 132.556  0.00  0.00    +0.136 C 
ATOM     37  O   LIG A   1      -5.638  -5.458 130.722  0.00  0.00    -0.251 OA
ENDBRANCH  34  35
ENDBRANCH   5  34
TORSDOF 4
ENDMDL
MODEL 2
REMARK VINA RESULT:      -8.9      3.117      6.965
REMARK  Name = NuBBE_1037
REMARK  12 active torsions:
REMARK  status: ('A' for Active; 'I' for Inactive)
REMARK    1  A    between atoms: C_1  and  C_2
REMARK    2  A    between atoms: C_5  and  O_6
REMARK    3  A    between atoms: O_6  and  C_7
REMARK    4  A    between atoms: C_7  and  C_8
REMARK    5  A    between atoms: C_11  and  C_12
REMARK    6  A    between atoms: C_11  and  C_13
REMARK    7  A    between atoms: C_16  and  C_17
REMARK    8  A    between atoms: C_23  and  C_24
REMARK    9  A    between atoms: C_27  and  C_28
REMARK   10  A    between atoms: C_28  and  O_29
REMARK   11  A    between atoms: C_34  and  C_37
REMARK   12  A    between atoms: C_34  and  C_38
REMARK                            x       y       z     vdW  Elec       q    Type
REMARK                         _______ _______ _______ _____ _____    ______ ____
ROOT
ATOM      1  C   LIG A   1      -8.386  -0.909 127.512  0.00  0.00    +0.012 C 
ATOM      2  C   LIG A   1      -7.713  -2.305 127.670  0.00  0.00    -0.025 C 
ATOM      3  C   LIG A   1      -8.636  -3.341 126.933  0.00  0.00    +0.011 C 
ATOM      4  C   LIG A   1      -8.183  -3.747 125.521  0.00  0.00    +0.046 C 
ATOM      5  C   LIG A   1      -7.570  -2.609 124.700  0.00  0.00    +0.182 C 
ATOM      6  C   LIG A   1      -6.325  -2.331 126.964  0.00  0.00    +0.004 C 
ATOM      7  C   LIG A   1      -6.311  -2.002 125.415  0.00  0.00    +0.005 C 
ATOM      8  C   LIG A   1      -5.063  -2.713 124.809  0.00  0.00    +0.015 C 
ATOM      9  C   LIG A   1      -6.123  -0.501 125.085  0.00  0.00    +0.015 C 
ATOM     10  C   LIG A   1      -5.328  -1.518 127.778  0.00  0.00    +0.005 C 
ATOM     11  C   LIG A   1      -4.934  -2.311 129.005  0.00  0.00    +0.008 C 
ATOM     12  C   LIG A   1      -6.097  -2.848 129.906  0.00  0.00    -0.019 C 
ATOM     13  C   LIG A   1      -5.818  -4.377 130.061  0.00  0.00    +0.012 C 
ATOM     14  C   LIG A   1      -7.596  -2.715 129.244  0.00  0.00    +0.006 C 
ATOM     15  C   LIG A   1      -8.591  -1.920 130.161  0.00  0.00    +0.031 C 
ATOM     16  C   LIG A   1      -7.935  -0.685 130.696  0.00  0.00    -0.026 C 
ATOM     17  C   LIG A   1      -6.661  -0.748 131.126  0.00  0.00    -0.063 C 
ATOM     18  C   LIG A   1      -6.025  -2.135 131.358  0.00  0.00    -0.005 C 
ATOM     19  C   LIG A   1      -6.833  -2.955 132.427  0.00  0.00    +0.016 C 
ATOM     20  C   LIG A   1      -4.579  -2.070 132.012  0.00  0.00    +0.012 C 
ATOM     21  C   LIG A   1      -3.883  -0.712 132.225  0.00  0.00    +0.019 C 
ATOM     22  C   LIG A   1      -4.830   0.500 132.360  0.00  0.00    +0.074 C 
ATOM     23  C   LIG A   1      -5.728   0.446 131.112  0.00  0.00    +0.033 C 
ATOM     24  C   LIG A   1      -6.244   1.837 130.698  0.00  0.00    +0.015 C 
ATOM     25  C   LIG A   1      -5.062   2.760 130.272  0.00  0.00    -0.034 C 
ATOM     26  C   LIG A   1      -3.750   2.410 131.024  0.00  0.00    +0.007 C 
ATOM     27  C   LIG A   1      -4.003   1.817 132.411  0.00  0.00    +0.019 C 
ATOM     28  C   LIG A   1      -5.453   4.224 130.538  0.00  0.00    +0.011 C 
ATOM     29  C   LIG A   1      -4.800   2.612 128.756  0.00  0.00    +0.011 C 
ENDROOT
BRANCH  22  30
ATOM     30  C   LIG A   1      -5.622   0.405 133.666  0.00  0.00    +0.311 C 
ATOM     31  O   LIG A   1      -6.764   0.783 133.858  0.00  0.00    -0.250 OA
BRANCH  30  32
ATOM     32  O   LIG A   1      -4.962  -0.225 134.659  0.00  0.00    -0.480 OA
ATOM     33  H   LIG A   1      -5.491  -1.034 134.814  0.00  0.00    +0.295 HD
ENDBRANCH  30  32
ENDBRANCH  22  30
BRANCH   5  34
ATOM     34  O   LIG A   1      -8.568  -1.595 124.458  0.00  0.00    -0.461 OA
BRANCH  34  35
ATOM     35  C   LIG A   1      -9.037  -1.482 123.186  0.00  0.00    +0.304 C 
ATOM     36  C   LIG A   1      -8.071  -2.111 122.229  0.00  0.00    +0.136 C 
ATOM     37  O   LIG A   1     -10.099  -0.973 122.858  0.00  0.00    -0.251 OA
ENDBRANCH  34  35
ENDBRANCH   5  34
TORSDOF 4
ENDMDL
MODEL 3
REMARK VINA RESULT:      -8.6      3.924      7.358
REMARK  Name = NuBBE_1037
REMARK  12 active torsions:
REMARK  status: ('A' for Active; 'I' for Inactive)
REMARK    1  A    between atoms: C_1  and  C_2
REMARK    2  A    between atoms: C_5  and  O_6
REMARK    3  A    between atoms: O_6  and  C_7
REMARK    4  A    between atoms: C_7  and  C_8
REMARK    5  A    between atoms: C_11  and  C_12
REMARK    6  A    between atoms: C_11  and  C_13
REMARK    7  A    between atoms: C_16  and  C_17
REMARK    8  A    between atoms: C_23  and  C_24
REMARK    9  A    between atoms: C_27  and  C_28
REMARK   10  A    between atoms: C_28  and  O_29
REMARK   11  A    between atoms: C_34  and  C_37
REMARK   12  A    between atoms: C_34  and  C_38
REMARK                            x       y       z     vdW  Elec       q    Type
REMARK                         _______ _______ _______ _____ _____    ______ ____
ROOT
ATOM      1  C   LIG A   1      -8.864   1.247 127.430  0.00  0.00    +0.012 C 
ATOM      2  C   LIG A   1      -7.315   1.109 127.516  0.00  0.00    -0.025 C 
ATOM      3  C   LIG A   1      -6.926  -0.171 126.693  0.00  0.00    +0.011 C 
ATOM      4  C   LIG A   1      -6.406   0.087 125.270  0.00  0.00    +0.046 C 
ATOM      5  C   LIG A   1      -7.106   1.235 124.537  0.00  0.00    +0.182 C 
ATOM      6  C   LIG A   1      -6.615   2.328 126.843  0.00  0.00    +0.004 C 
ATOM      7  C   LIG A   1      -6.956   2.588 125.319  0.00  0.00    +0.005 C 
ATOM      8  C   LIG A   1      -5.734   3.333 124.700  0.00  0.00    +0.015 C 
ATOM      9  C   LIG A   1      -8.163   3.529 125.088  0.00  0.00    +0.015 C 
ATOM     10  C   LIG A   1      -6.772   3.555 127.730  0.00  0.00    +0.005 C 
ATOM     11  C   LIG A   1      -5.839   3.426 128.915  0.00  0.00    +0.008 C 
ATOM     12  C   LIG A   1      -5.932   2.107 129.752  0.00  0.00    -0.019 C 
ATOM     13  C   LIG A   1      -4.470   1.562 129.818  0.00  0.00    +0.012 C 
ATOM     14  C   LIG A   1      -6.838   0.919 129.064  0.00  0.00    +0.006 C 
ATOM     15  C   LIG A   1      -7.990   0.418 130.004  0.00  0.00    +0.031 C 
ATOM     16  C   LIG A   1      -8.695   1.582 130.631  0.00  0.00    -0.026 C 
ATOM     17  C   LIG A   1      -7.973   2.622 131.087  0.00  0.00    -0.063 C 
ATOM     18  C   LIG A   1      -6.448   2.453 131.246  0.00  0.00    -0.005 C 
ATOM     19  C   LIG A   1      -6.110   1.286 132.243  0.00  0.00    +0.016 C 
ATOM     20  C   LIG A   1      -5.740   3.695 131.938  0.00  0.00    +0.012 C 
ATOM     21  C   LIG A   1      -6.544   4.972 132.253  0.00  0.00    +0.019 C 
ATOM     22  C   LIG A   1      -8.063   4.765 132.441  0.00  0.00    +0.074 C 
ATOM     23  C   LIG A   1      -8.525   4.031 131.170  0.00  0.00    +0.033 C 
ATOM     24  C   LIG A   1     -10.001   4.314 130.832  0.00  0.00    +0.015 C 
ATOM     25  C   LIG A   1     -10.209   5.822 130.493  0.00  0.00    -0.034 C 
ATOM     26  C   LIG A   1      -9.209   6.733 131.254  0.00  0.00    +0.007 C 
ATOM     27  C   LIG A   1      -8.771   6.142 132.594  0.00  0.00    +0.019 C 
ATOM     28  C   LIG A   1     -11.656   6.214 130.841  0.00  0.00    +0.011 C 
ATOM     29  C   LIG A   1     -10.012   6.053 128.978  0.00  0.00    +0.011 C 
ENDROOT
BRANCH  22  30
ATOM     30  C   LIG A   1      -8.329   3.967 133.719  0.00  0.00    +0.311 C 
ATOM     31  O   LIG A   1      -7.497   3.520 134.489  0.00  0.00    -0.250 OA
BRANCH  30  32
ATOM     32  O   LIG A   1      -9.638   3.822 134.008  0.00  0.00    -0.480 OA
ATOM     33  H   LIG A   1      -9.901   4.702 134.347  0.00  0.00    +0.295 HD
ENDBRANCH  30  32
ENDBRANCH  22  30
BRANCH   5  34
ATOM     34  O   LIG A   1      -8.495   0.904 124.335  0.00  0.00    -0.461 OA
BRANCH  34  35
ATOM     35  C   LIG A   1      -8.792   0.105 123.274  0.00  0.00    +0.304 C 
ATOM     36  C   LIG A   1     -10.014   0.621 122.576  0.00  0.00    +0.136 C 
ATOM     37  O   LIG A   1      -8.153  -0.871 122.912  0.00  0.00    -0.251 OA
ENDBRANCH  34  35
ENDBRANCH   5  34
TORSDOF 4
ENDMDL
MODEL 4
REMARK VINA RESULT:      -8.6      1.831      4.434
REMARK  Name = NuBBE_1037
REMARK  12 active torsions:
REMARK  status: ('A' for Active; 'I' for Inactive)
REMARK    1  A    between atoms: C_1  and  C_2
REMARK    2  A    between atoms: C_5  and  O_6
REMARK    3  A    between atoms: O_6  and  C_7
REMARK    4  A    between atoms: C_7  and  C_8
REMARK    5  A    between atoms: C_11  and  C_12
REMARK    6  A    between atoms: C_11  and  C_13
REMARK    7  A    between atoms: C_16  and  C_17
REMARK    8  A    between atoms: C_23  and  C_24
REMARK    9  A    between atoms: C_27  and  C_28
REMARK   10  A    between atoms: C_28  and  O_29
REMARK   11  A    between atoms: C_34  and  C_37
REMARK   12  A    between atoms: C_34  and  C_38
REMARK                            x       y       z     vdW  Elec       q    Type
REMARK                         _______ _______ _______ _____ _____    ______ ____
ROOT
ATOM      1  C   LIG A   1      -7.894  -1.057 130.063  0.00  0.00    +0.012 C 
ATOM      2  C   LIG A   1      -6.738  -0.102 130.486  0.00  0.00    -0.025 C 
ATOM      3  C   LIG A   1      -6.759  -0.031 132.055  0.00  0.00    +0.011 C 
ATOM      4  C   LIG A   1      -5.727  -0.918 132.773  0.00  0.00    +0.046 C 
ATOM      5  C   LIG A   1      -5.491  -2.278 132.111  0.00  0.00    +0.182 C 
ATOM      6  C   LIG A   1      -5.358  -0.685 130.062  0.00  0.00    +0.004 C 
ATOM      7  C   LIG A   1      -4.986  -2.115 130.634  0.00  0.00    +0.005 C 
ATOM      8  C   LIG A   1      -3.430  -2.198 130.677  0.00  0.00    +0.015 C 
ATOM      9  C   LIG A   1      -5.430  -3.294 129.735  0.00  0.00    +0.015 C 
ATOM     10  C   LIG A   1      -5.197  -0.562 128.553  0.00  0.00    +0.005 C 
ATOM     11  C   LIG A   1      -4.910   0.883 128.207  0.00  0.00    +0.008 C 
ATOM     12  C   LIG A   1      -5.906   1.957 128.761  0.00  0.00    -0.019 C 
ATOM     13  C   LIG A   1      -5.009   3.002 129.497  0.00  0.00    +0.012 C 
ATOM     14  C   LIG A   1      -6.973   1.393 129.877  0.00  0.00    +0.006 C 
ATOM     15  C   LIG A   1      -8.466   1.665 129.476  0.00  0.00    +0.031 C 
ATOM     16  C   LIG A   1      -8.690   1.319 128.036  0.00  0.00    -0.026 C 
ATOM     17  C   LIG A   1      -7.763   1.664 127.123  0.00  0.00    -0.063 C 
ATOM     18  C   LIG A   1      -6.667   2.673 127.525  0.00  0.00    -0.005 C 
ATOM     19  C   LIG A   1      -7.295   4.043 127.969  0.00  0.00    +0.016 C 
ATOM     20  C   LIG A   1      -5.734   3.112 126.316  0.00  0.00    +0.012 C 
ATOM     21  C   LIG A   1      -5.877   2.436 124.939  0.00  0.00    +0.019 C 
ATOM     22  C   LIG A   1      -7.268   1.832 124.642  0.00  0.00    +0.074 C 
ATOM     23  C   LIG A   1      -7.560   0.901 125.831  0.00  0.00    +0.033 C 
ATOM     24  C   LIG A   1      -8.500  -0.259 125.451  0.00  0.00    +0.015 C 
ATOM     25  C   LIG A   1      -7.828  -1.191 124.397  0.00  0.00    -0.034 C 
ATOM     26  C   LIG A   1      -6.842  -0.419 123.481  0.00  0.00    +0.007 C 
ATOM     27  C   LIG A   1      -7.230   1.049 123.298  0.00  0.00    +0.019 C 
ATOM     28  C   LIG A   1      -8.926  -1.860 123.552  0.00  0.00    +0.011 C 
ATOM     29  C   LIG A   1      -7.040  -2.312 125.112  0.00  0.00    +0.011 C 
ENDROOT
BRANCH  22  30
ATOM     30  C   LIG A   1      -8.304   2.949 124.493  0.00  0.00    +0.311 C 
ATOM     31  O   LIG A   1      -9.401   3.002 125.019  0.00  0.00    -0.250 OA
BRANCH  30  32
ATOM     32  O   LIG A   1      -7.884   3.985 123.739  0.00  0.00    -0.480 OA
ATOM     33  H   LIG A   1      -8.716   4.406 123.438  0.00  0.00    +0.295 HD
ENDBRANCH  30  32
ENDBRANCH  22  30
BRANCH   5  34
ATOM     34  O   LIG A   1      -6.702  -3.059 132.163  0.00  0.00    -0.461 OA
BRANCH  34  35
ATOM     35  C   LIG A   1      -7.032  -3.611 133.361  0.00  0.00    +0.304 C 
ATOM     36  C   LIG A   1      -6.025  -4.658 133.732  0.00  0.00    +0.136 C 
ATOM     37  O   LIG A   1      -7.984  -3.293 134.058  0.00  0.00    -0.251 OA
ENDBRANCH  34  35
ENDBRANCH   5  34
TORSDOF 4
ENDMDL
MODEL 5
REMARK VINA RESULT:      -8.4      4.030      5.535
REMARK  Name = NuBBE_1037
REMARK  12 active torsions:
REMARK  status: ('A' for Active; 'I' for Inactive)
REMARK    1  A    between atoms: C_1  and  C_2
REMARK    2  A    between atoms: C_5  and  O_6
REMARK    3  A    between atoms: O_6  and  C_7
REMARK    4  A    between atoms: C_7  and  C_8
REMARK    5  A    between atoms: C_11  and  C_12
REMARK    6  A    between atoms: C_11  and  C_13
REMARK    7  A    between atoms: C_16  and  C_17
REMARK    8  A    between atoms: C_23  and  C_24
REMARK    9  A    between atoms: C_27  and  C_28
REMARK   10  A    between atoms: C_28  and  O_29
REMARK   11  A    between atoms: C_34  and  C_37
REMARK   12  A    between atoms: C_34  and  C_38
REMARK                            x       y       z     vdW  Elec       q    Type
REMARK                         _______ _______ _______ _____ _____    ______ ____
ROOT
ATOM      1  C   LIG A   1      -5.367  -0.028 130.545  0.00  0.00    +0.012 C 
ATOM      2  C   LIG A   1      -6.774  -0.103 131.208  0.00  0.00    -0.025 C 
ATOM      3  C   LIG A   1      -7.467  -1.401 130.659  0.00  0.00    +0.011 C 
ATOM      4  C   LIG A   1      -7.423  -2.622 131.594  0.00  0.00    +0.046 C 
ATOM      5  C   LIG A   1      -6.117  -2.773 132.379  0.00  0.00    +0.182 C 
ATOM      6  C   LIG A   1      -6.649  -0.256 132.752  0.00  0.00    +0.004 C 
ATOM      7  C   LIG A   1      -5.842  -1.514 133.276  0.00  0.00    +0.005 C 
ATOM      8  C   LIG A   1      -6.389  -1.846 134.698  0.00  0.00    +0.015 C 
ATOM      9  C   LIG A   1      -4.328  -1.261 133.473  0.00  0.00    +0.015 C 
ATOM     10  C   LIG A   1      -6.196   1.065 133.358  0.00  0.00    +0.005 C 
ATOM     11  C   LIG A   1      -7.361   2.031 133.354  0.00  0.00    +0.008 C 
ATOM     12  C   LIG A   1      -8.093   2.255 131.989  0.00  0.00    -0.019 C 
ATOM     13  C   LIG A   1      -9.604   2.000 132.292  0.00  0.00    +0.012 C 
ATOM     14  C   LIG A   1      -7.673   1.197 130.803  0.00  0.00    +0.006 C 
ATOM     15  C   LIG A   1      -7.160   1.918 129.506  0.00  0.00    +0.031 C 
ATOM     16  C   LIG A   1      -6.200   3.010 129.862  0.00  0.00    -0.026 C 
ATOM     17  C   LIG A   1      -6.467   3.808 130.912  0.00  0.00    -0.063 C 
ATOM     18  C   LIG A   1      -7.888   3.789 131.514  0.00  0.00    -0.005 C 
ATOM     19  C   LIG A   1      -8.962   4.194 130.441  0.00  0.00    +0.016 C 
ATOM     20  C   LIG A   1      -8.116   4.885 132.641  0.00  0.00    +0.012 C 
ATOM     21  C   LIG A   1      -6.938   5.746 133.136  0.00  0.00    +0.019 C 
ATOM     22  C   LIG A   1      -5.783   5.927 132.127  0.00  0.00    +0.074 C 
ATOM     23  C   LIG A   1      -5.385   4.498 131.717  0.00  0.00    +0.033 C 
ATOM     24  C   LIG A   1      -3.909   4.399 131.289  0.00  0.00    +0.015 C 
ATOM     25  C   LIG A   1      -2.964   4.724 132.486  0.00  0.00    -0.034 C 
ATOM     26  C   LIG A   1      -3.608   5.728 133.479  0.00  0.00    +0.007 C 
ATOM     27  C   LIG A   1      -4.599   6.677 132.803  0.00  0.00    +0.019 C 
ATOM     28  C   LIG A   1      -1.643   5.292 131.938  0.00  0.00    +0.011 C 
ATOM     29  C   LIG A   1      -2.632   3.429 133.262  0.00  0.00    +0.011 C 
ENDROOT
BRANCH  22  30
ATOM     30  C   LIG A   1      -6.248   6.777 130.942  0.00  0.00    +0.311 C 
ATOM     31  O   LIG A   1      -7.346   7.284 130.794  0.00  0.00    -0.250 OA
BRANCH  30  32
ATOM     32  O   LIG A   1      -5.287   7.006 130.025  0.00  0.00    -0.480 OA
ATOM     33  H   LIG A   1      -5.054   7.948 130.162  0.00  0.00    +0.295 HD
ENDBRANCH  30  32
ENDBRANCH  22  30
BRANCH   5  34
ATOM     34  O   LIG A   1      -5.027  -3.006 131.465  0.00  0.00    -0.461 OA
BRANCH  34  35
ATOM     35  C   LIG A   1      -5.178  -4.018 130.568  0.00  0.00    +0.304 C 
ATOM     36  C   LIG A   1      -4.720  -3.569 129.213  0.00  0.00    +0.136 C 
ATOM     37  O   LIG A   1      -5.594  -5.139 130.817  0.00  0.00    -0.251 OA
ENDBRANCH  34  35
ENDBRANCH   5  34
TORSDOF 4
ENDMDL
MODEL 6
REMARK VINA RESULT:      -8.4      2.558      4.337
REMARK  Name = NuBBE_1037
REMARK  12 active torsions:
REMARK  status: ('A' for Active; 'I' for Inactive)
REMARK    1  A    between atoms: C_1  and  C_2
REMARK    2  A    between atoms: C_5  and  O_6
REMARK    3  A    between atoms: O_6  and  C_7
REMARK    4  A    between atoms: C_7  and  C_8
REMARK    5  A    between atoms: C_11  and  C_12
REMARK    6  A    between atoms: C_11  and  C_13
REMARK    7  A    between atoms: C_16  and  C_17
REMARK    8  A    between atoms: C_23  and  C_24
REMARK    9  A    between atoms: C_27  and  C_28
REMARK   10  A    between atoms: C_28  and  O_29
REMARK   11  A    between atoms: C_34  and  C_37
REMARK   12  A    between atoms: C_34  and  C_38
REMARK                            x       y       z     vdW  Elec       q    Type
REMARK                         _______ _______ _______ _____ _____    ______ ____
ROOT
ATOM      1  C   LIG A   1      -4.207  -2.771 131.845  0.00  0.00    +0.012 C 
ATOM      2  C   LIG A   1      -5.527  -3.499 131.451  0.00  0.00    -0.025 C 
ATOM      3  C   LIG A   1      -5.353  -5.006 131.855  0.00  0.00    +0.011 C 
ATOM      4  C   LIG A   1      -6.013  -5.419 133.181  0.00  0.00    +0.046 C 
ATOM      5  C   LIG A   1      -5.936  -4.359 134.284  0.00  0.00    +0.182 C 
ATOM      6  C   LIG A   1      -6.731  -2.934 132.262  0.00  0.00    +0.004 C 
ATOM      7  C   LIG A   1      -6.627  -3.022 133.839  0.00  0.00    +0.005 C 
ATOM      8  C   LIG A   1      -8.085  -3.063 134.391  0.00  0.00    +0.015 C 
ATOM      9  C   LIG A   1      -5.977  -1.784 134.504  0.00  0.00    +0.015 C 
ATOM     10  C   LIG A   1      -7.086  -1.547 131.742  0.00  0.00    +0.005 C 
ATOM     11  C   LIG A   1      -7.798  -1.689 130.413  0.00  0.00    +0.008 C 
ATOM     12  C   LIG A   1      -7.082  -2.541 129.312  0.00  0.00    -0.019 C 
ATOM     13  C   LIG A   1      -8.145  -3.590 128.855  0.00  0.00    +0.012 C 
ATOM     14  C   LIG A   1      -5.784  -3.399 129.843  0.00  0.00    +0.006 C 
ATOM     15  C   LIG A   1      -4.478  -3.081 129.032  0.00  0.00    +0.031 C 
ATOM     16  C   LIG A   1      -4.329  -1.603 128.843  0.00  0.00    -0.026 C 
ATOM     17  C   LIG A   1      -5.411  -0.865 128.531  0.00  0.00    -0.063 C 
ATOM     18  C   LIG A   1      -6.691  -1.588 128.064  0.00  0.00    -0.005 C 
ATOM     19  C   LIG A   1      -6.420  -2.438 126.771  0.00  0.00    +0.016 C 
ATOM     20  C   LIG A   1      -7.837  -0.601 127.578  0.00  0.00    +0.012 C 
ATOM     21  C   LIG A   1      -7.667   0.922 127.732  0.00  0.00    +0.019 C 
ATOM     22  C   LIG A   1      -6.206   1.422 127.776  0.00  0.00    +0.074 C 
ATOM     23  C   LIG A   1      -5.537   0.601 128.892  0.00  0.00    +0.033 C 
ATOM     24  C   LIG A   1      -4.362   1.349 129.548  0.00  0.00    +0.015 C 
ATOM     25  C   LIG A   1      -4.863   2.635 130.274  0.00  0.00    -0.034 C 
ATOM     26  C   LIG A   1      -6.120   3.237 129.590  0.00  0.00    +0.007 C 
ATOM     27  C   LIG A   1      -6.175   2.946 128.090  0.00  0.00    +0.019 C 
ATOM     28  C   LIG A   1      -3.724   3.669 130.298  0.00  0.00    +0.011 C 
ATOM     29  C   LIG A   1      -5.226   2.304 131.739  0.00  0.00    +0.011 C 
ENDROOT
BRANCH  22  30
ATOM     30  C   LIG A   1      -5.542   1.221 126.411  0.00  0.00    +0.311 C 
ATOM     31  O   LIG A   1      -6.086   0.873 125.378  0.00  0.00    -0.250 OA
BRANCH  30  32
ATOM     32  O   LIG A   1      -4.230   1.532 126.393  0.00  0.00    -0.480 OA
ATOM     33  H   LIG A   1      -4.220   2.507 126.480  0.00  0.00    +0.295 HD
ENDBRANCH  30  32
ENDBRANCH  22  30
BRANCH   5  34
ATOM     34  O   LIG A   1      -4.558  -4.136 134.646  0.00  0.00    -0.461 OA
BRANCH  34  35
ATOM     35  C   LIG A   1      -3.891  -5.179 135.210  0.00  0.00    +0.304 C 
ATOM     36  C   LIG A   1      -2.617  -5.432 134.462  0.00  0.00    +0.136 C 
ATOM     37  O   LIG A   1      -4.246  -5.806 136.197  0.00  0.00    -0.251 OA
ENDBRANCH  34  35
ENDBRANCH   5  34
TORSDOF 4
ENDMDL
MODEL 7
REMARK VINA RESULT:      -8.4      2.085      4.610
REMARK  Name = NuBBE_1037
REMARK  12 active torsions:
REMARK  status: ('A' for Active; 'I' for Inactive)
REMARK    1  A    between atoms: C_1  and  C_2
REMARK    2  A    between atoms: C_5  and  O_6
REMARK    3  A    between atoms: O_6  and  C_7
REMARK    4  A    between atoms: C_7  and  C_8
REMARK    5  A    between atoms: C_11  and  C_12
REMARK    6  A    between atoms: C_11  and  C_13
REMARK    7  A    between atoms: C_16  and  C_17
REMARK    8  A    between atoms: C_23  and  C_24
REMARK    9  A    between atoms: C_27  and  C_28
REMARK   10  A    between atoms: C_28  and  O_29
REMARK   11  A    between atoms: C_34  and  C_37
REMARK   12  A    between atoms: C_34  and  C_38
REMARK                            x       y       z     vdW  Elec       q    Type
REMARK                         _______ _______ _______ _____ _____    ______ ____
ROOT
ATOM      1  C   LIG A   1      -8.055  -0.572 130.749  0.00  0.00    +0.012 C 
ATOM      2  C   LIG A   1      -6.814   0.200 131.289  0.00  0.00    -0.025 C 
ATOM      3  C   LIG A   1      -6.872   0.115 132.856  0.00  0.00    +0.011 C 
ATOM      4  C   LIG A   1      -5.967  -0.949 133.498  0.00  0.00    +0.046 C 
ATOM      5  C   LIG A   1      -5.863  -2.255 132.705  0.00  0.00    +0.182 C 
ATOM      6  C   LIG A   1      -5.495  -0.490 130.832  0.00  0.00    +0.004 C 
ATOM      7  C   LIG A   1      -5.301  -2.002 131.261  0.00  0.00    +0.005 C 
ATOM      8  C   LIG A   1      -3.765  -2.265 131.323  0.00  0.00    +0.015 C 
ATOM      9  C   LIG A   1      -5.846  -3.029 130.238  0.00  0.00    +0.015 C 
ATOM     10  C   LIG A   1      -5.278  -0.236 129.347  0.00  0.00    +0.005 C 
ATOM     11  C   LIG A   1      -4.823   1.195 129.156  0.00  0.00    +0.008 C 
ATOM     12  C   LIG A   1      -5.710   2.313 129.798  0.00  0.00    -0.019 C 
ATOM     13  C   LIG A   1      -4.725   3.172 130.654  0.00  0.00    +0.012 C 
ATOM     14  C   LIG A   1      -6.865   1.765 130.832  0.00  0.00    +0.006 C 
ATOM     15  C   LIG A   1      -8.306   2.242 130.435  0.00  0.00    +0.031 C 
ATOM     16  C   LIG A   1      -8.525   2.070 128.963  0.00  0.00    -0.026 C 
ATOM     17  C   LIG A   1      -7.539   2.397 128.107  0.00  0.00    -0.063 C 
ATOM     18  C   LIG A   1      -6.350   3.231 128.629  0.00  0.00    -0.005 C 
ATOM     19  C   LIG A   1      -6.836   4.611 129.200  0.00  0.00    +0.016 C 
ATOM     20  C   LIG A   1      -5.340   3.680 127.489  0.00  0.00    +0.012 C 
ATOM     21  C   LIG A   1      -5.517   3.165 126.047  0.00  0.00    +0.019 C 
ATOM     22  C   LIG A   1      -6.956   2.755 125.665  0.00  0.00    +0.074 C 
ATOM     23  C   LIG A   1      -7.384   1.748 126.747  0.00  0.00    +0.033 C 
ATOM     24  C   LIG A   1      -8.435   0.746 126.233  0.00  0.00    +0.015 C 
ATOM     25  C   LIG A   1      -7.840  -0.147 125.102  0.00  0.00    -0.034 C 
ATOM     26  C   LIG A   1      -6.748   0.598 124.287  0.00  0.00    +0.007 C 
ATOM     27  C   LIG A   1      -6.967   2.111 124.248  0.00  0.00    +0.019 C 
ATOM     28  C   LIG A   1      -8.980  -0.599 124.173  0.00  0.00    +0.011 C 
ATOM     29  C   LIG A   1      -7.201  -1.415 125.713  0.00  0.00    +0.011 C 
ENDROOT
BRANCH  22  30
ATOM     30  C   LIG A   1      -7.858   3.991 125.613  0.00  0.00    +0.311 C 
ATOM     31  O   LIG A   1      -7.535   5.141 125.852  0.00  0.00    -0.250 OA
BRANCH  30  32
ATOM     32  O   LIG A   1      -9.114   3.732 125.198  0.00  0.00    -0.480 OA
ATOM     33  H   LIG A   1      -9.581   4.585 125.321  0.00  0.00    +0.295 HD
ENDBRANCH  30  32
ENDBRANCH  22  30
BRANCH   5  34
ATOM     34  O   LIG A   1      -7.154  -2.894 132.654  0.00  0.00    -0.461 OA
BRANCH  34  35
ATOM     35  C   LIG A   1      -7.582  -3.514 133.787  0.00  0.00    +0.304 C 
ATOM     36  C   LIG A   1      -6.631  -4.613 134.155  0.00  0.00    +0.136 C 
ATOM     37  O   LIG A   1      -8.573  -3.215 134.436  0.00  0.00    -0.251 OA
ENDBRANCH  34  35
ENDBRANCH   5  34
TORSDOF 4
ENDMDL
MODEL 8
REMARK VINA RESULT:      -8.4      3.356      7.965
REMARK  Name = NuBBE_1037
REMARK  12 active torsions:
REMARK  status: ('A' for Active; 'I' for Inactive)
REMARK    1  A    between atoms: C_1  and  C_2
REMARK    2  A    between atoms: C_5  and  O_6
REMARK    3  A    between atoms: O_6  and  C_7
REMARK    4  A    between atoms: C_7  and  C_8
REMARK    5  A    between atoms: C_11  and  C_12
REMARK    6  A    between atoms: C_11  and  C_13
REMARK    7  A    between atoms: C_16  and  C_17
REMARK    8  A    between atoms: C_23  and  C_24
REMARK    9  A    between atoms: C_27  and  C_28
REMARK   10  A    between atoms: C_28  and  O_29
REMARK   11  A    between atoms: C_34  and  C_37
REMARK   12  A    between atoms: C_34  and  C_38
REMARK                            x       y       z     vdW  Elec       q    Type
REMARK                         _______ _______ _______ _____ _____    ______ ____
ROOT
ATOM      1  C   LIG A   1      -8.085  -1.164 129.455  0.00  0.00    +0.012 C 
ATOM      2  C   LIG A   1      -7.493  -2.576 129.168  0.00  0.00    -0.025 C 
ATOM      3  C   LIG A   1      -8.564  -3.354 128.322  0.00  0.00    +0.011 C 
ATOM      4  C   LIG A   1      -8.308  -3.398 126.806  0.00  0.00    +0.046 C 
ATOM      5  C   LIG A   1      -7.721  -2.109 126.225  0.00  0.00    +0.182 C 
ATOM      6  C   LIG A   1      -6.202  -2.467 128.303  0.00  0.00    +0.004 C 
ATOM      7  C   LIG A   1      -6.349  -1.751 126.898  0.00  0.00    +0.005 C 
ATOM      8  C   LIG A   1      -5.231  -2.324 125.976  0.00  0.00    +0.015 C 
ATOM      9  C   LIG A   1      -6.101  -0.223 126.934  0.00  0.00    +0.015 C 
ATOM     10  C   LIG A   1      -5.065  -1.926 129.157  0.00  0.00    +0.005 C 
ATOM     11  C   LIG A   1      -4.583  -3.022 130.084  0.00  0.00    +0.008 C 
ATOM     12  C   LIG A   1      -5.665  -3.732 130.965  0.00  0.00    -0.019 C 
ATOM     13  C   LIG A   1      -5.473  -5.258 130.694  0.00  0.00    +0.012 C 
ATOM     14  C   LIG A   1      -7.220  -3.381 130.560  0.00  0.00    +0.006 C 
ATOM     15  C   LIG A   1      -8.045  -2.815 131.768  0.00  0.00    +0.031 C 
ATOM     16  C   LIG A   1      -7.249  -1.783 132.506  0.00  0.00    -0.026 C 
ATOM     17  C   LIG A   1      -5.941  -1.999 132.736  0.00  0.00    -0.063 C 
ATOM     18  C   LIG A   1      -5.376  -3.420 132.527  0.00  0.00    -0.005 C 
ATOM     19  C   LIG A   1      -6.105  -4.459 133.452  0.00  0.00    +0.016 C 
ATOM     20  C   LIG A   1      -3.862  -3.576 132.982  0.00  0.00    +0.012 C 
ATOM     21  C   LIG A   1      -3.057  -2.343 133.436  0.00  0.00    +0.019 C 
ATOM     22  C   LIG A   1      -3.899  -1.174 133.994  0.00  0.00    +0.074 C 
ATOM     23  C   LIG A   1      -4.939  -0.875 132.901  0.00  0.00    +0.033 C 
ATOM     24  C   LIG A   1      -5.406   0.593 132.921  0.00  0.00    +0.015 C 
ATOM     25  C   LIG A   1      -4.223   1.553 132.589  0.00  0.00    -0.034 C 
ATOM     26  C   LIG A   1      -2.858   0.976 133.051  0.00  0.00    +0.007 C 
ATOM     27  C   LIG A   1      -2.985   0.056 134.266  0.00  0.00    +0.019 C 
ATOM     28  C   LIG A   1      -4.482   2.912 133.263  0.00  0.00    +0.011 C 
ATOM     29  C   LIG A   1      -4.151   1.792 131.064  0.00  0.00    +0.011 C 
ENDROOT
BRANCH  22  30
ATOM     30  C   LIG A   1      -4.536  -1.576 135.327  0.00  0.00    +0.311 C 
ATOM     31  O   LIG A   1      -4.339  -2.603 135.951  0.00  0.00    -0.250 OA
BRANCH  30  32
ATOM     32  O   LIG A   1      -5.348  -0.634 135.848  0.00  0.00    -0.480 OA
ATOM     33  H   LIG A   1      -4.728   0.015 136.242  0.00  0.00    +0.295 HD
ENDBRANCH  30  32
ENDBRANCH  22  30
BRANCH   5  34
ATOM     34  O   LIG A   1      -8.670  -1.034 126.377  0.00  0.00    -0.461 OA
BRANCH  34  35
ATOM     35  C   LIG A   1      -9.224  -0.533 125.240  0.00  0.00    +0.304 C 
ATOM     36  C   LIG A   1      -9.588   0.907 125.444  0.00  0.00    +0.136 C 
ATOM     37  O   LIG A   1      -9.382  -1.141 124.192  0.00  0.00    -0.251 OA
ENDBRANCH  34  35
ENDBRANCH   5  34
TORSDOF 4
ENDMDL
MODEL 9
REMARK VINA RESULT:      -8.3      3.446      6.150
REMARK  Name = NuBBE_1037
REMARK  12 active torsions:
REMARK  status: ('A' for Active; 'I' for Inactive)
REMARK    1  A    between atoms: C_1  and  C_2
REMARK    2  A    between atoms: C_5  and  O_6
REMARK    3  A    between atoms: O_6  and  C_7
REMARK    4  A    between atoms: C_7  and  C_8
REMARK    5  A    between atoms: C_11  and  C_12
REMARK    6  A    between atoms: C_11  and  C_13
REMARK    7  A    between atoms: C_16  and  C_17
REMARK    8  A    between atoms: C_23  and  C_24
REMARK    9  A    between atoms: C_27  and  C_28
REMARK   10  A    between atoms: C_28  and  O_29
REMARK   11  A    between atoms: C_34  and  C_37
REMARK   12  A    between atoms: C_34  and  C_38
REMARK                            x       y       z     vdW  Elec       q    Type
REMARK                         _______ _______ _______ _____ _____    ______ ____
ROOT
ATOM      1  C   LIG A   1      -7.651   0.794 128.779  0.00  0.00    +0.012 C 
ATOM      2  C   LIG A   1      -7.184  -0.210 129.874  0.00  0.00    -0.025 C 
ATOM      3  C   LIG A   1      -8.270  -1.341 129.948  0.00  0.00    +0.011 C 
ATOM      4  C   LIG A   1      -7.926  -2.642 129.202  0.00  0.00    +0.046 C 
ATOM      5  C   LIG A   1      -7.181  -2.436 127.881  0.00  0.00    +0.182 C 
ATOM      6  C   LIG A   1      -5.837  -0.880 129.470  0.00  0.00    +0.004 C 
ATOM      7  C   LIG A   1      -5.825  -1.677 128.102  0.00  0.00    +0.005 C 
ATOM      8  C   LIG A   1      -4.713  -2.764 128.217  0.00  0.00    +0.015 C 
ATOM      9  C   LIG A   1      -5.430  -0.823 126.872  0.00  0.00    +0.015 C 
ATOM     10  C   LIG A   1      -4.707   0.131 129.608  0.00  0.00    +0.005 C 
ATOM     11  C   LIG A   1      -4.394   0.320 131.077  0.00  0.00    +0.008 C 
ATOM     12  C   LIG A   1      -5.593   0.680 132.017  0.00  0.00    -0.019 C 
ATOM     13  C   LIG A   1      -5.535  -0.372 133.170  0.00  0.00    +0.012 C 
ATOM     14  C   LIG A   1      -7.078   0.528 131.325  0.00  0.00    +0.006 C 
ATOM     15  C   LIG A   1      -7.917   1.852 131.403  0.00  0.00    +0.031 C 
ATOM     16  C   LIG A   1      -7.071   3.029 131.027  0.00  0.00    -0.026 C 
ATOM     17  C   LIG A   1      -5.807   3.106 131.484  0.00  0.00    -0.063 C 
ATOM     18  C   LIG A   1      -5.373   2.163 132.626  0.00  0.00    -0.005 C 
ATOM     19  C   LIG A   1      -6.257   2.382 133.906  0.00  0.00    +0.016 C 
ATOM     20  C   LIG A   1      -3.913   2.461 133.176  0.00  0.00    +0.012 C 
ATOM     21  C   LIG A   1      -3.020   3.508 132.482  0.00  0.00    +0.019 C 
ATOM     22  C   LIG A   1      -3.776   4.609 131.705  0.00  0.00    +0.074 C 
ATOM     23  C   LIG A   1      -4.712   3.850 130.748  0.00  0.00    +0.033 C 
ATOM     24  C   LIG A   1      -5.032   4.658 129.477  0.00  0.00    +0.015 C 
ATOM     25  C   LIG A   1      -3.743   4.896 128.634  0.00  0.00    -0.034 C 
ATOM     26  C   LIG A   1      -2.473   4.974 129.523  0.00  0.00    +0.007 C 
ATOM     27  C   LIG A   1      -2.765   5.500 130.928  0.00  0.00    +0.019 C 
ATOM     28  C   LIG A   1      -3.908   6.196 127.828  0.00  0.00    +0.011 C 
ATOM     29  C   LIG A   1      -3.552   3.741 127.625  0.00  0.00    +0.011 C 
ENDROOT
BRANCH  22  30
ATOM     30  C   LIG A   1      -4.532   5.515 132.681  0.00  0.00    +0.311 C 
ATOM     31  O   LIG A   1      -4.516   5.453 133.897  0.00  0.00    -0.250 OA
BRANCH  30  32
ATOM     32  O   LIG A   1      -5.224   6.503 132.080  0.00  0.00    -0.480 OA
ATOM     33  H   LIG A   1      -6.027   6.595 132.634  0.00  0.00    +0.295 HD
ENDBRANCH  30  32
ENDBRANCH  22  30
BRANCH   5  34
ATOM     34  O   LIG A   1      -8.027  -1.728 126.953  0.00  0.00    -0.461 OA
BRANCH  34  35
ATOM     35  C   LIG A   1      -8.685  -2.472 126.023  0.00  0.00    +0.304 C 
ATOM     36  C   LIG A   1      -7.709  -3.325 125.272  0.00  0.00    +0.136 C 
ATOM     37  O   LIG A   1      -9.893  -2.479 125.837  0.00  0.00    -0.251 OA
ENDBRANCH  34  35
ENDBRANCH   5  34
TORSDOF 4
ENDMDL
