MODEL 1
REMARK VINA RESULT:      -8.5      0.000      0.000
REMARK  Name = NuBBE_1438
REMARK  14 active torsions:
REMARK  status: ('A' for Active; 'I' for Inactive)
REMARK    1  A    between atoms: C_1  and  C_2
REMARK    2  A    between atoms: C_2  and  C_3
REMARK    3  A    between atoms: C_4  and  O_6
REMARK    4  A    between atoms: C_18  and  C_19
REMARK    5  A    between atoms: C_20  and  C_21
REMARK    6  A    between atoms: C_24  and  C_25
REMARK    7  A    between atoms: C_25  and  C_26
REMARK    8  A    between atoms: C_25  and  C_33
REMARK    9  A    between atoms: C_26  and  C_27
REMARK   10  A    between atoms: C_27  and  C_28
REMARK   11  A    between atoms: C_28  and  C_29
REMARK   12  A    between atoms: C_28  and  C_30
REMARK   13  A    between atoms: C_30  and  C_31
REMARK   14  A    between atoms: C_30  and  C_32
REMARK                            x       y       z     vdW  Elec       q    Type
REMARK                         _______ _______ _______ _____ _____    ______ ____
ROOT
ATOM      1  C   LIG A   1      -3.499   7.302 129.009  0.00  0.00    +0.014 C 
ATOM      2  C   LIG A   1      -3.014   6.255 130.047  0.00  0.00    -0.006 C 
ATOM      3  C   LIG A   1      -1.490   6.457 130.232  0.00  0.00    +0.014 C 
ATOM      4  C   LIG A   1      -3.707   6.517 131.412  0.00  0.00    +0.120 C 
ATOM      5  C   LIG A   1      -5.202   6.268 131.323  0.00  0.00    +0.032 C 
ATOM      6  C   LIG A   1      -5.443   4.810 131.026  0.00  0.00    +0.010 C 
ATOM      7  C   LIG A   1      -4.755   4.307 129.758  0.00  0.00    -0.019 C 
ATOM      8  C   LIG A   1      -5.061   2.827 129.610  0.00  0.00    +0.015 C 
ATOM      9  C   LIG A   1      -3.287   4.764 129.569  0.00  0.00    +0.004 C 
ATOM     10  C   LIG A   1      -2.708   4.533 128.144  0.00  0.00    +0.005 C 
ATOM     11  C   LIG A   1      -3.356   3.449 127.299  0.00  0.00    +0.005 C 
ATOM     12  C   LIG A   1      -4.872   3.673 127.179  0.00  0.00    +0.002 C 
ATOM     13  C   LIG A   1      -5.544   3.774 128.540  0.00  0.00    -0.019 C 
ATOM     14  C   LIG A   1      -7.015   4.152 128.467  0.00  0.00    +0.008 C 
ATOM     15  C   LIG A   1      -7.660   3.814 127.121  0.00  0.00    +0.008 C 
ATOM     16  C   LIG A   1      -7.149   2.466 126.520  0.00  0.00    -0.023 C 
ATOM     17  C   LIG A   1      -7.506   1.364 127.538  0.00  0.00    +0.012 C 
ATOM     18  C   LIG A   1      -5.604   2.642 126.221  0.00  0.00    -0.023 C 
ATOM     19  C   LIG A   1      -4.879   1.282 126.165  0.00  0.00    +0.012 C 
ATOM     20  C   LIG A   1      -5.618   3.256 124.794  0.00  0.00    +0.008 C 
ATOM     21  C   LIG A   1      -6.751   2.568 124.053  0.00  0.00    +0.005 C 
ATOM     22  C   LIG A   1      -7.832   2.263 125.104  0.00  0.00    -0.002 C 
ENDROOT
BRANCH   4  23
ATOM     23  O   LIG A   1      -3.529   7.857 131.863  0.00  0.00    -0.391 OA
ATOM     24  H   LIG A   1      -2.617   7.935 132.210  0.00  0.00    +0.210 HD
ENDBRANCH   4  23
BRANCH  22  25
ATOM     25  C   LIG A   1      -8.669   0.975 124.783  0.00  0.00    -0.010 C 
ATOM     26  C   LIG A   1     -10.020   1.404 124.174  0.00  0.00    +0.008 C 
BRANCH  25  27
ATOM     27  C   LIG A   1      -8.002  -0.083 123.860  0.00  0.00    +0.004 C 
BRANCH  27  28
ATOM     28  C   LIG A   1      -7.251  -1.177 124.643  0.00  0.00    +0.004 C 
BRANCH  28  29
ATOM     29  C   LIG A   1      -7.199  -2.563 123.952  0.00  0.00    -0.011 C 
ATOM     30  C   LIG A   1      -5.837  -3.244 124.127  0.00  0.00    +0.007 C 
BRANCH  29  31
ATOM     31  C   LIG A   1      -8.397  -3.450 124.418  0.00  0.00    -0.014 C 
ATOM     32  C   LIG A   1      -8.841  -3.137 125.850  0.00  0.00    +0.007 C 
ATOM     33  C   LIG A   1      -9.614  -3.400 123.487  0.00  0.00    +0.007 C 
ENDBRANCH  29  31
ENDBRANCH  28  29
ENDBRANCH  27  28
ENDBRANCH  25  27
ENDBRANCH  22  25
TORSDOF 6
ENDMDL
MODEL 2
REMARK VINA RESULT:      -8.4      4.941      8.766
REMARK  Name = NuBBE_1438
REMARK  14 active torsions:
REMARK  status: ('A' for Active; 'I' for Inactive)
REMARK    1  A    between atoms: C_1  and  C_2
REMARK    2  A    between atoms: C_2  and  C_3
REMARK    3  A    between atoms: C_4  and  O_6
REMARK    4  A    between atoms: C_18  and  C_19
REMARK    5  A    between atoms: C_20  and  C_21
REMARK    6  A    between atoms: C_24  and  C_25
REMARK    7  A    between atoms: C_25  and  C_26
REMARK    8  A    between atoms: C_25  and  C_33
REMARK    9  A    between atoms: C_26  and  C_27
REMARK   10  A    between atoms: C_27  and  C_28
REMARK   11  A    between atoms: C_28  and  C_29
REMARK   12  A    between atoms: C_28  and  C_30
REMARK   13  A    between atoms: C_30  and  C_31
REMARK   14  A    between atoms: C_30  and  C_32
REMARK                            x       y       z     vdW  Elec       q    Type
REMARK                         _______ _______ _______ _____ _____    ______ ____
ROOT
ATOM      1  C   LIG A   1      -5.400  -2.489 128.814  0.00  0.00    +0.014 C 
ATOM      2  C   LIG A   1      -5.357  -2.995 130.279  0.00  0.00    -0.006 C 
ATOM      3  C   LIG A   1      -5.949  -4.427 130.292  0.00  0.00    +0.014 C 
ATOM      4  C   LIG A   1      -3.882  -3.077 130.758  0.00  0.00    +0.120 C 
ATOM      5  C   LIG A   1      -3.256  -1.696 130.838  0.00  0.00    +0.032 C 
ATOM      6  C   LIG A   1      -3.973  -0.888 131.889  0.00  0.00    +0.010 C 
ATOM      7  C   LIG A   1      -5.479  -0.765 131.665  0.00  0.00    -0.019 C 
ATOM      8  C   LIG A   1      -6.063   0.040 132.812  0.00  0.00    +0.015 C 
ATOM      9  C   LIG A   1      -6.203  -2.073 131.259  0.00  0.00    +0.004 C 
ATOM     10  C   LIG A   1      -7.648  -1.881 130.716  0.00  0.00    +0.005 C 
ATOM     11  C   LIG A   1      -8.385  -0.620 131.135  0.00  0.00    +0.005 C 
ATOM     12  C   LIG A   1      -7.565   0.637 130.799  0.00  0.00    +0.002 C 
ATOM     13  C   LIG A   1      -6.174   0.592 131.413  0.00  0.00    -0.019 C 
ATOM     14  C   LIG A   1      -5.278   1.741 130.975  0.00  0.00    +0.008 C 
ATOM     15  C   LIG A   1      -6.058   2.968 130.498  0.00  0.00    +0.008 C 
ATOM     16  C   LIG A   1      -7.350   3.234 131.334  0.00  0.00    -0.023 C 
ATOM     17  C   LIG A   1      -6.896   3.464 132.790  0.00  0.00    +0.012 C 
ATOM     18  C   LIG A   1      -8.316   1.999 131.109  0.00  0.00    -0.023 C 
ATOM     19  C   LIG A   1      -9.332   1.858 132.261  0.00  0.00    +0.012 C 
ATOM     20  C   LIG A   1      -9.080   2.417 129.822  0.00  0.00    +0.008 C 
ATOM     21  C   LIG A   1      -9.311   3.913 129.939  0.00  0.00    +0.005 C 
ATOM     22  C   LIG A   1      -8.102   4.479 130.703  0.00  0.00    -0.002 C 
ENDROOT
BRANCH   4  23
ATOM     23  O   LIG A   1      -3.070  -3.858 129.886  0.00  0.00    -0.391 OA
ATOM     24  H   LIG A   1      -3.588  -4.032 129.074  0.00  0.00    +0.210 HD
ENDBRANCH   4  23
BRANCH  22  25
ATOM     25  C   LIG A   1      -8.445   5.743 131.566  0.00  0.00    -0.010 C 
ATOM     26  C   LIG A   1      -7.546   6.911 131.110  0.00  0.00    +0.008 C 
BRANCH  25  27
ATOM     27  C   LIG A   1      -9.928   6.209 131.571  0.00  0.00    +0.004 C 
BRANCH  27  28
ATOM     28  C   LIG A   1     -10.267   7.152 130.401  0.00  0.00    +0.004 C 
BRANCH  28  29
ATOM     29  C   LIG A   1     -11.769   7.228 130.029  0.00  0.00    -0.011 C 
ATOM     30  C   LIG A   1     -12.662   7.382 131.265  0.00  0.00    +0.007 C 
BRANCH  29  31
ATOM     31  C   LIG A   1     -12.009   8.335 128.953  0.00  0.00    -0.014 C 
ATOM     32  C   LIG A   1     -10.827   8.489 127.990  0.00  0.00    +0.007 C 
ATOM     33  C   LIG A   1     -13.300   8.155 128.146  0.00  0.00    +0.007 C 
ENDBRANCH  29  31
ENDBRANCH  28  29
ENDBRANCH  27  28
ENDBRANCH  25  27
ENDBRANCH  22  25
TORSDOF 6
ENDMDL
MODEL 3
REMARK VINA RESULT:      -8.4      5.458      7.215
REMARK  Name = NuBBE_1438
REMARK  14 active torsions:
REMARK  status: ('A' for Active; 'I' for Inactive)
REMARK    1  A    between atoms: C_1  and  C_2
REMARK    2  A    between atoms: C_2  and  C_3
REMARK    3  A    between atoms: C_4  and  O_6
REMARK    4  A    between atoms: C_18  and  C_19
REMARK    5  A    between atoms: C_20  and  C_21
REMARK    6  A    between atoms: C_24  and  C_25
REMARK    7  A    between atoms: C_25  and  C_26
REMARK    8  A    between atoms: C_25  and  C_33
REMARK    9  A    between atoms: C_26  and  C_27
REMARK   10  A    between atoms: C_27  and  C_28
REMARK   11  A    between atoms: C_28  and  C_29
REMARK   12  A    between atoms: C_28  and  C_30
REMARK   13  A    between atoms: C_30  and  C_31
REMARK   14  A    between atoms: C_30  and  C_32
REMARK                            x       y       z     vdW  Elec       q    Type
REMARK                         _______ _______ _______ _____ _____    ______ ____
ROOT
ATOM      1  C   LIG A   1      -3.096  -4.282 133.333  0.00  0.00    +0.014 C 
ATOM      2  C   LIG A   1      -4.476  -4.582 133.975  0.00  0.00    -0.006 C 
ATOM      3  C   LIG A   1      -4.474  -6.072 134.400  0.00  0.00    +0.014 C 
ATOM      4  C   LIG A   1      -4.655  -3.716 135.251  0.00  0.00    +0.120 C 
ATOM      5  C   LIG A   1      -4.736  -2.239 134.902  0.00  0.00    +0.032 C 
ATOM      6  C   LIG A   1      -5.972  -1.995 134.075  0.00  0.00    +0.010 C 
ATOM      7  C   LIG A   1      -6.051  -2.836 132.802  0.00  0.00    -0.019 C 
ATOM      8  C   LIG A   1      -7.355  -2.506 132.098  0.00  0.00    +0.015 C 
ATOM      9  C   LIG A   1      -5.677  -4.330 132.966  0.00  0.00    +0.004 C 
ATOM     10  C   LIG A   1      -5.438  -5.095 131.632  0.00  0.00    +0.005 C 
ATOM     11  C   LIG A   1      -6.100  -4.536 130.383  0.00  0.00    +0.005 C 
ATOM     12  C   LIG A   1      -5.727  -3.059 130.173  0.00  0.00    +0.002 C 
ATOM     13  C   LIG A   1      -6.058  -2.208 131.390  0.00  0.00    -0.019 C 
ATOM     14  C   LIG A   1      -5.561  -0.774 131.284  0.00  0.00    +0.008 C 
ATOM     15  C   LIG A   1      -5.352  -0.313 129.840  0.00  0.00    +0.008 C 
ATOM     16  C   LIG A   1      -6.439  -0.857 128.861  0.00  0.00    -0.023 C 
ATOM     17  C   LIG A   1      -7.796  -0.326 129.365  0.00  0.00    +0.012 C 
ATOM     18  C   LIG A   1      -6.294  -2.434 128.830  0.00  0.00    -0.023 C 
ATOM     19  C   LIG A   1      -7.601  -3.115 128.375  0.00  0.00    +0.012 C 
ATOM     20  C   LIG A   1      -5.219  -2.639 127.728  0.00  0.00    +0.008 C 
ATOM     21  C   LIG A   1      -5.509  -1.598 126.661  0.00  0.00    +0.005 C 
ATOM     22  C   LIG A   1      -6.076  -0.372 127.396  0.00  0.00    -0.002 C 
ENDROOT
BRANCH   4  23
ATOM     23  O   LIG A   1      -3.578  -3.872 136.171  0.00  0.00    -0.391 OA
ATOM     24  H   LIG A   1      -3.859  -3.485 137.025  0.00  0.00    +0.210 HD
ENDBRANCH   4  23
BRANCH  22  25
ATOM     25  C   LIG A   1      -7.097   0.453 126.537  0.00  0.00    -0.010 C 
ATOM     26  C   LIG A   1      -6.309   1.358 125.567  0.00  0.00    +0.008 C 
BRANCH  25  27
ATOM     27  C   LIG A   1      -8.157  -0.355 125.738  0.00  0.00    +0.004 C 
BRANCH  27  28
ATOM     28  C   LIG A   1      -8.039  -0.163 124.214  0.00  0.00    +0.004 C 
BRANCH  28  29
ATOM     29  C   LIG A   1      -7.784  -1.458 123.404  0.00  0.00    -0.011 C 
ATOM     30  C   LIG A   1      -6.303  -1.636 123.051  0.00  0.00    +0.007 C 
BRANCH  29  31
ATOM     31  C   LIG A   1      -8.395  -2.692 124.144  0.00  0.00    -0.014 C 
ATOM     32  C   LIG A   1      -9.617  -3.268 123.421  0.00  0.00    +0.007 C 
ATOM     33  C   LIG A   1      -7.391  -3.818 124.419  0.00  0.00    +0.007 C 
ENDBRANCH  29  31
ENDBRANCH  28  29
ENDBRANCH  27  28
ENDBRANCH  25  27
ENDBRANCH  22  25
TORSDOF 6
ENDMDL
MODEL 4
REMARK VINA RESULT:      -8.3      4.780      8.470
REMARK  Name = NuBBE_1438
REMARK  14 active torsions:
REMARK  status: ('A' for Active; 'I' for Inactive)
REMARK    1  A    between atoms: C_1  and  C_2
REMARK    2  A    between atoms: C_2  and  C_3
REMARK    3  A    between atoms: C_4  and  O_6
REMARK    4  A    between atoms: C_18  and  C_19
REMARK    5  A    between atoms: C_20  and  C_21
REMARK    6  A    between atoms: C_24  and  C_25
REMARK    7  A    between atoms: C_25  and  C_26
REMARK    8  A    between atoms: C_25  and  C_33
REMARK    9  A    between atoms: C_26  and  C_27
REMARK   10  A    between atoms: C_27  and  C_28
REMARK   11  A    between atoms: C_28  and  C_29
REMARK   12  A    between atoms: C_28  and  C_30
REMARK   13  A    between atoms: C_30  and  C_31
REMARK   14  A    between atoms: C_30  and  C_32
REMARK                            x       y       z     vdW  Elec       q    Type
REMARK                         _______ _______ _______ _____ _____    ______ ____
ROOT
ATOM      1  C   LIG A   1      -4.638  -2.202 131.732  0.00  0.00    +0.014 C 
ATOM      2  C   LIG A   1      -4.889  -2.473 130.225  0.00  0.00    -0.006 C 
ATOM      3  C   LIG A   1      -3.539  -2.903 129.600  0.00  0.00    +0.014 C 
ATOM      4  C   LIG A   1      -5.891  -3.649 130.070  0.00  0.00    +0.120 C 
ATOM      5  C   LIG A   1      -7.264  -3.273 130.600  0.00  0.00    +0.032 C 
ATOM      6  C   LIG A   1      -7.827  -2.153 129.762  0.00  0.00    +0.010 C 
ATOM      7  C   LIG A   1      -6.937  -0.914 129.693  0.00  0.00    -0.019 C 
ATOM      8  C   LIG A   1      -7.615   0.105 128.794  0.00  0.00    +0.015 C 
ATOM      9  C   LIG A   1      -5.429  -1.187 129.465  0.00  0.00    +0.004 C 
ATOM     10  C   LIG A   1      -4.497   0.032 129.724  0.00  0.00    +0.005 C 
ATOM     11  C   LIG A   1      -5.116   1.415 129.616  0.00  0.00    +0.005 C 
ATOM     12  C   LIG A   1      -6.350   1.542 130.525  0.00  0.00    +0.002 C 
ATOM     13  C   LIG A   1      -7.382   0.461 130.241  0.00  0.00    -0.019 C 
ATOM     14  C   LIG A   1      -8.544   0.455 131.223  0.00  0.00    +0.008 C 
ATOM     15  C   LIG A   1      -8.757   1.803 131.914  0.00  0.00    +0.008 C 
ATOM     16  C   LIG A   1      -8.516   3.021 130.968  0.00  0.00    -0.023 C 
ATOM     17  C   LIG A   1      -9.523   2.888 129.809  0.00  0.00    +0.012 C 
ATOM     18  C   LIG A   1      -6.988   2.993 130.549  0.00  0.00    -0.023 C 
ATOM     19  C   LIG A   1      -6.748   3.759 129.231  0.00  0.00    +0.012 C 
ATOM     20  C   LIG A   1      -6.320   3.781 131.709  0.00  0.00    +0.008 C 
ATOM     21  C   LIG A   1      -7.283   4.900 132.065  0.00  0.00    +0.005 C 
ATOM     22  C   LIG A   1      -8.697   4.350 131.813  0.00  0.00    -0.002 C 
ENDROOT
BRANCH   4  23
ATOM     23  O   LIG A   1      -5.474  -4.816 130.773  0.00  0.00    -0.391 OA
ATOM     24  H   LIG A   1      -6.146  -5.511 130.621  0.00  0.00    +0.210 HD
ENDBRANCH   4  23
BRANCH  22  25
ATOM     25  C   LIG A   1      -9.727   5.452 131.381  0.00  0.00    -0.010 C 
ATOM     26  C   LIG A   1     -10.274   6.139 132.650  0.00  0.00    +0.008 C 
BRANCH  25  27
ATOM     27  C   LIG A   1      -9.222   6.536 130.389  0.00  0.00    +0.004 C 
BRANCH  27  28
ATOM     28  C   LIG A   1     -10.016   6.562 129.069  0.00  0.00    +0.004 C 
BRANCH  28  29
ATOM     29  C   LIG A   1     -10.814   7.864 128.806  0.00  0.00    -0.011 C 
ATOM     30  C   LIG A   1     -10.901   8.196 127.313  0.00  0.00    +0.007 C 
BRANCH  29  31
ATOM     31  C   LIG A   1     -12.210   7.797 129.505  0.00  0.00    -0.014 C 
ATOM     32  C   LIG A   1     -12.804   9.184 129.770  0.00  0.00    +0.007 C 
ATOM     33  C   LIG A   1     -13.241   6.936 128.766  0.00  0.00    +0.007 C 
ENDBRANCH  29  31
ENDBRANCH  28  29
ENDBRANCH  27  28
ENDBRANCH  25  27
ENDBRANCH  22  25
TORSDOF 6
ENDMDL
MODEL 5
REMARK VINA RESULT:      -8.1      5.221      9.530
REMARK  Name = NuBBE_1438
REMARK  14 active torsions:
REMARK  status: ('A' for Active; 'I' for Inactive)
REMARK    1  A    between atoms: C_1  and  C_2
REMARK    2  A    between atoms: C_2  and  C_3
REMARK    3  A    between atoms: C_4  and  O_6
REMARK    4  A    between atoms: C_18  and  C_19
REMARK    5  A    between atoms: C_20  and  C_21
REMARK    6  A    between atoms: C_24  and  C_25
REMARK    7  A    between atoms: C_25  and  C_26
REMARK    8  A    between atoms: C_25  and  C_33
REMARK    9  A    between atoms: C_26  and  C_27
REMARK   10  A    between atoms: C_27  and  C_28
REMARK   11  A    between atoms: C_28  and  C_29
REMARK   12  A    between atoms: C_28  and  C_30
REMARK   13  A    between atoms: C_30  and  C_31
REMARK   14  A    between atoms: C_30  and  C_32
REMARK                            x       y       z     vdW  Elec       q    Type
REMARK                         _______ _______ _______ _____ _____    ______ ____
ROOT
ATOM      1  C   LIG A   1      -6.477  -3.462 124.026  0.00  0.00    +0.014 C 
ATOM      2  C   LIG A   1      -7.223  -2.102 124.029  0.00  0.00    -0.006 C 
ATOM      3  C   LIG A   1      -6.667  -1.265 122.850  0.00  0.00    +0.014 C 
ATOM      4  C   LIG A   1      -8.737  -2.339 123.782  0.00  0.00    +0.120 C 
ATOM      5  C   LIG A   1      -9.368  -3.097 124.937  0.00  0.00    +0.032 C 
ATOM      6  C   LIG A   1      -9.294  -2.249 126.182  0.00  0.00    +0.010 C 
ATOM      7  C   LIG A   1      -7.880  -1.809 126.557  0.00  0.00    -0.019 C 
ATOM      8  C   LIG A   1      -7.969  -0.943 127.801  0.00  0.00    +0.015 C 
ATOM      9  C   LIG A   1      -7.006  -1.300 125.384  0.00  0.00    +0.004 C 
ATOM     10  C   LIG A   1      -5.490  -1.171 125.705  0.00  0.00    +0.005 C 
ATOM     11  C   LIG A   1      -5.101  -1.003 127.165  0.00  0.00    +0.005 C 
ATOM     12  C   LIG A   1      -5.689  -2.132 128.028  0.00  0.00    +0.002 C 
ATOM     13  C   LIG A   1      -7.199  -2.237 127.877  0.00  0.00    -0.019 C 
ATOM     14  C   LIG A   1      -7.799  -3.440 128.590  0.00  0.00    +0.008 C 
ATOM     15  C   LIG A   1      -6.928  -3.960 129.735  0.00  0.00    +0.008 C 
ATOM     16  C   LIG A   1      -6.230  -2.818 130.540  0.00  0.00    -0.023 C 
ATOM     17  C   LIG A   1      -7.353  -1.938 131.125  0.00  0.00    +0.012 C 
ATOM     18  C   LIG A   1      -5.238  -2.084 129.547  0.00  0.00    -0.023 C 
ATOM     19  C   LIG A   1      -4.922  -0.650 130.019  0.00  0.00    +0.012 C 
ATOM     20  C   LIG A   1      -3.952  -2.945 129.681  0.00  0.00    +0.008 C 
ATOM     21  C   LIG A   1      -3.860  -3.337 131.145  0.00  0.00    +0.005 C 
ATOM     22  C   LIG A   1      -5.307  -3.481 131.645  0.00  0.00    -0.002 C 
ENDROOT
BRANCH   4  23
ATOM     23  O   LIG A   1      -8.983  -3.095 122.599  0.00  0.00    -0.391 OA
ATOM     24  H   LIG A   1      -9.351  -2.485 121.928  0.00  0.00    +0.210 HD
ENDBRANCH   4  23
BRANCH  22  25
ATOM     25  C   LIG A   1      -5.481  -3.131 133.165  0.00  0.00    -0.010 C 
ATOM     26  C   LIG A   1      -6.327  -4.235 133.832  0.00  0.00    +0.008 C 
BRANCH  25  27
ATOM     27  C   LIG A   1      -4.181  -2.914 133.988  0.00  0.00    +0.004 C 
BRANCH  27  28
ATOM     28  C   LIG A   1      -4.178  -1.588 134.772  0.00  0.00    +0.004 C 
BRANCH  28  29
ATOM     29  C   LIG A   1      -3.144  -0.540 134.291  0.00  0.00    -0.011 C 
ATOM     30  C   LIG A   1      -1.857  -1.195 133.775  0.00  0.00    +0.007 C 
BRANCH  29  31
ATOM     31  C   LIG A   1      -3.796   0.437 133.261  0.00  0.00    -0.014 C 
ATOM     32  C   LIG A   1      -5.278   0.696 133.549  0.00  0.00    +0.007 C 
ATOM     33  C   LIG A   1      -3.064   1.777 133.120  0.00  0.00    +0.007 C 
ENDBRANCH  29  31
ENDBRANCH  28  29
ENDBRANCH  27  28
ENDBRANCH  25  27
ENDBRANCH  22  25
TORSDOF 6
ENDMDL
MODEL 6
REMARK VINA RESULT:      -8.1      3.681      8.642
REMARK  Name = NuBBE_1438
REMARK  14 active torsions:
REMARK  status: ('A' for Active; 'I' for Inactive)
REMARK    1  A    between atoms: C_1  and  C_2
REMARK    2  A    between atoms: C_2  and  C_3
REMARK    3  A    between atoms: C_4  and  O_6
REMARK    4  A    between atoms: C_18  and  C_19
REMARK    5  A    between atoms: C_20  and  C_21
REMARK    6  A    between atoms: C_24  and  C_25
REMARK    7  A    between atoms: C_25  and  C_26
REMARK    8  A    between atoms: C_25  and  C_33
REMARK    9  A    between atoms: C_26  and  C_27
REMARK   10  A    between atoms: C_27  and  C_28
REMARK   11  A    between atoms: C_28  and  C_29
REMARK   12  A    between atoms: C_28  and  C_30
REMARK   13  A    between atoms: C_30  and  C_31
REMARK   14  A    between atoms: C_30  and  C_32
REMARK                            x       y       z     vdW  Elec       q    Type
REMARK                         _______ _______ _______ _____ _____    ______ ____
ROOT
ATOM      1  C   LIG A   1      -5.455  -1.816 124.929  0.00  0.00    +0.014 C 
ATOM      2  C   LIG A   1      -6.829  -1.628 124.235  0.00  0.00    -0.006 C 
ATOM      3  C   LIG A   1      -6.578  -1.613 122.707  0.00  0.00    +0.014 C 
ATOM      4  C   LIG A   1      -7.746  -2.838 124.562  0.00  0.00    +0.120 C 
ATOM      5  C   LIG A   1      -8.093  -2.877 126.041  0.00  0.00    +0.032 C 
ATOM      6  C   LIG A   1      -8.904  -1.655 126.389  0.00  0.00    +0.010 C 
ATOM      7  C   LIG A   1      -8.221  -0.332 126.049  0.00  0.00    -0.019 C 
ATOM      8  C   LIG A   1      -9.164   0.797 126.423  0.00  0.00    +0.015 C 
ATOM      9  C   LIG A   1      -7.538  -0.271 124.660  0.00  0.00    +0.004 C 
ATOM     10  C   LIG A   1      -6.575   0.934 124.455  0.00  0.00    +0.005 C 
ATOM     11  C   LIG A   1      -6.805   2.161 125.322  0.00  0.00    +0.005 C 
ATOM     12  C   LIG A   1      -6.814   1.790 126.815  0.00  0.00    +0.002 C 
ATOM     13  C   LIG A   1      -7.834   0.705 127.127  0.00  0.00    -0.019 C 
ATOM     14  C   LIG A   1      -7.764   0.199 128.561  0.00  0.00    +0.008 C 
ATOM     15  C   LIG A   1      -7.130   1.203 129.525  0.00  0.00    +0.008 C 
ATOM     16  C   LIG A   1      -7.526   2.682 129.217  0.00  0.00    -0.023 C 
ATOM     17  C   LIG A   1      -9.060   2.765 129.345  0.00  0.00    +0.012 C 
ATOM     18  C   LIG A   1      -6.941   3.035 127.788  0.00  0.00    -0.023 C 
ATOM     19  C   LIG A   1      -7.702   4.209 127.139  0.00  0.00    +0.012 C 
ATOM     20  C   LIG A   1      -5.503   3.508 128.136  0.00  0.00    +0.008 C 
ATOM     21  C   LIG A   1      -5.619   4.284 129.435  0.00  0.00    +0.005 C 
ATOM     22  C   LIG A   1      -6.756   3.624 130.233  0.00  0.00    -0.002 C 
ENDROOT
BRANCH   4  23
ATOM     23  O   LIG A   1      -7.136  -4.086 124.241  0.00  0.00    -0.391 OA
ATOM     24  H   LIG A   1      -6.668  -4.402 125.040  0.00  0.00    +0.210 HD
ENDBRANCH   4  23
BRANCH  22  25
ATOM     25  C   LIG A   1      -7.532   4.625 131.160  0.00  0.00    -0.010 C 
ATOM     26  C   LIG A   1      -6.795   4.718 132.512  0.00  0.00    +0.008 C 
BRANCH  25  27
ATOM     27  C   LIG A   1      -7.767   6.058 130.605  0.00  0.00    +0.004 C 
BRANCH  27  28
ATOM     28  C   LIG A   1      -8.979   6.760 131.245  0.00  0.00    +0.004 C 
BRANCH  28  29
ATOM     29  C   LIG A   1     -10.336   6.505 130.543  0.00  0.00    -0.011 C 
ATOM     30  C   LIG A   1     -11.477   6.306 131.547  0.00  0.00    +0.007 C 
BRANCH  29  31
ATOM     31  C   LIG A   1     -10.626   7.625 129.493  0.00  0.00    -0.014 C 
ATOM     32  C   LIG A   1     -10.463   7.138 128.050  0.00  0.00    +0.007 C 
ATOM     33  C   LIG A   1     -11.997   8.293 129.652  0.00  0.00    +0.007 C 
ENDBRANCH  29  31
ENDBRANCH  28  29
ENDBRANCH  27  28
ENDBRANCH  25  27
ENDBRANCH  22  25
TORSDOF 6
ENDMDL
MODEL 7
REMARK VINA RESULT:      -8.0      5.200      9.210
REMARK  Name = NuBBE_1438
REMARK  14 active torsions:
REMARK  status: ('A' for Active; 'I' for Inactive)
REMARK    1  A    between atoms: C_1  and  C_2
REMARK    2  A    between atoms: C_2  and  C_3
REMARK    3  A    between atoms: C_4  and  O_6
REMARK    4  A    between atoms: C_18  and  C_19
REMARK    5  A    between atoms: C_20  and  C_21
REMARK    6  A    between atoms: C_24  and  C_25
REMARK    7  A    between atoms: C_25  and  C_26
REMARK    8  A    between atoms: C_25  and  C_33
REMARK    9  A    between atoms: C_26  and  C_27
REMARK   10  A    between atoms: C_27  and  C_28
REMARK   11  A    between atoms: C_28  and  C_29
REMARK   12  A    between atoms: C_28  and  C_30
REMARK   13  A    between atoms: C_30  and  C_31
REMARK   14  A    between atoms: C_30  and  C_32
REMARK                            x       y       z     vdW  Elec       q    Type
REMARK                         _______ _______ _______ _____ _____    ______ ____
ROOT
ATOM      1  C   LIG A   1      -9.320  -1.117 124.952  0.00  0.00    +0.014 C 
ATOM      2  C   LIG A   1      -8.425  -2.346 124.640  0.00  0.00    -0.006 C 
ATOM      3  C   LIG A   1      -9.336  -3.439 124.027  0.00  0.00    +0.014 C 
ATOM      4  C   LIG A   1      -7.358  -1.956 123.581  0.00  0.00    +0.120 C 
ATOM      5  C   LIG A   1      -6.383  -0.935 124.138  0.00  0.00    +0.032 C 
ATOM      6  C   LIG A   1      -5.611  -1.557 125.274  0.00  0.00    +0.010 C 
ATOM      7  C   LIG A   1      -6.486  -2.109 126.398  0.00  0.00    -0.019 C 
ATOM      8  C   LIG A   1      -5.576  -2.729 127.444  0.00  0.00    +0.015 C 
ATOM      9  C   LIG A   1      -7.722  -2.924 125.942  0.00  0.00    +0.004 C 
ATOM     10  C   LIG A   1      -8.774  -3.195 127.056  0.00  0.00    +0.005 C 
ATOM     11  C   LIG A   1      -8.286  -3.160 128.495  0.00  0.00    +0.005 C 
ATOM     12  C   LIG A   1      -7.577  -1.832 128.806  0.00  0.00    +0.002 C 
ATOM     13  C   LIG A   1      -6.435  -1.554 127.839  0.00  0.00    -0.019 C 
ATOM     14  C   LIG A   1      -5.810  -0.178 128.014  0.00  0.00    +0.008 C 
ATOM     15  C   LIG A   1      -6.028   0.411 129.409  0.00  0.00    +0.008 C 
ATOM     16  C   LIG A   1      -5.942  -0.658 130.545  0.00  0.00    -0.023 C 
ATOM     17  C   LIG A   1      -4.527  -1.267 130.474  0.00  0.00    +0.012 C 
ATOM     18  C   LIG A   1      -7.134  -1.676 130.321  0.00  0.00    -0.023 C 
ATOM     19  C   LIG A   1      -6.850  -3.037 130.990  0.00  0.00    +0.012 C 
ATOM     20  C   LIG A   1      -8.298  -0.983 131.081  0.00  0.00    +0.008 C 
ATOM     21  C   LIG A   1      -7.679  -0.360 132.319  0.00  0.00    +0.005 C 
ATOM     22  C   LIG A   1      -6.252   0.058 131.925  0.00  0.00    -0.002 C 
ENDROOT
BRANCH   4  23
ATOM     23  O   LIG A   1      -7.937  -1.389 122.409  0.00  0.00    -0.391 OA
ATOM     24  H   LIG A   1      -8.174  -2.126 121.809  0.00  0.00    +0.210 HD
ENDBRANCH   4  23
BRANCH  22  25
ATOM     25  C   LIG A   1      -5.233   0.001 133.117  0.00  0.00    -0.010 C 
ATOM     26  C   LIG A   1      -4.427   1.316 133.140  0.00  0.00    +0.008 C 
BRANCH  25  27
ATOM     27  C   LIG A   1      -5.820  -0.266 134.531  0.00  0.00    +0.004 C 
BRANCH  27  28
ATOM     28  C   LIG A   1      -5.399  -1.629 135.111  0.00  0.00    +0.004 C 
BRANCH  28  29
ATOM     29  C   LIG A   1      -5.686  -2.849 134.201  0.00  0.00    -0.011 C 
ATOM     30  C   LIG A   1      -4.405  -3.602 133.824  0.00  0.00    +0.007 C 
BRANCH  29  31
ATOM     31  C   LIG A   1      -6.773  -3.767 134.846  0.00  0.00    -0.014 C 
ATOM     32  C   LIG A   1      -8.192  -3.409 134.394  0.00  0.00    +0.007 C 
ATOM     33  C   LIG A   1      -6.536  -5.266 134.632  0.00  0.00    +0.007 C 
ENDBRANCH  29  31
ENDBRANCH  28  29
ENDBRANCH  27  28
ENDBRANCH  25  27
ENDBRANCH  22  25
TORSDOF 6
ENDMDL
MODEL 8
REMARK VINA RESULT:      -7.9      2.622      3.833
REMARK  Name = NuBBE_1438
REMARK  14 active torsions:
REMARK  status: ('A' for Active; 'I' for Inactive)
REMARK    1  A    between atoms: C_1  and  C_2
REMARK    2  A    between atoms: C_2  and  C_3
REMARK    3  A    between atoms: C_4  and  O_6
REMARK    4  A    between atoms: C_18  and  C_19
REMARK    5  A    between atoms: C_20  and  C_21
REMARK    6  A    between atoms: C_24  and  C_25
REMARK    7  A    between atoms: C_25  and  C_26
REMARK    8  A    between atoms: C_25  and  C_33
REMARK    9  A    between atoms: C_26  and  C_27
REMARK   10  A    between atoms: C_27  and  C_28
REMARK   11  A    between atoms: C_28  and  C_29
REMARK   12  A    between atoms: C_28  and  C_30
REMARK   13  A    between atoms: C_30  and  C_31
REMARK   14  A    between atoms: C_30  and  C_32
REMARK                            x       y       z     vdW  Elec       q    Type
REMARK                         _______ _______ _______ _____ _____    ______ ____
ROOT
ATOM      1  C   LIG A   1      -6.963   5.968 132.880  0.00  0.00    +0.014 C 
ATOM      2  C   LIG A   1      -6.710   4.804 133.874  0.00  0.00    -0.006 C 
ATOM      3  C   LIG A   1      -5.595   5.260 134.848  0.00  0.00    +0.014 C 
ATOM      4  C   LIG A   1      -7.997   4.538 134.702  0.00  0.00    +0.120 C 
ATOM      5  C   LIG A   1      -9.118   4.018 133.819  0.00  0.00    +0.032 C 
ATOM      6  C   LIG A   1      -8.720   2.678 133.256  0.00  0.00    +0.010 C 
ATOM      7  C   LIG A   1      -7.406   2.689 132.477  0.00  0.00    -0.019 C 
ATOM      8  C   LIG A   1      -7.124   1.274 132.004  0.00  0.00    +0.015 C 
ATOM      9  C   LIG A   1      -6.246   3.474 133.138  0.00  0.00    +0.004 C 
ATOM     10  C   LIG A   1      -5.035   3.761 132.205  0.00  0.00    +0.005 C 
ATOM     11  C   LIG A   1      -4.840   2.836 131.016  0.00  0.00    +0.005 C 
ATOM     12  C   LIG A   1      -6.113   2.764 130.155  0.00  0.00    +0.002 C 
ATOM     13  C   LIG A   1      -7.330   2.352 130.971  0.00  0.00    -0.019 C 
ATOM     14  C   LIG A   1      -8.635   2.423 130.193  0.00  0.00    +0.008 C 
ATOM     15  C   LIG A   1      -8.442   2.334 128.678  0.00  0.00    +0.008 C 
ATOM     16  C   LIG A   1      -7.316   1.334 128.263  0.00  0.00    -0.023 C 
ATOM     17  C   LIG A   1      -7.734  -0.050 128.797  0.00  0.00    +0.012 C 
ATOM     18  C   LIG A   1      -5.952   1.901 128.835  0.00  0.00    -0.023 C 
ATOM     19  C   LIG A   1      -4.896   0.787 128.989  0.00  0.00    +0.012 C 
ATOM     20  C   LIG A   1      -5.499   2.860 127.700  0.00  0.00    +0.008 C 
ATOM     21  C   LIG A   1      -5.880   2.179 126.398  0.00  0.00    +0.005 C 
ATOM     22  C   LIG A   1      -7.165   1.384 126.685  0.00  0.00    -0.002 C 
ENDROOT
BRANCH   4  23
ATOM     23  O   LIG A   1      -8.481   5.714 135.347  0.00  0.00    -0.391 OA
ATOM     24  H   LIG A   1      -8.624   5.496 136.290  0.00  0.00    +0.210 HD
ENDBRANCH   4  23
BRANCH  22  25
ATOM     25  C   LIG A   1      -7.304   0.086 125.815  0.00  0.00    -0.010 C 
ATOM     26  C   LIG A   1      -7.680   0.495 124.376  0.00  0.00    +0.008 C 
BRANCH  25  27
ATOM     27  C   LIG A   1      -6.077  -0.867 125.774  0.00  0.00    +0.004 C 
BRANCH  27  28
ATOM     28  C   LIG A   1      -6.455  -2.346 125.980  0.00  0.00    +0.004 C 
BRANCH  28  29
ATOM     29  C   LIG A   1      -6.491  -3.202 124.689  0.00  0.00    -0.011 C 
ATOM     30  C   LIG A   1      -7.903  -3.298 124.100  0.00  0.00    +0.007 C 
BRANCH  29  31
ATOM     31  C   LIG A   1      -5.428  -2.691 123.665  0.00  0.00    -0.014 C 
ATOM     32  C   LIG A   1      -4.319  -3.715 123.404  0.00  0.00    +0.007 C 
ATOM     33  C   LIG A   1      -6.018  -2.229 122.328  0.00  0.00    +0.007 C 
ENDBRANCH  29  31
ENDBRANCH  28  29
ENDBRANCH  27  28
ENDBRANCH  25  27
ENDBRANCH  22  25
TORSDOF 6
ENDMDL
MODEL 9
REMARK VINA RESULT:      -7.8      4.336      6.873
REMARK  Name = NuBBE_1438
REMARK  14 active torsions:
REMARK  status: ('A' for Active; 'I' for Inactive)
REMARK    1  A    between atoms: C_1  and  C_2
REMARK    2  A    between atoms: C_2  and  C_3
REMARK    3  A    between atoms: C_4  and  O_6
REMARK    4  A    between atoms: C_18  and  C_19
REMARK    5  A    between atoms: C_20  and  C_21
REMARK    6  A    between atoms: C_24  and  C_25
REMARK    7  A    between atoms: C_25  and  C_26
REMARK    8  A    between atoms: C_25  and  C_33
REMARK    9  A    between atoms: C_26  and  C_27
REMARK   10  A    between atoms: C_27  and  C_28
REMARK   11  A    between atoms: C_28  and  C_29
REMARK   12  A    between atoms: C_28  and  C_30
REMARK   13  A    between atoms: C_30  and  C_31
REMARK   14  A    between atoms: C_30  and  C_32
REMARK                            x       y       z     vdW  Elec       q    Type
REMARK                         _______ _______ _______ _____ _____    ______ ____
ROOT
ATOM      1  C   LIG A   1      -6.891  -2.066 133.109  0.00  0.00    +0.014 C 
ATOM      2  C   LIG A   1      -5.381  -2.338 132.878  0.00  0.00    -0.006 C 
ATOM      3  C   LIG A   1      -4.596  -1.491 133.911  0.00  0.00    +0.014 C 
ATOM      4  C   LIG A   1      -5.075  -3.836 133.148  0.00  0.00    +0.120 C 
ATOM      5  C   LIG A   1      -5.760  -4.727 132.125  0.00  0.00    +0.032 C 
ATOM      6  C   LIG A   1      -5.188  -4.440 130.760  0.00  0.00    +0.010 C 
ATOM      7  C   LIG A   1      -5.292  -2.978 130.331  0.00  0.00    -0.019 C 
ATOM      8  C   LIG A   1      -4.650  -2.841 128.962  0.00  0.00    +0.015 C 
ATOM      9  C   LIG A   1      -4.915  -1.936 131.413  0.00  0.00    +0.004 C 
ATOM     10  C   LIG A   1      -5.335  -0.474 131.088  0.00  0.00    +0.005 C 
ATOM     11  C   LIG A   1      -5.532  -0.117 129.625  0.00  0.00    +0.005 C 
ATOM     12  C   LIG A   1      -6.531  -1.072 128.951  0.00  0.00    +0.002 C 
ATOM     13  C   LIG A   1      -6.119  -2.529 129.104  0.00  0.00    -0.019 C 
ATOM     14  C   LIG A   1      -7.159  -3.513 128.591  0.00  0.00    +0.008 C 
ATOM     15  C   LIG A   1      -8.105  -2.905 127.553  0.00  0.00    +0.008 C 
ATOM     16  C   LIG A   1      -7.391  -1.916 126.580  0.00  0.00    -0.023 C 
ATOM     17  C   LIG A   1      -6.299  -2.723 125.850  0.00  0.00    +0.012 C 
ATOM     18  C   LIG A   1      -6.870  -0.698 127.448  0.00  0.00    -0.023 C 
ATOM     19  C   LIG A   1      -5.708   0.039 126.753  0.00  0.00    +0.012 C 
ATOM     20  C   LIG A   1      -8.110   0.238 127.467  0.00  0.00    +0.008 C 
ATOM     21  C   LIG A   1      -8.735   0.135 126.088  0.00  0.00    +0.005 C 
ATOM     22  C   LIG A   1      -8.481  -1.303 125.605  0.00  0.00    -0.002 C 
ENDROOT
BRANCH   4  23
ATOM     23  O   LIG A   1      -5.516  -4.258 134.435  0.00  0.00    -0.391 OA
ATOM     24  H   LIG A   1      -5.335  -5.217 134.512  0.00  0.00    +0.210 HD
ENDBRANCH   4  23
BRANCH  22  25
ATOM     25  C   LIG A   1      -8.336  -1.423 124.047  0.00  0.00    -0.010 C 
ATOM     26  C   LIG A   1      -9.391  -2.423 123.529  0.00  0.00    +0.008 C 
BRANCH  25  27
ATOM     27  C   LIG A   1      -8.434  -0.105 123.230  0.00  0.00    +0.004 C 
BRANCH  27  28
ATOM     28  C   LIG A   1      -7.099   0.661 123.159  0.00  0.00    +0.004 C 
BRANCH  28  29
ATOM     29  C   LIG A   1      -7.228   2.198 123.021  0.00  0.00    -0.011 C 
ATOM     30  C   LIG A   1      -8.690   2.659 123.041  0.00  0.00    +0.007 C 
BRANCH  29  31
ATOM     31  C   LIG A   1      -6.339   2.918 124.085  0.00  0.00    -0.014 C 
ATOM     32  C   LIG A   1      -5.681   4.190 123.542  0.00  0.00    +0.007 C 
ATOM     33  C   LIG A   1      -7.068   3.242 125.394  0.00  0.00    +0.007 C 
ENDBRANCH  29  31
ENDBRANCH  28  29
ENDBRANCH  27  28
ENDBRANCH  25  27
ENDBRANCH  22  25
TORSDOF 6
ENDMDL
