MODEL 1
REMARK VINA RESULT:      -8.8      0.000      0.000
REMARK  Name = NuBBE_1355
REMARK  14 active torsions:
REMARK  status: ('A' for Active; 'I' for Inactive)
REMARK    1  A    between atoms: C_1  and  C_2
REMARK    2  A    between atoms: C_2  and  C_3
REMARK    3  A    between atoms: C_4  and  O_6
REMARK    4  A    between atoms: O_6  and  C_7
REMARK    5  A    between atoms: C_7  and  C_8
REMARK    6  A    between atoms: C_12  and  C_13
REMARK    7  A    between atoms: C_17  and  C_18
REMARK    8  A    between atoms: C_23  and  C_24
REMARK    9  A    between atoms: C_26  and  O_28
REMARK   10  A    between atoms: O_28  and  C_29
REMARK   11  A    between atoms: C_29  and  C_30
REMARK   12  A    between atoms: C_32  and  C_33
REMARK   13  A    between atoms: C_35  and  C_37
REMARK   14  A    between atoms: C_38  and  C_40
REMARK                            x       y       z     vdW  Elec       q    Type
REMARK                         _______ _______ _______ _____ _____    ______ ____
ROOT
ATOM      1  C   LIG A   1      -7.591   3.301 133.874  0.00  0.00    +0.015 C 
ATOM      2  C   LIG A   1      -6.162   3.049 133.337  0.00  0.00    +0.006 C 
ATOM      3  C   LIG A   1      -5.307   4.126 134.082  0.00  0.00    +0.015 C 
ATOM      4  C   LIG A   1      -5.665   1.640 133.781  0.00  0.00    +0.182 C 
ATOM      5  C   LIG A   1      -4.228   1.341 133.322  0.00  0.00    +0.046 C 
ATOM      6  C   LIG A   1      -3.759   2.125 132.099  0.00  0.00    +0.015 C 
ATOM      7  C   LIG A   1      -4.867   2.437 131.058  0.00  0.00    -0.007 C 
ATOM      8  C   LIG A   1      -4.173   3.362 130.009  0.00  0.00    +0.016 C 
ATOM      9  C   LIG A   1      -6.024   3.262 131.755  0.00  0.00    +0.008 C 
ATOM     10  C   LIG A   1      -7.355   3.276 130.949  0.00  0.00    +0.006 C 
ATOM     11  C   LIG A   1      -7.323   2.610 129.564  0.00  0.00    +0.012 C 
ATOM     12  C   LIG A   1      -6.729   1.179 129.593  0.00  0.00    -0.001 C 
ATOM     13  C   LIG A   1      -7.701   0.329 130.437  0.00  0.00    +0.016 C 
ATOM     14  C   LIG A   1      -5.346   1.176 130.300  0.00  0.00    -0.057 C 
ATOM     15  C   LIG A   1      -4.550   0.098 130.093  0.00  0.00    +0.000 C 
ATOM     16  C   LIG A   1      -4.943  -1.012 129.252  0.00  0.00    +0.000 C 
ATOM     17  C   LIG A   1      -5.906  -0.888 128.314  0.00  0.00    -0.059 C 
ATOM     18  C   LIG A   1      -6.550   0.505 128.135  0.00  0.00    +0.002 C 
ATOM     19  C   LIG A   1      -5.630   1.438 127.282  0.00  0.00    +0.017 C 
ATOM     20  C   LIG A   1      -7.868   0.299 127.369  0.00  0.00    +0.057 C 
ATOM     21  C   LIG A   1      -7.653  -0.353 125.986  0.00  0.00    +0.184 C 
ATOM     22  C   LIG A   1      -6.765  -1.665 126.001  0.00  0.00    +0.012 C 
ATOM     23  C   LIG A   1      -5.464  -1.394 125.180  0.00  0.00    +0.015 C 
ATOM     24  C   LIG A   1      -6.339  -2.088 127.452  0.00  0.00    +0.028 C 
ATOM     25  C   LIG A   1      -7.290  -3.197 128.082  0.00  0.00    -0.003 C 
ATOM     26  C   LIG A   1      -7.345  -3.238 129.612  0.00  0.00    +0.008 C 
ATOM     27  C   LIG A   1      -8.709  -3.242 127.461  0.00  0.00    -0.011 C 
ATOM     28  C   LIG A   1      -9.622  -4.320 128.069  0.00  0.00    +0.008 C 
ATOM     29  C   LIG A   1      -8.648  -3.467 125.948  0.00  0.00    +0.004 C 
ATOM     30  C   LIG A   1      -7.424  -2.866 125.274  0.00  0.00    +0.011 C 
ENDROOT
BRANCH   4  31
ATOM     31  O   LIG A   1      -6.524   0.587 133.275  0.00  0.00    -0.461 OA
BRANCH  31  32
ATOM     32  C   LIG A   1      -6.434  -0.640 133.865  0.00  0.00    +0.304 C 
ATOM     33  C   LIG A   1      -6.294  -1.733 132.843  0.00  0.00    +0.136 C 
ATOM     34  O   LIG A   1      -6.496  -0.855 135.068  0.00  0.00    -0.251 OA
ENDBRANCH  31  32
ENDBRANCH   4  31
BRANCH  21  35
ATOM     35  O   LIG A   1      -8.915  -0.610 125.337  0.00  0.00    -0.461 OA
BRANCH  35  36
ATOM     36  C   LIG A   1      -9.329   0.376 124.493  0.00  0.00    +0.304 C 
ATOM     37  C   LIG A   1      -8.196   0.803 123.609  0.00  0.00    +0.136 C 
ATOM     38  O   LIG A   1     -10.411   0.929 124.536  0.00  0.00    -0.251 OA
ENDBRANCH  35  36
ENDBRANCH  21  35
TORSDOF 4
ENDMDL
MODEL 2
REMARK VINA RESULT:      -8.7      1.346      1.622
REMARK  Name = NuBBE_1355
REMARK  14 active torsions:
REMARK  status: ('A' for Active; 'I' for Inactive)
REMARK    1  A    between atoms: C_1  and  C_2
REMARK    2  A    between atoms: C_2  and  C_3
REMARK    3  A    between atoms: C_4  and  O_6
REMARK    4  A    between atoms: O_6  and  C_7
REMARK    5  A    between atoms: C_7  and  C_8
REMARK    6  A    between atoms: C_12  and  C_13
REMARK    7  A    between atoms: C_17  and  C_18
REMARK    8  A    between atoms: C_23  and  C_24
REMARK    9  A    between atoms: C_26  and  O_28
REMARK   10  A    between atoms: O_28  and  C_29
REMARK   11  A    between atoms: C_29  and  C_30
REMARK   12  A    between atoms: C_32  and  C_33
REMARK   13  A    between atoms: C_35  and  C_37
REMARK   14  A    between atoms: C_38  and  C_40
REMARK                            x       y       z     vdW  Elec       q    Type
REMARK                         _______ _______ _______ _____ _____    ______ ____
ROOT
ATOM      1  C   LIG A   1      -8.197   4.805 132.124  0.00  0.00    +0.015 C 
ATOM      2  C   LIG A   1      -6.749   4.586 131.622  0.00  0.00    +0.006 C 
ATOM      3  C   LIG A   1      -6.009   5.879 132.097  0.00  0.00    +0.015 C 
ATOM      4  C   LIG A   1      -6.110   3.364 132.350  0.00  0.00    +0.182 C 
ATOM      5  C   LIG A   1      -4.650   3.117 131.936  0.00  0.00    +0.046 C 
ATOM      6  C   LIG A   1      -4.265   3.659 130.561  0.00  0.00    +0.015 C 
ATOM      7  C   LIG A   1      -5.398   3.625 129.502  0.00  0.00    -0.007 C 
ATOM      8  C   LIG A   1      -4.802   4.363 128.262  0.00  0.00    +0.016 C 
ATOM      9  C   LIG A   1      -6.634   4.462 130.029  0.00  0.00    +0.008 C 
ATOM     10  C   LIG A   1      -7.959   4.167 129.269  0.00  0.00    +0.006 C 
ATOM     11  C   LIG A   1      -7.859   3.221 128.062  0.00  0.00    +0.012 C 
ATOM     12  C   LIG A   1      -7.121   1.898 128.387  0.00  0.00    -0.001 C 
ATOM     13  C   LIG A   1      -8.002   1.159 129.416  0.00  0.00    +0.016 C 
ATOM     14  C   LIG A   1      -5.745   2.187 129.047  0.00  0.00    -0.057 C 
ATOM     15  C   LIG A   1      -4.844   1.175 129.060  0.00  0.00    +0.000 C 
ATOM     16  C   LIG A   1      -5.121  -0.125 128.489  0.00  0.00    +0.000 C 
ATOM     17  C   LIG A   1      -6.091  -0.305 127.568  0.00  0.00    -0.059 C 
ATOM     18  C   LIG A   1      -6.875   0.944 127.106  0.00  0.00    +0.002 C 
ATOM     19  C   LIG A   1      -6.055   1.756 126.050  0.00  0.00    +0.017 C 
ATOM     20  C   LIG A   1      -8.165   0.445 126.432  0.00  0.00    +0.057 C 
ATOM     21  C   LIG A   1      -7.884  -0.468 125.219  0.00  0.00    +0.184 C 
ATOM     22  C   LIG A   1      -6.866  -1.649 125.499  0.00  0.00    +0.012 C 
ATOM     23  C   LIG A   1      -5.600  -1.436 124.610  0.00  0.00    +0.015 C 
ATOM     24  C   LIG A   1      -6.400  -1.702 126.997  0.00  0.00    +0.028 C 
ATOM     25  C   LIG A   1      -7.232  -2.736 127.873  0.00  0.00    -0.003 C 
ATOM     26  C   LIG A   1      -7.283  -2.448 129.376  0.00  0.00    +0.008 C 
ATOM     27  C   LIG A   1      -8.640  -3.057 127.308  0.00  0.00    -0.011 C 
ATOM     28  C   LIG A   1      -9.437  -4.062 128.156  0.00  0.00    +0.008 C 
ATOM     29  C   LIG A   1      -8.556  -3.599 125.879  0.00  0.00    +0.004 C 
ATOM     30  C   LIG A   1      -7.399  -3.040 125.063  0.00  0.00    +0.011 C 
ENDROOT
BRANCH   4  31
ATOM     31  O   LIG A   1      -6.858   2.146 132.104  0.00  0.00    -0.461 OA
BRANCH  31  32
ATOM     32  C   LIG A   1      -6.657   1.098 132.955  0.00  0.00    +0.304 C 
ATOM     33  C   LIG A   1      -6.270  -0.149 132.212  0.00  0.00    +0.136 C 
ATOM     34  O   LIG A   1      -6.805   1.133 134.170  0.00  0.00    -0.251 OA
ENDBRANCH  31  32
ENDBRANCH   4  31
BRANCH  21  35
ATOM     35  O   LIG A   1      -9.113  -0.985 124.669  0.00  0.00    -0.461 OA
BRANCH  35  36
ATOM     36  C   LIG A   1      -9.396  -0.553 123.408  0.00  0.00    +0.304 C 
ATOM     37  C   LIG A   1      -8.884   0.843 123.219  0.00  0.00    +0.136 C 
ATOM     38  O   LIG A   1     -10.079  -1.148 122.599  0.00  0.00    -0.251 OA
ENDBRANCH  35  36
ENDBRANCH  21  35
TORSDOF 4
ENDMDL
MODEL 3
REMARK VINA RESULT:      -8.5      2.973      5.910
REMARK  Name = NuBBE_1355
REMARK  14 active torsions:
REMARK  status: ('A' for Active; 'I' for Inactive)
REMARK    1  A    between atoms: C_1  and  C_2
REMARK    2  A    between atoms: C_2  and  C_3
REMARK    3  A    between atoms: C_4  and  O_6
REMARK    4  A    between atoms: O_6  and  C_7
REMARK    5  A    between atoms: C_7  and  C_8
REMARK    6  A    between atoms: C_12  and  C_13
REMARK    7  A    between atoms: C_17  and  C_18
REMARK    8  A    between atoms: C_23  and  C_24
REMARK    9  A    between atoms: C_26  and  O_28
REMARK   10  A    between atoms: O_28  and  C_29
REMARK   11  A    between atoms: C_29  and  C_30
REMARK   12  A    between atoms: C_32  and  C_33
REMARK   13  A    between atoms: C_35  and  C_37
REMARK   14  A    between atoms: C_38  and  C_40
REMARK                            x       y       z     vdW  Elec       q    Type
REMARK                         _______ _______ _______ _____ _____    ______ ____
ROOT
ATOM      1  C   LIG A   1      -1.523   6.333 131.351  0.00  0.00    +0.015 C 
ATOM      2  C   LIG A   1      -2.997   6.434 131.812  0.00  0.00    +0.006 C 
ATOM      3  C   LIG A   1      -2.969   7.621 132.830  0.00  0.00    +0.015 C 
ATOM      4  C   LIG A   1      -3.906   6.842 130.613  0.00  0.00    +0.182 C 
ATOM      5  C   LIG A   1      -5.381   7.010 131.011  0.00  0.00    +0.046 C 
ATOM      6  C   LIG A   1      -5.811   6.235 132.254  0.00  0.00    +0.015 C 
ATOM      7  C   LIG A   1      -5.092   4.875 132.459  0.00  0.00    -0.007 C 
ATOM      8  C   LIG A   1      -5.589   4.372 133.851  0.00  0.00    +0.016 C 
ATOM      9  C   LIG A   1      -3.530   5.115 132.548  0.00  0.00    +0.008 C 
ATOM     10  C   LIG A   1      -2.686   3.826 132.336  0.00  0.00    +0.006 C 
ATOM     11  C   LIG A   1      -3.469   2.510 132.198  0.00  0.00    +0.012 C 
ATOM     12  C   LIG A   1      -4.604   2.587 131.146  0.00  0.00    -0.001 C 
ATOM     13  C   LIG A   1      -3.911   2.798 129.784  0.00  0.00    +0.016 C 
ATOM     14  C   LIG A   1      -5.519   3.813 131.418  0.00  0.00    -0.057 C 
ATOM     15  C   LIG A   1      -6.737   3.816 130.822  0.00  0.00    +0.000 C 
ATOM     16  C   LIG A   1      -7.193   2.738 129.971  0.00  0.00    +0.000 C 
ATOM     17  C   LIG A   1      -6.647   1.506 130.029  0.00  0.00    -0.059 C 
ATOM     18  C   LIG A   1      -5.536   1.269 131.078  0.00  0.00    +0.002 C 
ATOM     19  C   LIG A   1      -6.152   1.039 132.497  0.00  0.00    +0.017 C 
ATOM     20  C   LIG A   1      -4.790  -0.012 130.665  0.00  0.00    +0.057 C 
ATOM     21  C   LIG A   1      -5.718  -1.245 130.605  0.00  0.00    +0.184 C 
ATOM     22  C   LIG A   1      -7.046  -1.036 129.767  0.00  0.00    +0.012 C 
ATOM     23  C   LIG A   1      -8.268  -1.168 130.731  0.00  0.00    +0.015 C 
ATOM     24  C   LIG A   1      -7.117   0.379 129.091  0.00  0.00    +0.028 C 
ATOM     25  C   LIG A   1      -6.630   0.372 127.577  0.00  0.00    -0.003 C 
ATOM     26  C   LIG A   1      -6.102   1.705 127.039  0.00  0.00    +0.008 C 
ATOM     27  C   LIG A   1      -5.679  -0.800 127.223  0.00  0.00    -0.011 C 
ATOM     28  C   LIG A   1      -5.216  -0.806 125.756  0.00  0.00    +0.008 C 
ATOM     29  C   LIG A   1      -6.326  -2.154 127.524  0.00  0.00    +0.004 C 
ATOM     30  C   LIG A   1      -7.286  -2.141 128.705  0.00  0.00    +0.011 C 
ENDROOT
BRANCH   4  31
ATOM     31  O   LIG A   1      -3.839   5.871 129.539  0.00  0.00    -0.461 OA
BRANCH  31  32
ATOM     32  C   LIG A   1      -3.680   6.342 128.268  0.00  0.00    +0.304 C 
ATOM     33  C   LIG A   1      -2.327   6.968 128.078  0.00  0.00    +0.136 C 
ATOM     34  O   LIG A   1      -4.529   6.308 127.388  0.00  0.00    -0.251 OA
ENDBRANCH  31  32
ENDBRANCH   4  31
BRANCH  21  35
ATOM     35  O   LIG A   1      -5.003  -2.403 130.130  0.00  0.00    -0.461 OA
BRANCH  35  36
ATOM     36  C   LIG A   1      -4.554  -3.234 131.112  0.00  0.00    +0.304 C 
ATOM     37  C   LIG A   1      -5.702  -3.994 131.704  0.00  0.00    +0.136 C 
ATOM     38  O   LIG A   1      -3.419  -3.261 131.545  0.00  0.00    -0.251 OA
ENDBRANCH  35  36
ENDBRANCH  21  35
TORSDOF 4
ENDMDL
MODEL 4
REMARK VINA RESULT:      -8.4      1.488      8.011
REMARK  Name = NuBBE_1355
REMARK  14 active torsions:
REMARK  status: ('A' for Active; 'I' for Inactive)
REMARK    1  A    between atoms: C_1  and  C_2
REMARK    2  A    between atoms: C_2  and  C_3
REMARK    3  A    between atoms: C_4  and  O_6
REMARK    4  A    between atoms: O_6  and  C_7
REMARK    5  A    between atoms: C_7  and  C_8
REMARK    6  A    between atoms: C_12  and  C_13
REMARK    7  A    between atoms: C_17  and  C_18
REMARK    8  A    between atoms: C_23  and  C_24
REMARK    9  A    between atoms: C_26  and  O_28
REMARK   10  A    between atoms: O_28  and  C_29
REMARK   11  A    between atoms: C_29  and  C_30
REMARK   12  A    between atoms: C_32  and  C_33
REMARK   13  A    between atoms: C_35  and  C_37
REMARK   14  A    between atoms: C_38  and  C_40
REMARK                            x       y       z     vdW  Elec       q    Type
REMARK                         _______ _______ _______ _____ _____    ______ ____
ROOT
ATOM      1  C   LIG A   1      -9.769  -2.997 125.847  0.00  0.00    +0.015 C 
ATOM      2  C   LIG A   1      -8.276  -2.731 125.540  0.00  0.00    +0.006 C 
ATOM      3  C   LIG A   1      -7.849  -3.996 124.726  0.00  0.00    +0.015 C 
ATOM      4  C   LIG A   1      -8.135  -1.485 124.613  0.00  0.00    +0.182 C 
ATOM      5  C   LIG A   1      -6.677  -1.190 124.226  0.00  0.00    +0.046 C 
ATOM      6  C   LIG A   1      -5.625  -1.723 125.197  0.00  0.00    +0.015 C 
ATOM      7  C   LIG A   1      -6.056  -1.732 126.687  0.00  0.00    -0.007 C 
ATOM      8  C   LIG A   1      -4.888  -2.454 127.431  0.00  0.00    +0.016 C 
ATOM      9  C   LIG A   1      -7.363  -2.609 126.851  0.00  0.00    +0.008 C 
ATOM     10  C   LIG A   1      -8.119  -2.362 128.189  0.00  0.00    +0.006 C 
ATOM     11  C   LIG A   1      -7.439  -1.418 129.194  0.00  0.00    +0.012 C 
ATOM     12  C   LIG A   1      -7.009  -0.069 128.564  0.00  0.00    -0.001 C 
ATOM     13  C   LIG A   1      -8.313   0.643 128.147  0.00  0.00    +0.016 C 
ATOM     14  C   LIG A   1      -6.159  -0.309 127.286  0.00  0.00    -0.057 C 
ATOM     15  C   LIG A   1      -5.421   0.734 126.834  0.00  0.00    +0.000 C 
ATOM     16  C   LIG A   1      -5.401   2.022 127.493  0.00  0.00    +0.000 C 
ATOM     17  C   LIG A   1      -5.766   2.165 128.784  0.00  0.00    -0.059 C 
ATOM     18  C   LIG A   1      -6.167   0.888 129.557  0.00  0.00    +0.002 C 
ATOM     19  C   LIG A   1      -4.899   0.101 130.026  0.00  0.00    +0.017 C 
ATOM     20  C   LIG A   1      -6.942   1.340 130.807  0.00  0.00    +0.057 C 
ATOM     21  C   LIG A   1      -6.103   2.258 131.723  0.00  0.00    +0.184 C 
ATOM     22  C   LIG A   1      -5.406   3.474 130.986  0.00  0.00    +0.012 C 
ATOM     23  C   LIG A   1      -3.858   3.301 131.095  0.00  0.00    +0.015 C 
ATOM     24  C   LIG A   1      -5.776   3.548 129.462  0.00  0.00    +0.028 C 
ATOM     25  C   LIG A   1      -6.968   4.556 129.157  0.00  0.00    -0.003 C 
ATOM     26  C   LIG A   1      -7.775   4.272 127.887  0.00  0.00    +0.008 C 
ATOM     27  C   LIG A   1      -7.895   4.827 130.371  0.00  0.00    -0.011 C 
ATOM     28  C   LIG A   1      -9.042   5.807 130.073  0.00  0.00    +0.008 C 
ATOM     29  C   LIG A   1      -7.105   5.366 131.565  0.00  0.00    +0.004 C 
ATOM     30  C   LIG A   1      -5.678   4.844 131.661  0.00  0.00    +0.011 C 
ENDROOT
BRANCH   4  31
ATOM     31  O   LIG A   1      -8.683  -0.295 125.233  0.00  0.00    -0.461 OA
BRANCH  31  32
ATOM     32  C   LIG A   1      -9.250   0.640 124.415  0.00  0.00    +0.304 C 
ATOM     33  C   LIG A   1      -8.666   2.004 124.651  0.00  0.00    +0.136 C 
ATOM     34  O   LIG A   1     -10.148   0.428 123.611  0.00  0.00    -0.251 OA
ENDBRANCH  31  32
ENDBRANCH   4  31
BRANCH  21  35
ATOM     35  O   LIG A   1      -6.890   2.730 132.836  0.00  0.00    -0.461 OA
BRANCH  35  36
ATOM     36  C   LIG A   1      -6.522   2.224 134.046  0.00  0.00    +0.304 C 
ATOM     37  C   LIG A   1      -5.967   3.317 134.909  0.00  0.00    +0.136 C 
ATOM     38  O   LIG A   1      -6.511   1.046 134.341  0.00  0.00    -0.251 OA
ENDBRANCH  35  36
ENDBRANCH  21  35
TORSDOF 4
ENDMDL
MODEL 5
REMARK VINA RESULT:      -8.4      2.920      6.306
REMARK  Name = NuBBE_1355
REMARK  14 active torsions:
REMARK  status: ('A' for Active; 'I' for Inactive)
REMARK    1  A    between atoms: C_1  and  C_2
REMARK    2  A    between atoms: C_2  and  C_3
REMARK    3  A    between atoms: C_4  and  O_6
REMARK    4  A    between atoms: O_6  and  C_7
REMARK    5  A    between atoms: C_7  and  C_8
REMARK    6  A    between atoms: C_12  and  C_13
REMARK    7  A    between atoms: C_17  and  C_18
REMARK    8  A    between atoms: C_23  and  C_24
REMARK    9  A    between atoms: C_26  and  O_28
REMARK   10  A    between atoms: O_28  and  C_29
REMARK   11  A    between atoms: C_29  and  C_30
REMARK   12  A    between atoms: C_32  and  C_33
REMARK   13  A    between atoms: C_35  and  C_37
REMARK   14  A    between atoms: C_38  and  C_40
REMARK                            x       y       z     vdW  Elec       q    Type
REMARK                         _______ _______ _______ _____ _____    ______ ____
ROOT
ATOM      1  C   LIG A   1      -1.644   6.336 130.896  0.00  0.00    +0.015 C 
ATOM      2  C   LIG A   1      -3.063   6.481 131.498  0.00  0.00    +0.006 C 
ATOM      3  C   LIG A   1      -2.993   7.853 132.246  0.00  0.00    +0.015 C 
ATOM      4  C   LIG A   1      -4.118   6.601 130.356  0.00  0.00    +0.182 C 
ATOM      5  C   LIG A   1      -5.548   6.798 130.883  0.00  0.00    +0.046 C 
ATOM      6  C   LIG A   1      -5.797   6.282 132.299  0.00  0.00    +0.015 C 
ATOM      7  C   LIG A   1      -4.984   5.019 132.687  0.00  0.00    -0.007 C 
ATOM      8  C   LIG A   1      -5.297   4.798 134.201  0.00  0.00    +0.016 C 
ATOM      9  C   LIG A   1      -3.438   5.325 132.542  0.00  0.00    +0.008 C 
ATOM     10  C   LIG A   1      -2.549   4.049 132.496  0.00  0.00    +0.006 C 
ATOM     11  C   LIG A   1      -3.266   2.707 132.719  0.00  0.00    +0.012 C 
ATOM     12  C   LIG A   1      -4.511   2.527 131.814  0.00  0.00    -0.001 C 
ATOM     13  C   LIG A   1      -3.982   2.475 130.366  0.00  0.00    +0.016 C 
ATOM     14  C   LIG A   1      -5.460   3.751 131.939  0.00  0.00    -0.057 C 
ATOM     15  C   LIG A   1      -6.732   3.590 131.502  0.00  0.00    +0.000 C 
ATOM     16  C   LIG A   1      -7.216   2.345 130.945  0.00  0.00    +0.000 C 
ATOM     17  C   LIG A   1      -6.597   1.171 131.186  0.00  0.00    -0.059 C 
ATOM     18  C   LIG A   1      -5.368   1.192 132.123  0.00  0.00    +0.002 C 
ATOM     19  C   LIG A   1      -5.813   1.240 133.622  0.00  0.00    +0.017 C 
ATOM     20  C   LIG A   1      -4.599  -0.120 131.891  0.00  0.00    +0.057 C 
ATOM     21  C   LIG A   1      -5.457  -1.369 132.190  0.00  0.00    +0.184 C 
ATOM     22  C   LIG A   1      -6.877  -1.383 131.490  0.00  0.00    +0.012 C 
ATOM     23  C   LIG A   1      -7.978  -1.354 132.597  0.00  0.00    +0.015 C 
ATOM     24  C   LIG A   1      -7.101  -0.141 130.555  0.00  0.00    +0.028 C 
ATOM     25  C   LIG A   1      -6.780  -0.445 129.027  0.00  0.00    -0.003 C 
ATOM     26  C   LIG A   1      -6.391   0.765 128.174  0.00  0.00    +0.008 C 
ATOM     27  C   LIG A   1      -5.808  -1.632 128.808  0.00  0.00    -0.011 C 
ATOM     28  C   LIG A   1      -5.506  -1.926 127.328  0.00  0.00    +0.008 C 
ATOM     29  C   LIG A   1      -6.341  -2.915 129.449  0.00  0.00    +0.004 C 
ATOM     30  C   LIG A   1      -7.167  -2.691 130.708  0.00  0.00    +0.011 C 
ENDROOT
BRANCH   4  31
ATOM     31  O   LIG A   1      -4.112   5.432 129.500  0.00  0.00    -0.461 OA
BRANCH  31  32
ATOM     32  C   LIG A   1      -3.818   5.615 128.180  0.00  0.00    +0.304 C 
ATOM     33  C   LIG A   1      -2.669   4.750 127.747  0.00  0.00    +0.136 C 
ATOM     34  O   LIG A   1      -4.377   6.406 127.432  0.00  0.00    -0.251 OA
ENDBRANCH  31  32
ENDBRANCH   4  31
BRANCH  21  35
ATOM     35  O   LIG A   1      -4.732  -2.576 131.879  0.00  0.00    -0.461 OA
BRANCH  35  36
ATOM     36  C   LIG A   1      -4.046  -3.112 132.927  0.00  0.00    +0.304 C 
ATOM     37  C   LIG A   1      -4.900  -3.097 134.159  0.00  0.00    +0.136 C 
ATOM     38  O   LIG A   1      -2.873  -3.430 132.910  0.00  0.00    -0.251 OA
ENDBRANCH  35  36
ENDBRANCH  21  35
TORSDOF 4
ENDMDL
MODEL 6
REMARK VINA RESULT:      -8.4      2.457      4.180
REMARK  Name = NuBBE_1355
REMARK  14 active torsions:
REMARK  status: ('A' for Active; 'I' for Inactive)
REMARK    1  A    between atoms: C_1  and  C_2
REMARK    2  A    between atoms: C_2  and  C_3
REMARK    3  A    between atoms: C_4  and  O_6
REMARK    4  A    between atoms: O_6  and  C_7
REMARK    5  A    between atoms: C_7  and  C_8
REMARK    6  A    between atoms: C_12  and  C_13
REMARK    7  A    between atoms: C_17  and  C_18
REMARK    8  A    between atoms: C_23  and  C_24
REMARK    9  A    between atoms: C_26  and  O_28
REMARK   10  A    between atoms: O_28  and  C_29
REMARK   11  A    between atoms: C_29  and  C_30
REMARK   12  A    between atoms: C_32  and  C_33
REMARK   13  A    between atoms: C_35  and  C_37
REMARK   14  A    between atoms: C_38  and  C_40
REMARK                            x       y       z     vdW  Elec       q    Type
REMARK                         _______ _______ _______ _____ _____    ______ ____
ROOT
ATOM      1  C   LIG A   1     -10.075   5.532 131.842  0.00  0.00    +0.015 C 
ATOM      2  C   LIG A   1      -8.645   5.631 131.258  0.00  0.00    +0.006 C 
ATOM      3  C   LIG A   1      -8.568   7.109 130.755  0.00  0.00    +0.015 C 
ATOM      4  C   LIG A   1      -7.591   5.446 132.391  0.00  0.00    +0.182 C 
ATOM      5  C   LIG A   1      -6.144   5.582 131.890  0.00  0.00    +0.046 C 
ATOM      6  C   LIG A   1      -5.941   5.292 130.404  0.00  0.00    +0.015 C 
ATOM      7  C   LIG A   1      -6.877   4.204 129.816  0.00  0.00    -0.007 C 
ATOM      8  C   LIG A   1      -6.579   4.212 128.284  0.00  0.00    +0.016 C 
ATOM      9  C   LIG A   1      -8.385   4.637 130.029  0.00  0.00    +0.008 C 
ATOM     10  C   LIG A   1      -9.400   3.470 129.867  0.00  0.00    +0.006 C 
ATOM     11  C   LIG A   1      -8.823   2.119 129.411  0.00  0.00    +0.012 C 
ATOM     12  C   LIG A   1      -7.610   1.661 130.259  0.00  0.00    -0.001 C 
ATOM     13  C   LIG A   1      -8.150   1.418 131.683  0.00  0.00    +0.016 C 
ATOM     14  C   LIG A   1      -6.539   2.784 130.333  0.00  0.00    -0.057 C 
ATOM     15  C   LIG A   1      -5.293   2.422 130.721  0.00  0.00    +0.000 C 
ATOM     16  C   LIG A   1      -4.944   1.057 131.054  0.00  0.00    +0.000 C 
ATOM     17  C   LIG A   1      -5.679   0.011 130.624  0.00  0.00    -0.059 C 
ATOM     18  C   LIG A   1      -6.892   0.317 129.718  0.00  0.00    +0.002 C 
ATOM     19  C   LIG A   1      -6.436   0.574 128.244  0.00  0.00    +0.017 C 
ATOM     20  C   LIG A   1      -7.795  -0.929 129.732  0.00  0.00    +0.057 C 
ATOM     21  C   LIG A   1      -7.068  -2.190 129.215  0.00  0.00    +0.184 C 
ATOM     22  C   LIG A   1      -5.661  -2.469 129.887  0.00  0.00    +0.012 C 
ATOM     23  C   LIG A   1      -4.556  -2.365 128.788  0.00  0.00    +0.015 C 
ATOM     24  C   LIG A   1      -5.316  -1.434 131.016  0.00  0.00    +0.028 C 
ATOM     25  C   LIG A   1      -5.676  -1.958 132.474  0.00  0.00    -0.003 C 
ATOM     26  C   LIG A   1      -5.944  -0.878 133.525  0.00  0.00    +0.008 C 
ATOM     27  C   LIG A   1      -6.767  -3.060 132.500  0.00  0.00    -0.011 C 
ATOM     28  C   LIG A   1      -7.106  -3.568 133.911  0.00  0.00    +0.008 C 
ATOM     29  C   LIG A   1      -6.365  -4.263 131.644  0.00  0.00    +0.004 C 
ATOM     30  C   LIG A   1      -5.512  -3.913 130.433  0.00  0.00    +0.011 C 
ENDROOT
BRANCH   4  31
ATOM     31  O   LIG A   1      -7.722   4.155 133.036  0.00  0.00    -0.461 OA
BRANCH  31  32
ATOM     32  C   LIG A   1      -7.276   4.042 134.322  0.00  0.00    +0.304 C 
ATOM     33  C   LIG A   1      -6.252   2.951 134.455  0.00  0.00    +0.136 C 
ATOM     34  O   LIG A   1      -7.672   4.706 135.270  0.00  0.00    -0.251 OA
ENDBRANCH  31  32
ENDBRANCH   4  31
BRANCH  21  35
ATOM     35  O   LIG A   1      -7.915  -3.352 129.326  0.00  0.00    -0.461 OA
BRANCH  35  36
ATOM     36  C   LIG A   1      -8.578  -3.682 128.182  0.00  0.00    +0.304 C 
ATOM     37  C   LIG A   1      -7.960  -2.978 127.012  0.00  0.00    +0.136 C 
ATOM     38  O   LIG A   1      -9.601  -4.335 128.126  0.00  0.00    -0.251 OA
ENDBRANCH  35  36
ENDBRANCH  21  35
TORSDOF 4
ENDMDL
MODEL 7
REMARK VINA RESULT:      -8.3      2.816      5.599
REMARK  Name = NuBBE_1355
REMARK  14 active torsions:
REMARK  status: ('A' for Active; 'I' for Inactive)
REMARK    1  A    between atoms: C_1  and  C_2
REMARK    2  A    between atoms: C_2  and  C_3
REMARK    3  A    between atoms: C_4  and  O_6
REMARK    4  A    between atoms: O_6  and  C_7
REMARK    5  A    between atoms: C_7  and  C_8
REMARK    6  A    between atoms: C_12  and  C_13
REMARK    7  A    between atoms: C_17  and  C_18
REMARK    8  A    between atoms: C_23  and  C_24
REMARK    9  A    between atoms: C_26  and  O_28
REMARK   10  A    between atoms: O_28  and  C_29
REMARK   11  A    between atoms: C_29  and  C_30
REMARK   12  A    between atoms: C_32  and  C_33
REMARK   13  A    between atoms: C_35  and  C_37
REMARK   14  A    between atoms: C_38  and  C_40
REMARK                            x       y       z     vdW  Elec       q    Type
REMARK                         _______ _______ _______ _____ _____    ______ ____
ROOT
ATOM      1  C   LIG A   1      -3.013   6.247 132.458  0.00  0.00    +0.015 C 
ATOM      2  C   LIG A   1      -3.965   5.750 133.573  0.00  0.00    +0.006 C 
ATOM      3  C   LIG A   1      -3.598   6.664 134.787  0.00  0.00    +0.015 C 
ATOM      4  C   LIG A   1      -5.446   6.036 133.178  0.00  0.00    +0.182 C 
ATOM      5  C   LIG A   1      -6.447   5.612 134.265  0.00  0.00    +0.046 C 
ATOM      6  C   LIG A   1      -5.954   4.521 135.213  0.00  0.00    +0.015 C 
ATOM      7  C   LIG A   1      -5.004   3.477 134.570  0.00  0.00    -0.007 C 
ATOM      8  C   LIG A   1      -4.532   2.586 135.763  0.00  0.00    +0.016 C 
ATOM      9  C   LIG A   1      -3.737   4.216 133.974  0.00  0.00    +0.008 C 
ATOM     10  C   LIG A   1      -2.931   3.356 132.959  0.00  0.00    +0.006 C 
ATOM     11  C   LIG A   1      -3.393   1.902 132.775  0.00  0.00    +0.012 C 
ATOM     12  C   LIG A   1      -4.912   1.778 132.496  0.00  0.00    -0.001 C 
ATOM     13  C   LIG A   1      -5.153   2.461 131.133  0.00  0.00    +0.016 C 
ATOM     14  C   LIG A   1      -5.730   2.544 133.571  0.00  0.00    -0.057 C 
ATOM     15  C   LIG A   1      -7.047   2.240 133.675  0.00  0.00    +0.000 C 
ATOM     16  C   LIG A   1      -7.689   1.249 132.839  0.00  0.00    +0.000 C 
ATOM     17  C   LIG A   1      -6.983   0.290 132.204  0.00  0.00    -0.059 C 
ATOM     18  C   LIG A   1      -5.455   0.257 132.439  0.00  0.00    +0.002 C 
ATOM     19  C   LIG A   1      -5.117  -0.427 133.803  0.00  0.00    +0.017 C 
ATOM     20  C   LIG A   1      -4.842  -0.590 131.310  0.00  0.00    +0.057 C 
ATOM     21  C   LIG A   1      -5.394  -2.033 131.288  0.00  0.00    +0.184 C 
ATOM     22  C   LIG A   1      -6.974  -2.140 131.319  0.00  0.00    +0.012 C 
ATOM     23  C   LIG A   1      -7.398  -2.858 132.640  0.00  0.00    +0.015 C 
ATOM     24  C   LIG A   1      -7.675  -0.736 131.288  0.00  0.00    +0.028 C 
ATOM     25  C   LIG A   1      -8.126  -0.296 129.827  0.00  0.00    -0.003 C 
ATOM     26  C   LIG A   1      -8.251   1.212 129.593  0.00  0.00    +0.008 C 
ATOM     27  C   LIG A   1      -7.335  -0.985 128.685  0.00  0.00    -0.011 C 
ATOM     28  C   LIG A   1      -7.778  -0.561 127.275  0.00  0.00    +0.008 C 
ATOM     29  C   LIG A   1      -7.435  -2.509 128.779  0.00  0.00    +0.004 C 
ATOM     30  C   LIG A   1      -7.553  -3.044 130.199  0.00  0.00    +0.011 C 
ENDROOT
BRANCH   4  31
ATOM     31  O   LIG A   1      -5.809   5.362 131.947  0.00  0.00    -0.461 OA
BRANCH  31  32
ATOM     32  C   LIG A   1      -6.796   5.922 131.187  0.00  0.00    +0.304 C 
ATOM     33  C   LIG A   1      -7.877   4.928 130.870  0.00  0.00    +0.136 C 
ATOM     34  O   LIG A   1      -6.803   7.073 130.771  0.00  0.00    -0.251 OA
ENDBRANCH  31  32
ENDBRANCH   4  31
BRANCH  21  35
ATOM     35  O   LIG A   1      -4.863  -2.768 130.166  0.00  0.00    -0.461 OA
BRANCH  35  36
ATOM     36  C   LIG A   1      -3.676  -3.392 130.408  0.00  0.00    +0.304 C 
ATOM     37  C   LIG A   1      -2.988  -3.701 129.113  0.00  0.00    +0.136 C 
ATOM     38  O   LIG A   1      -3.290  -3.770 131.496  0.00  0.00    -0.251 OA
ENDBRANCH  35  36
ENDBRANCH  21  35
TORSDOF 4
ENDMDL
MODEL 8
REMARK VINA RESULT:      -8.3      3.170      5.687
REMARK  Name = NuBBE_1355
REMARK  14 active torsions:
REMARK  status: ('A' for Active; 'I' for Inactive)
REMARK    1  A    between atoms: C_1  and  C_2
REMARK    2  A    between atoms: C_2  and  C_3
REMARK    3  A    between atoms: C_4  and  O_6
REMARK    4  A    between atoms: O_6  and  C_7
REMARK    5  A    between atoms: C_7  and  C_8
REMARK    6  A    between atoms: C_12  and  C_13
REMARK    7  A    between atoms: C_17  and  C_18
REMARK    8  A    between atoms: C_23  and  C_24
REMARK    9  A    between atoms: C_26  and  O_28
REMARK   10  A    between atoms: O_28  and  C_29
REMARK   11  A    between atoms: C_29  and  C_30
REMARK   12  A    between atoms: C_32  and  C_33
REMARK   13  A    between atoms: C_35  and  C_37
REMARK   14  A    between atoms: C_38  and  C_40
REMARK                            x       y       z     vdW  Elec       q    Type
REMARK                         _______ _______ _______ _____ _____    ______ ____
ROOT
ATOM      1  C   LIG A   1      -2.618   5.578 131.755  0.00  0.00    +0.015 C 
ATOM      2  C   LIG A   1      -4.139   5.508 132.036  0.00  0.00    +0.006 C 
ATOM      3  C   LIG A   1      -4.228   5.779 133.573  0.00  0.00    +0.015 C 
ATOM      4  C   LIG A   1      -4.873   6.666 131.294  0.00  0.00    +0.182 C 
ATOM      5  C   LIG A   1      -6.385   6.688 131.569  0.00  0.00    +0.046 C 
ATOM      6  C   LIG A   1      -6.990   5.349 131.986  0.00  0.00    +0.015 C 
ATOM      7  C   LIG A   1      -6.327   4.103 131.344  0.00  0.00    -0.007 C 
ATOM      8  C   LIG A   1      -7.012   2.886 132.043  0.00  0.00    +0.016 C 
ATOM      9  C   LIG A   1      -4.787   4.080 131.709  0.00  0.00    +0.008 C 
ATOM     10  C   LIG A   1      -3.943   3.138 130.804  0.00  0.00    +0.006 C 
ATOM     11  C   LIG A   1      -4.721   2.286 129.788  0.00  0.00    +0.012 C 
ATOM     12  C   LIG A   1      -5.705   3.118 128.927  0.00  0.00    -0.001 C 
ATOM     13  C   LIG A   1      -4.833   4.071 128.083  0.00  0.00    +0.016 C 
ATOM     14  C   LIG A   1      -6.628   3.981 129.831  0.00  0.00    -0.057 C 
ATOM     15  C   LIG A   1      -7.755   4.476 129.264  0.00  0.00    +0.000 C 
ATOM     16  C   LIG A   1      -8.111   4.226 127.884  0.00  0.00    +0.000 C 
ATOM     17  C   LIG A   1      -7.597   3.186 127.195  0.00  0.00    -0.059 C 
ATOM     18  C   LIG A   1      -6.641   2.235 127.949  0.00  0.00    +0.002 C 
ATOM     19  C   LIG A   1      -7.443   1.224 128.832  0.00  0.00    +0.017 C 
ATOM     20  C   LIG A   1      -5.866   1.436 126.886  0.00  0.00    +0.057 C 
ATOM     21  C   LIG A   1      -6.798   0.613 125.970  0.00  0.00    +0.184 C 
ATOM     22  C   LIG A   1      -7.999   1.430 125.339  0.00  0.00    +0.012 C 
ATOM     23  C   LIG A   1      -9.340   0.840 125.879  0.00  0.00    +0.015 C 
ATOM     24  C   LIG A   1      -7.956   2.954 125.715  0.00  0.00    +0.028 C 
ATOM     25  C   LIG A   1      -7.272   3.854 124.597  0.00  0.00    -0.003 C 
ATOM     26  C   LIG A   1      -6.656   5.169 125.083  0.00  0.00    +0.008 C 
ATOM     27  C   LIG A   1      -6.301   3.081 123.667  0.00  0.00    -0.011 C 
ATOM     28  C   LIG A   1      -5.647   3.955 122.584  0.00  0.00    +0.008 C 
ATOM     29  C   LIG A   1      -7.005   1.911 122.976  0.00  0.00    +0.004 C 
ATOM     30  C   LIG A   1      -8.113   1.271 123.800  0.00  0.00    +0.011 C 
ENDROOT
BRANCH   4  31
ATOM     31  O   LIG A   1      -4.680   6.586 129.859  0.00  0.00    -0.461 OA
BRANCH  31  32
ATOM     32  C   LIG A   1      -3.931   7.562 129.267  0.00  0.00    +0.304 C 
ATOM     33  C   LIG A   1      -2.971   6.986 128.264  0.00  0.00    +0.136 C 
ATOM     34  O   LIG A   1      -3.986   8.756 129.529  0.00  0.00    -0.251 OA
ENDBRANCH  31  32
ENDBRANCH   4  31
BRANCH  21  35
ATOM     35  O   LIG A   1      -6.044  -0.051 124.935  0.00  0.00    -0.461 OA
BRANCH  35  36
ATOM     36  C   LIG A   1      -5.953  -1.403 125.078  0.00  0.00    +0.304 C 
ATOM     37  C   LIG A   1      -6.042  -2.067 123.737  0.00  0.00    +0.136 C 
ATOM     38  O   LIG A   1      -5.941  -1.998 126.138  0.00  0.00    -0.251 OA
ENDBRANCH  35  36
ENDBRANCH  21  35
TORSDOF 4
ENDMDL
MODEL 9
REMARK VINA RESULT:      -8.2      2.743      8.619
REMARK  Name = NuBBE_1355
REMARK  14 active torsions:
REMARK  status: ('A' for Active; 'I' for Inactive)
REMARK    1  A    between atoms: C_1  and  C_2
REMARK    2  A    between atoms: C_2  and  C_3
REMARK    3  A    between atoms: C_4  and  O_6
REMARK    4  A    between atoms: O_6  and  C_7
REMARK    5  A    between atoms: C_7  and  C_8
REMARK    6  A    between atoms: C_12  and  C_13
REMARK    7  A    between atoms: C_17  and  C_18
REMARK    8  A    between atoms: C_23  and  C_24
REMARK    9  A    between atoms: C_26  and  O_28
REMARK   10  A    between atoms: O_28  and  C_29
REMARK   11  A    between atoms: C_29  and  C_30
REMARK   12  A    between atoms: C_32  and  C_33
REMARK   13  A    between atoms: C_35  and  C_37
REMARK   14  A    between atoms: C_38  and  C_40
REMARK                            x       y       z     vdW  Elec       q    Type
REMARK                         _______ _______ _______ _____ _____    ______ ____
ROOT
ATOM      1  C   LIG A   1      -9.383   1.197 126.265  0.00  0.00    +0.015 C 
ATOM      2  C   LIG A   1      -8.042   0.454 126.484  0.00  0.00    +0.006 C 
ATOM      3  C   LIG A   1      -8.359  -0.999 126.002  0.00  0.00    +0.015 C 
ATOM      4  C   LIG A   1      -6.944   1.048 125.551  0.00  0.00    +0.182 C 
ATOM      5  C   LIG A   1      -5.594   0.324 125.679  0.00  0.00    +0.046 C 
ATOM      6  C   LIG A   1      -5.366  -0.396 127.007  0.00  0.00    +0.015 C 
ATOM      7  C   LIG A   1      -6.011   0.288 128.241  0.00  0.00    -0.007 C 
ATOM      8  C   LIG A   1      -5.769  -0.710 129.417  0.00  0.00    +0.016 C 
ATOM      9  C   LIG A   1      -7.573   0.416 128.015  0.00  0.00    +0.008 C 
ATOM     10  C   LIG A   1      -8.262   1.435 128.967  0.00  0.00    +0.006 C 
ATOM     11  C   LIG A   1      -7.374   2.068 130.050  0.00  0.00    +0.012 C 
ATOM     12  C   LIG A   1      -6.060   2.664 129.486  0.00  0.00    -0.001 C 
ATOM     13  C   LIG A   1      -6.479   3.830 128.567  0.00  0.00    +0.016 C 
ATOM     14  C   LIG A   1      -5.309   1.613 128.623  0.00  0.00    -0.057 C 
ATOM     15  C   LIG A   1      -4.000   1.852 128.363  0.00  0.00    +0.000 C 
ATOM     16  C   LIG A   1      -3.306   3.021 128.858  0.00  0.00    +0.000 C 
ATOM     17  C   LIG A   1      -3.762   3.725 129.915  0.00  0.00    -0.059 C 
ATOM     18  C   LIG A   1      -5.040   3.209 130.615  0.00  0.00    +0.002 C 
ATOM     19  C   LIG A   1      -4.706   2.022 131.577  0.00  0.00    +0.017 C 
ATOM     20  C   LIG A   1      -5.594   4.371 131.459  0.00  0.00    +0.057 C 
ATOM     21  C   LIG A   1      -4.585   4.865 132.519  0.00  0.00    +0.184 C 
ATOM     22  C   LIG A   1      -3.135   5.175 131.963  0.00  0.00    +0.012 C 
ATOM     23  C   LIG A   1      -2.125   4.189 132.631  0.00  0.00    +0.015 C 
ATOM     24  C   LIG A   1      -3.033   4.989 130.407  0.00  0.00    +0.028 C 
ATOM     25  C   LIG A   1      -3.206   6.350 129.603  0.00  0.00    -0.003 C 
ATOM     26  C   LIG A   1      -3.710   6.216 128.163  0.00  0.00    +0.008 C 
ATOM     27  C   LIG A   1      -3.979   7.449 130.376  0.00  0.00    -0.011 C 
ATOM     28  C   LIG A   1      -4.137   8.766 129.597  0.00  0.00    +0.008 C 
ATOM     29  C   LIG A   1      -3.308   7.765 131.715  0.00  0.00    +0.004 C 
ATOM     30  C   LIG A   1      -2.608   6.578 132.361  0.00  0.00    +0.011 C 
ENDROOT
BRANCH   4  31
ATOM     31  O   LIG A   1      -6.723   2.456 125.817  0.00  0.00    -0.461 OA
BRANCH  31  32
ATOM     32  C   LIG A   1      -6.104   3.193 124.849  0.00  0.00    +0.304 C 
ATOM     33  C   LIG A   1      -4.885   3.891 125.384  0.00  0.00    +0.136 C 
ATOM     34  O   LIG A   1      -6.492   3.318 123.695  0.00  0.00    -0.251 OA
ENDBRANCH  31  32
ENDBRANCH   4  31
BRANCH  21  35
ATOM     35  O   LIG A   1      -5.105   6.008 133.229  0.00  0.00    -0.461 OA
BRANCH  35  36
ATOM     36  C   LIG A   1      -5.709   5.713 134.414  0.00  0.00    +0.304 C 
ATOM     37  C   LIG A   1      -4.691   5.221 135.398  0.00  0.00    +0.136 C 
ATOM     38  O   LIG A   1      -6.908   5.713 134.611  0.00  0.00    -0.251 OA
ENDBRANCH  35  36
ENDBRANCH  21  35
TORSDOF 4
ENDMDL
