MODEL 1
REMARK VINA RESULT:      -5.6      0.000      0.000
REMARK  Name = NuBBE_304
REMARK  16 active torsions:
REMARK  status: ('A' for Active; 'I' for Inactive)
REMARK    1  A    between atoms: C_3  and  C_5
REMARK    2  A    between atoms: C_6  and  O_8
REMARK    3  A    between atoms: C_11  and  C_13
REMARK    4  A    between atoms: C_13  and  C_14
REMARK    5  A    between atoms: C_14  and  C_15
REMARK    6  A    between atoms: C_15  and  C_16
REMARK    7  A    between atoms: C_16  and  C_17
REMARK    8  A    between atoms: C_17  and  C_18
REMARK    9  A    between atoms: C_18  and  C_19
REMARK   10  A    between atoms: C_19  and  C_20
REMARK   11  A    between atoms: C_20  and  C_21
REMARK   12  A    between atoms: C_21  and  C_22
REMARK   13  A    between atoms: C_22  and  C_23
REMARK   14  A    between atoms: C_23  and  C_24
REMARK   15  A    between atoms: C_24  and  C_25
REMARK   16  A    between atoms: C_25  and  C_26
REMARK                            x       y       z     vdW  Elec       q    Type
REMARK                         _______ _______ _______ _____ _____    ______ ____
ROOT
ATOM      1  C   LIG A   1      -9.040  -3.028 126.737  0.00  0.00    +0.000 C 
ENDROOT
BRANCH   1   2
ATOM      2  C   LIG A   1      -8.587  -3.494 128.136  0.00  0.00    +0.002 C 
BRANCH   2   3
ATOM      3  C   LIG A   1      -7.474  -2.616 128.754  0.00  0.00    +0.019 C 
BRANCH   3  11
ATOM      4  H   LIG A   1      -5.439  -1.456 129.402  0.00  0.00    +0.122 HD
ATOM      5  N   LIG A   1      -5.066  -2.359 129.114  0.00  0.00    -0.308 NA
ATOM      6  C   LIG A   1      -3.883  -2.694 129.912  0.00  0.00    +0.079 C 
ATOM      7  C   LIG A   1      -2.920  -3.593 129.130  0.00  0.00    +0.026 C 
ATOM      8  C   LIG A   1      -4.247  -3.232 131.307  0.00  0.00    +0.131 C 
ATOM      9  C   LIG A   1      -5.113  -4.475 131.212  0.00  0.00    +0.034 C 
ATOM     10  C   LIG A   1      -6.297  -4.314 130.262  0.00  0.00    +0.021 C 
ATOM     11  C   LIG A   1      -6.132  -3.373 129.043  0.00  0.00    +0.054 C 
BRANCH   8  12
ATOM     12  O   LIG A   1      -3.085  -3.548 132.073  0.00  0.00    -0.390 OA
ATOM     13  H   LIG A   1      -3.255  -4.391 132.530  0.00  0.00    +0.210 HD
ENDBRANCH   8  12
ENDBRANCH   3  11
ENDBRANCH   2   3
ENDBRANCH   1   2
BRANCH   1  14
ATOM     14  C   LIG A   1      -8.335  -3.729 125.548  0.00  0.00    -0.000 C 
BRANCH  14  15
ATOM     15  C   LIG A   1      -9.009  -3.578 124.172  0.00  0.00    -0.000 C 
BRANCH  15  16
ATOM     16  C   LIG A   1      -8.824  -2.164 123.570  0.00  0.00    -0.000 C 
BRANCH  16  17
ATOM     17  C   LIG A   1      -7.581  -2.015 122.659  0.00  0.00    -0.000 C 
BRANCH  17  18
ATOM     18  C   LIG A   1      -6.509  -1.161 123.341  0.00  0.00    -0.000 C 
BRANCH  18  19
ATOM     19  C   LIG A   1      -5.574  -1.866 124.329  0.00  0.00    +0.000 C 
BRANCH  19  20
ATOM     20  C   LIG A   1      -5.669  -1.140 125.686  0.00  0.00    +0.000 C 
BRANCH  20  21
ATOM     21  C   LIG A   1      -6.392   0.209 125.664  0.00  0.00    +0.007 C 
BRANCH  21  22
ATOM     22  C   LIG A   1      -7.322   0.426 126.852  0.00  0.00    +0.074 C 
BRANCH  22  23
ATOM     23  C   LIG A   1      -8.533   1.249 126.498  0.00  0.00    +0.130 C 
ATOM     24  C   LIG A   1      -9.661   0.568 125.774  0.00  0.00    +0.086 C 
ATOM     25  O   LIG A   1      -8.615   2.456 126.828  0.00  0.00    -0.298 OA
ENDBRANCH  22  23
ENDBRANCH  21  22
ENDBRANCH  20  21
ENDBRANCH  19  20
ENDBRANCH  18  19
ENDBRANCH  17  18
ENDBRANCH  16  17
ENDBRANCH  15  16
ENDBRANCH  14  15
ENDBRANCH   1  14
TORSDOF 14
ENDMDL
MODEL 2
REMARK VINA RESULT:      -5.6      3.020      6.413
REMARK  Name = NuBBE_304
REMARK  16 active torsions:
REMARK  status: ('A' for Active; 'I' for Inactive)
REMARK    1  A    between atoms: C_3  and  C_5
REMARK    2  A    between atoms: C_6  and  O_8
REMARK    3  A    between atoms: C_11  and  C_13
REMARK    4  A    between atoms: C_13  and  C_14
REMARK    5  A    between atoms: C_14  and  C_15
REMARK    6  A    between atoms: C_15  and  C_16
REMARK    7  A    between atoms: C_16  and  C_17
REMARK    8  A    between atoms: C_17  and  C_18
REMARK    9  A    between atoms: C_18  and  C_19
REMARK   10  A    between atoms: C_19  and  C_20
REMARK   11  A    between atoms: C_20  and  C_21
REMARK   12  A    between atoms: C_21  and  C_22
REMARK   13  A    between atoms: C_22  and  C_23
REMARK   14  A    between atoms: C_23  and  C_24
REMARK   15  A    between atoms: C_24  and  C_25
REMARK   16  A    between atoms: C_25  and  C_26
REMARK                            x       y       z     vdW  Elec       q    Type
REMARK                         _______ _______ _______ _____ _____    ______ ____
ROOT
ATOM      1  C   LIG A   1      -7.014  -1.764 128.883  0.00  0.00    +0.000 C 
ENDROOT
BRANCH   1   2
ATOM      2  C   LIG A   1      -7.861  -0.651 128.232  0.00  0.00    +0.002 C 
BRANCH   2   3
ATOM      3  C   LIG A   1      -7.250  -0.087 126.928  0.00  0.00    +0.019 C 
BRANCH   3  11
ATOM      4  H   LIG A   1      -6.086   1.374 125.373  0.00  0.00    +0.122 HD
ATOM      5  N   LIG A   1      -6.752   2.022 125.789  0.00  0.00    -0.308 NA
ATOM      6  C   LIG A   1      -7.153   3.032 124.806  0.00  0.00    +0.079 C 
ATOM      7  C   LIG A   1      -7.543   4.349 125.487  0.00  0.00    +0.026 C 
ATOM      8  C   LIG A   1      -8.208   2.505 123.817  0.00  0.00    +0.131 C 
ATOM      9  C   LIG A   1      -9.457   2.033 124.540  0.00  0.00    +0.034 C 
ATOM     10  C   LIG A   1      -9.161   1.103 125.712  0.00  0.00    +0.021 C 
ATOM     11  C   LIG A   1      -7.832   1.299 126.482  0.00  0.00    +0.054 C 
BRANCH   8  12
ATOM     12  O   LIG A   1      -8.585   3.498 122.863  0.00  0.00    -0.390 OA
ATOM     13  H   LIG A   1      -9.356   3.971 123.222  0.00  0.00    +0.210 HD
ENDBRANCH   8  12
ENDBRANCH   3  11
ENDBRANCH   2   3
ENDBRANCH   1   2
BRANCH   1  14
ATOM     14  C   LIG A   1      -7.539  -3.206 128.664  0.00  0.00    -0.000 C 
BRANCH  14  15
ATOM     15  C   LIG A   1      -8.828  -3.342 127.834  0.00  0.00    -0.000 C 
BRANCH  15  16
ATOM     16  C   LIG A   1      -8.547  -3.670 126.348  0.00  0.00    -0.000 C 
BRANCH  16  17
ATOM     17  C   LIG A   1      -9.323  -2.786 125.340  0.00  0.00    -0.000 C 
BRANCH  17  18
ATOM     18  C   LIG A   1      -9.341  -3.434 123.954  0.00  0.00    -0.000 C 
BRANCH  18  19
ATOM     19  C   LIG A   1      -8.786  -2.611 122.786  0.00  0.00    +0.000 C 
BRANCH  19  20
ATOM     20  C   LIG A   1      -8.313  -1.251 123.337  0.00  0.00    +0.000 C 
BRANCH  20  21
ATOM     21  C   LIG A   1      -6.801  -1.014 123.307  0.00  0.00    +0.007 C 
BRANCH  21  22
ATOM     22  C   LIG A   1      -6.015  -2.156 122.672  0.00  0.00    +0.074 C 
BRANCH  22  23
ATOM     23  C   LIG A   1      -5.206  -2.932 123.677  0.00  0.00    +0.130 C 
ATOM     24  C   LIG A   1      -5.400  -2.617 125.134  0.00  0.00    +0.086 C 
ATOM     25  O   LIG A   1      -4.420  -3.840 123.315  0.00  0.00    -0.298 OA
ENDBRANCH  22  23
ENDBRANCH  21  22
ENDBRANCH  20  21
ENDBRANCH  19  20
ENDBRANCH  18  19
ENDBRANCH  17  18
ENDBRANCH  16  17
ENDBRANCH  15  16
ENDBRANCH  14  15
ENDBRANCH   1  14
TORSDOF 14
ENDMDL
MODEL 3
REMARK VINA RESULT:      -5.6      1.214      1.667
REMARK  Name = NuBBE_304
REMARK  16 active torsions:
REMARK  status: ('A' for Active; 'I' for Inactive)
REMARK    1  A    between atoms: C_3  and  C_5
REMARK    2  A    between atoms: C_6  and  O_8
REMARK    3  A    between atoms: C_11  and  C_13
REMARK    4  A    between atoms: C_13  and  C_14
REMARK    5  A    between atoms: C_14  and  C_15
REMARK    6  A    between atoms: C_15  and  C_16
REMARK    7  A    between atoms: C_16  and  C_17
REMARK    8  A    between atoms: C_17  and  C_18
REMARK    9  A    between atoms: C_18  and  C_19
REMARK   10  A    between atoms: C_19  and  C_20
REMARK   11  A    between atoms: C_20  and  C_21
REMARK   12  A    between atoms: C_21  and  C_22
REMARK   13  A    between atoms: C_22  and  C_23
REMARK   14  A    between atoms: C_23  and  C_24
REMARK   15  A    between atoms: C_24  and  C_25
REMARK   16  A    between atoms: C_25  and  C_26
REMARK                            x       y       z     vdW  Elec       q    Type
REMARK                         _______ _______ _______ _____ _____    ______ ____
ROOT
ATOM      1  C   LIG A   1      -9.106  -3.560 127.016  0.00  0.00    +0.000 C 
ENDROOT
BRANCH   1   2
ATOM      2  C   LIG A   1      -7.934  -2.957 127.818  0.00  0.00    +0.002 C 
BRANCH   2   3
ATOM      3  C   LIG A   1      -8.028  -3.209 129.340  0.00  0.00    +0.019 C 
BRANCH   3  11
ATOM      4  H   LIG A   1      -6.076  -4.657 129.289  0.00  0.00    +0.122 HD
ATOM      5  N   LIG A   1      -5.878  -4.091 130.113  0.00  0.00    -0.308 NA
ATOM      6  C   LIG A   1      -4.433  -3.900 130.258  0.00  0.00    +0.079 C 
ATOM      7  C   LIG A   1      -4.041  -3.708 131.727  0.00  0.00    +0.026 C 
ATOM      8  C   LIG A   1      -3.885  -2.811 129.318  0.00  0.00    +0.131 C 
ATOM      9  C   LIG A   1      -4.561  -1.475 129.567  0.00  0.00    +0.034 C 
ATOM     10  C   LIG A   1      -6.084  -1.569 129.616  0.00  0.00    +0.021 C 
ATOM     11  C   LIG A   1      -6.718  -2.882 130.137  0.00  0.00    +0.054 C 
BRANCH   8  12
ATOM     12  O   LIG A   1      -2.476  -2.640 129.467  0.00  0.00    -0.390 OA
ATOM     13  H   LIG A   1      -2.207  -1.907 128.886  0.00  0.00    +0.210 HD
ENDBRANCH   8  12
ENDBRANCH   3  11
ENDBRANCH   2   3
ENDBRANCH   1   2
BRANCH   1  14
ATOM     14  C   LIG A   1      -9.411  -2.861 125.667  0.00  0.00    -0.000 C 
BRANCH  14  15
ATOM     15  C   LIG A   1      -8.694  -3.428 124.428  0.00  0.00    -0.000 C 
BRANCH  15  16
ATOM     16  C   LIG A   1      -8.393  -2.343 123.366  0.00  0.00    -0.000 C 
BRANCH  16  17
ATOM     17  C   LIG A   1      -6.892  -1.988 123.223  0.00  0.00    -0.000 C 
BRANCH  17  18
ATOM     18  C   LIG A   1      -6.033  -2.906 124.096  0.00  0.00    -0.000 C 
BRANCH  18  19
ATOM     19  C   LIG A   1      -5.554  -2.350 125.441  0.00  0.00    +0.000 C 
BRANCH  19  20
ATOM     20  C   LIG A   1      -5.524  -0.812 125.344  0.00  0.00    +0.000 C 
BRANCH  20  21
ATOM     21  C   LIG A   1      -6.553  -0.075 126.205  0.00  0.00    +0.007 C 
BRANCH  21  22
ATOM     22  C   LIG A   1      -7.293   1.032 125.462  0.00  0.00    +0.074 C 
BRANCH  22  23
ATOM     23  C   LIG A   1      -8.703   1.218 125.954  0.00  0.00    +0.130 C 
ATOM     24  C   LIG A   1      -9.828   0.802 125.047  0.00  0.00    +0.086 C 
ATOM     25  O   LIG A   1      -8.936   1.673 127.099  0.00  0.00    -0.298 OA
ENDBRANCH  22  23
ENDBRANCH  21  22
ENDBRANCH  20  21
ENDBRANCH  19  20
ENDBRANCH  18  19
ENDBRANCH  17  18
ENDBRANCH  16  17
ENDBRANCH  15  16
ENDBRANCH  14  15
ENDBRANCH   1  14
TORSDOF 14
ENDMDL
MODEL 4
REMARK VINA RESULT:      -5.5      2.244      7.162
REMARK  Name = NuBBE_304
REMARK  16 active torsions:
REMARK  status: ('A' for Active; 'I' for Inactive)
REMARK    1  A    between atoms: C_3  and  C_5
REMARK    2  A    between atoms: C_6  and  O_8
REMARK    3  A    between atoms: C_11  and  C_13
REMARK    4  A    between atoms: C_13  and  C_14
REMARK    5  A    between atoms: C_14  and  C_15
REMARK    6  A    between atoms: C_15  and  C_16
REMARK    7  A    between atoms: C_16  and  C_17
REMARK    8  A    between atoms: C_17  and  C_18
REMARK    9  A    between atoms: C_18  and  C_19
REMARK   10  A    between atoms: C_19  and  C_20
REMARK   11  A    between atoms: C_20  and  C_21
REMARK   12  A    between atoms: C_21  and  C_22
REMARK   13  A    between atoms: C_22  and  C_23
REMARK   14  A    between atoms: C_23  and  C_24
REMARK   15  A    between atoms: C_24  and  C_25
REMARK   16  A    between atoms: C_25  and  C_26
REMARK                            x       y       z     vdW  Elec       q    Type
REMARK                         _______ _______ _______ _____ _____    ______ ____
ROOT
ATOM      1  C   LIG A   1      -8.746  -3.004 123.323  0.00  0.00    +0.000 C 
ENDROOT
BRANCH   1   2
ATOM      2  C   LIG A   1      -8.729  -1.463 123.386  0.00  0.00    +0.002 C 
BRANCH   2   3
ATOM      3  C   LIG A   1      -7.332  -0.846 123.144  0.00  0.00    +0.019 C 
BRANCH   3  11
ATOM      4  H   LIG A   1      -7.757   1.393 122.300  0.00  0.00    +0.122 HD
ATOM      5  N   LIG A   1      -7.128   1.593 123.076  0.00  0.00    -0.308 NA
ATOM      6  C   LIG A   1      -7.460   2.888 123.675  0.00  0.00    +0.079 C 
ATOM      7  C   LIG A   1      -6.228   3.543 124.306  0.00  0.00    +0.026 C 
ATOM      8  C   LIG A   1      -8.675   2.807 124.616  0.00  0.00    +0.131 C 
ATOM      9  C   LIG A   1      -8.437   1.818 125.742  0.00  0.00    +0.034 C 
ATOM     10  C   LIG A   1      -7.913   0.468 125.260  0.00  0.00    +0.021 C 
ATOM     11  C   LIG A   1      -7.031   0.440 123.988  0.00  0.00    +0.054 C 
BRANCH   8  12
ATOM     12  O   LIG A   1      -8.991   4.076 125.187  0.00  0.00    -0.390 OA
ATOM     13  H   LIG A   1      -8.195   4.632 125.123  0.00  0.00    +0.210 HD
ENDBRANCH   8  12
ENDBRANCH   3  11
ENDBRANCH   2   3
ENDBRANCH   1   2
BRANCH   1  14
ATOM     14  C   LIG A   1      -8.705  -3.721 124.696  0.00  0.00    -0.000 C 
BRANCH  14  15
ATOM     15  C   LIG A   1      -9.424  -3.010 125.857  0.00  0.00    -0.000 C 
BRANCH  15  16
ATOM     16  C   LIG A   1      -8.479  -2.703 127.044  0.00  0.00    -0.000 C 
BRANCH  16  17
ATOM     17  C   LIG A   1      -8.683  -3.618 128.277  0.00  0.00    -0.000 C 
BRANCH  17  18
ATOM     18  C   LIG A   1      -7.442  -3.602 129.173  0.00  0.00    -0.000 C 
BRANCH  18  19
ATOM     19  C   LIG A   1      -7.463  -2.664 130.386  0.00  0.00    +0.000 C 
BRANCH  19  20
ATOM     20  C   LIG A   1      -6.746  -3.371 131.553  0.00  0.00    +0.000 C 
BRANCH  20  21
ATOM     21  C   LIG A   1      -5.690  -4.404 131.152  0.00  0.00    +0.007 C 
BRANCH  21  22
ATOM     22  C   LIG A   1      -4.269  -4.011 131.542  0.00  0.00    +0.074 C 
BRANCH  22  23
ATOM     23  C   LIG A   1      -3.590  -3.174 130.491  0.00  0.00    +0.130 C 
ATOM     24  C   LIG A   1      -3.733  -3.592 129.054  0.00  0.00    +0.086 C 
ATOM     25  O   LIG A   1      -2.953  -2.138 130.799  0.00  0.00    -0.298 OA
ENDBRANCH  22  23
ENDBRANCH  21  22
ENDBRANCH  20  21
ENDBRANCH  19  20
ENDBRANCH  18  19
ENDBRANCH  17  18
ENDBRANCH  16  17
ENDBRANCH  15  16
ENDBRANCH  14  15
ENDBRANCH   1  14
TORSDOF 14
ENDMDL
MODEL 5
REMARK VINA RESULT:      -5.5      1.516      1.888
REMARK  Name = NuBBE_304
REMARK  16 active torsions:
REMARK  status: ('A' for Active; 'I' for Inactive)
REMARK    1  A    between atoms: C_3  and  C_5
REMARK    2  A    between atoms: C_6  and  O_8
REMARK    3  A    between atoms: C_11  and  C_13
REMARK    4  A    between atoms: C_13  and  C_14
REMARK    5  A    between atoms: C_14  and  C_15
REMARK    6  A    between atoms: C_15  and  C_16
REMARK    7  A    between atoms: C_16  and  C_17
REMARK    8  A    between atoms: C_17  and  C_18
REMARK    9  A    between atoms: C_18  and  C_19
REMARK   10  A    between atoms: C_19  and  C_20
REMARK   11  A    between atoms: C_20  and  C_21
REMARK   12  A    between atoms: C_21  and  C_22
REMARK   13  A    between atoms: C_22  and  C_23
REMARK   14  A    between atoms: C_23  and  C_24
REMARK   15  A    between atoms: C_24  and  C_25
REMARK   16  A    between atoms: C_25  and  C_26
REMARK                            x       y       z     vdW  Elec       q    Type
REMARK                         _______ _______ _______ _____ _____    ______ ____
ROOT
ATOM      1  C   LIG A   1      -7.787  -2.777 126.915  0.00  0.00    +0.000 C 
ENDROOT
BRANCH   1   2
ATOM      2  C   LIG A   1      -7.843  -1.599 127.909  0.00  0.00    +0.002 C 
BRANCH   2   3
ATOM      3  C   LIG A   1      -7.355  -1.960 129.331  0.00  0.00    +0.019 C 
BRANCH   3  11
ATOM      4  H   LIG A   1      -5.158  -1.274 130.112  0.00  0.00    +0.122 HD
ATOM      5  N   LIG A   1      -4.928  -2.130 129.610  0.00  0.00    -0.308 NA
ATOM      6  C   LIG A   1      -3.791  -2.799 130.247  0.00  0.00    +0.079 C 
ATOM      7  C   LIG A   1      -2.987  -3.620 129.233  0.00  0.00    +0.026 C 
ATOM      8  C   LIG A   1      -4.201  -3.588 131.504  0.00  0.00    +0.131 C 
ATOM      9  C   LIG A   1      -5.244  -4.643 131.179  0.00  0.00    +0.034 C 
ATOM     10  C   LIG A   1      -6.409  -4.105 130.354  0.00  0.00    +0.021 C 
ATOM     11  C   LIG A   1      -6.133  -2.942 129.371  0.00  0.00    +0.054 C 
BRANCH   8  12
ATOM     12  O   LIG A   1      -3.083  -4.231 132.116  0.00  0.00    -0.390 OA
ATOM     13  H   LIG A   1      -2.493  -4.534 131.404  0.00  0.00    +0.210 HD
ENDBRANCH   8  12
ENDBRANCH   3  11
ENDBRANCH   2   3
ENDBRANCH   1   2
BRANCH   1  14
ATOM     14  C   LIG A   1      -9.147  -3.178 126.289  0.00  0.00    -0.000 C 
BRANCH  14  15
ATOM     15  C   LIG A   1      -9.243  -3.087 124.755  0.00  0.00    -0.000 C 
BRANCH  15  16
ATOM     16  C   LIG A   1      -7.855  -3.099 124.071  0.00  0.00    -0.000 C 
BRANCH  16  17
ATOM     17  C   LIG A   1      -7.747  -2.181 122.827  0.00  0.00    -0.000 C 
BRANCH  17  18
ATOM     18  C   LIG A   1      -6.661  -1.122 123.030  0.00  0.00    -0.000 C 
BRANCH  18  19
ATOM     19  C   LIG A   1      -6.449  -0.596 124.454  0.00  0.00    +0.000 C 
BRANCH  19  20
ATOM     20  C   LIG A   1      -7.225   0.727 124.599  0.00  0.00    +0.000 C 
BRANCH  20  21
ATOM     21  C   LIG A   1      -8.610   0.614 125.241  0.00  0.00    +0.007 C 
BRANCH  21  22
ATOM     22  C   LIG A   1      -9.642   1.563 124.642  0.00  0.00    +0.074 C 
BRANCH  22  23
ATOM     23  C   LIG A   1      -9.605   1.587 123.137  0.00  0.00    +0.130 C 
ATOM     24  C   LIG A   1     -10.253   0.450 122.398  0.00  0.00    +0.086 C 
ATOM     25  O   LIG A   1      -9.080   2.542 122.517  0.00  0.00    -0.298 OA
ENDBRANCH  22  23
ENDBRANCH  21  22
ENDBRANCH  20  21
ENDBRANCH  19  20
ENDBRANCH  18  19
ENDBRANCH  17  18
ENDBRANCH  16  17
ENDBRANCH  15  16
ENDBRANCH  14  15
ENDBRANCH   1  14
TORSDOF 14
ENDMDL
MODEL 6
REMARK VINA RESULT:      -5.3      3.318      5.170
REMARK  Name = NuBBE_304
REMARK  16 active torsions:
REMARK  status: ('A' for Active; 'I' for Inactive)
REMARK    1  A    between atoms: C_3  and  C_5
REMARK    2  A    between atoms: C_6  and  O_8
REMARK    3  A    between atoms: C_11  and  C_13
REMARK    4  A    between atoms: C_13  and  C_14
REMARK    5  A    between atoms: C_14  and  C_15
REMARK    6  A    between atoms: C_15  and  C_16
REMARK    7  A    between atoms: C_16  and  C_17
REMARK    8  A    between atoms: C_17  and  C_18
REMARK    9  A    between atoms: C_18  and  C_19
REMARK   10  A    between atoms: C_19  and  C_20
REMARK   11  A    between atoms: C_20  and  C_21
REMARK   12  A    between atoms: C_21  and  C_22
REMARK   13  A    between atoms: C_22  and  C_23
REMARK   14  A    between atoms: C_23  and  C_24
REMARK   15  A    between atoms: C_24  and  C_25
REMARK   16  A    between atoms: C_25  and  C_26
REMARK                            x       y       z     vdW  Elec       q    Type
REMARK                         _______ _______ _______ _____ _____    ______ ____
ROOT
ATOM      1  C   LIG A   1      -6.373  -4.022 129.868  0.00  0.00    +0.000 C 
ENDROOT
BRANCH   1   2
ATOM      2  C   LIG A   1      -5.481  -3.778 131.103  0.00  0.00    +0.002 C 
BRANCH   2   3
ATOM      3  C   LIG A   1      -5.536  -4.919 132.145  0.00  0.00    +0.019 C 
BRANCH   3  11
ATOM      4  H   LIG A   1      -7.126  -3.154 132.662  0.00  0.00    +0.122 HD
ATOM      5  N   LIG A   1      -6.592  -3.196 133.529  0.00  0.00    -0.308 NA
ATOM      6  C   LIG A   1      -7.453  -2.868 134.667  0.00  0.00    +0.079 C 
ATOM      7  C   LIG A   1      -6.649  -2.246 135.814  0.00  0.00    +0.026 C 
ATOM      8  C   LIG A   1      -8.339  -4.052 135.097  0.00  0.00    +0.131 C 
ATOM      9  C   LIG A   1      -7.501  -5.260 135.476  0.00  0.00    +0.034 C 
ATOM     10  C   LIG A   1      -6.434  -5.603 134.440  0.00  0.00    +0.021 C 
ATOM     11  C   LIG A   1      -5.821  -4.447 133.613  0.00  0.00    +0.054 C 
BRANCH   8  12
ATOM     12  O   LIG A   1      -9.175  -3.716 136.203  0.00  0.00    -0.390 OA
ATOM     13  H   LIG A   1      -9.042  -4.394 136.888  0.00  0.00    +0.210 HD
ENDBRANCH   8  12
ENDBRANCH   3  11
ENDBRANCH   2   3
ENDBRANCH   1   2
BRANCH   1  14
ATOM     14  C   LIG A   1      -7.717  -3.250 129.862  0.00  0.00    -0.000 C 
BRANCH  14  15
ATOM     15  C   LIG A   1      -8.688  -3.582 128.714  0.00  0.00    -0.000 C 
BRANCH  15  16
ATOM     16  C   LIG A   1      -8.242  -2.971 127.364  0.00  0.00    -0.000 C 
BRANCH  16  17
ATOM     17  C   LIG A   1      -9.305  -3.061 126.240  0.00  0.00    -0.000 C 
BRANCH  17  18
ATOM     18  C   LIG A   1      -8.687  -3.616 124.954  0.00  0.00    -0.000 C 
BRANCH  18  19
ATOM     19  C   LIG A   1      -9.425  -3.332 123.641  0.00  0.00    +0.000 C 
BRANCH  19  20
ATOM     20  C   LIG A   1      -8.626  -2.271 122.859  0.00  0.00    +0.000 C 
BRANCH  20  21
ATOM     21  C   LIG A   1      -7.345  -1.776 123.536  0.00  0.00    +0.007 C 
BRANCH  21  22
ATOM     22  C   LIG A   1      -6.071  -2.366 122.943  0.00  0.00    +0.074 C 
BRANCH  22  23
ATOM     23  C   LIG A   1      -5.215  -3.053 123.975  0.00  0.00    +0.130 C 
ATOM     24  C   LIG A   1      -4.330  -4.179 123.520  0.00  0.00    +0.086 C 
ATOM     25  O   LIG A   1      -5.212  -2.675 125.170  0.00  0.00    -0.298 OA
ENDBRANCH  22  23
ENDBRANCH  21  22
ENDBRANCH  20  21
ENDBRANCH  19  20
ENDBRANCH  18  19
ENDBRANCH  17  18
ENDBRANCH  16  17
ENDBRANCH  15  16
ENDBRANCH  14  15
ENDBRANCH   1  14
TORSDOF 14
ENDMDL
MODEL 7
REMARK VINA RESULT:      -5.3      5.337      8.726
REMARK  Name = NuBBE_304
REMARK  16 active torsions:
REMARK  status: ('A' for Active; 'I' for Inactive)
REMARK    1  A    between atoms: C_3  and  C_5
REMARK    2  A    between atoms: C_6  and  O_8
REMARK    3  A    between atoms: C_11  and  C_13
REMARK    4  A    between atoms: C_13  and  C_14
REMARK    5  A    between atoms: C_14  and  C_15
REMARK    6  A    between atoms: C_15  and  C_16
REMARK    7  A    between atoms: C_16  and  C_17
REMARK    8  A    between atoms: C_17  and  C_18
REMARK    9  A    between atoms: C_18  and  C_19
REMARK   10  A    between atoms: C_19  and  C_20
REMARK   11  A    between atoms: C_20  and  C_21
REMARK   12  A    between atoms: C_21  and  C_22
REMARK   13  A    between atoms: C_22  and  C_23
REMARK   14  A    between atoms: C_23  and  C_24
REMARK   15  A    between atoms: C_24  and  C_25
REMARK   16  A    between atoms: C_25  and  C_26
REMARK                            x       y       z     vdW  Elec       q    Type
REMARK                         _______ _______ _______ _____ _____    ______ ____
ROOT
ATOM      1  C   LIG A   1      -9.722   1.144 131.881  0.00  0.00    +0.000 C 
ENDROOT
BRANCH   1   2
ATOM      2  C   LIG A   1      -9.583   2.680 131.854  0.00  0.00    +0.002 C 
BRANCH   2   3
ATOM      3  C   LIG A   1      -9.815   3.301 130.457  0.00  0.00    +0.019 C 
BRANCH   3  11
ATOM      4  H   LIG A   1     -11.861   4.315 129.623  0.00  0.00    +0.122 HD
ATOM      5  N   LIG A   1     -11.235   5.118 129.634  0.00  0.00    -0.308 NA
ATOM      6  C   LIG A   1     -11.988   6.340 129.926  0.00  0.00    +0.079 C 
ATOM      7  C   LIG A   1     -11.324   7.569 129.296  0.00  0.00    +0.026 C 
ATOM      8  C   LIG A   1     -12.297   6.498 131.426  0.00  0.00    +0.131 C 
ATOM      9  C   LIG A   1     -11.025   6.523 132.253  0.00  0.00    +0.034 C 
ATOM     10  C   LIG A   1     -10.062   5.388 131.915  0.00  0.00    +0.021 C 
ATOM     11  C   LIG A   1     -10.047   4.852 130.463  0.00  0.00    +0.054 C 
BRANCH   8  12
ATOM     12  O   LIG A   1     -13.036   7.689 131.694  0.00  0.00    -0.390 OA
ATOM     13  H   LIG A   1     -13.267   8.090 130.838  0.00  0.00    +0.210 HD
ENDBRANCH   8  12
ENDBRANCH   3  11
ENDBRANCH   2   3
ENDBRANCH   1   2
BRANCH   1  14
ATOM     14  C   LIG A   1      -8.614   0.368 131.125  0.00  0.00    -0.000 C 
BRANCH  14  15
ATOM     15  C   LIG A   1      -7.893  -0.737 131.919  0.00  0.00    -0.000 C 
BRANCH  15  16
ATOM     16  C   LIG A   1      -7.246  -1.803 131.003  0.00  0.00    -0.000 C 
BRANCH  16  17
ATOM     17  C   LIG A   1      -6.925  -1.306 129.571  0.00  0.00    -0.000 C 
BRANCH  17  18
ATOM     18  C   LIG A   1      -7.348  -2.345 128.530  0.00  0.00    -0.000 C 
BRANCH  18  19
ATOM     19  C   LIG A   1      -8.449  -3.332 128.931  0.00  0.00    +0.000 C 
BRANCH  19  20
ATOM     20  C   LIG A   1      -8.920  -4.070 127.662  0.00  0.00    +0.000 C 
BRANCH  20  21
ATOM     21  C   LIG A   1      -9.166  -3.188 126.436  0.00  0.00    +0.007 C 
BRANCH  21  22
ATOM     22  C   LIG A   1      -8.503  -3.704 125.165  0.00  0.00    +0.074 C 
BRANCH  22  23
ATOM     23  C   LIG A   1      -9.006  -3.014 123.926  0.00  0.00    +0.130 C 
ATOM     24  C   LIG A   1      -8.243  -1.820 123.424  0.00  0.00    +0.086 C 
ATOM     25  O   LIG A   1     -10.010  -3.441 123.308  0.00  0.00    -0.298 OA
ENDBRANCH  22  23
ENDBRANCH  21  22
ENDBRANCH  20  21
ENDBRANCH  19  20
ENDBRANCH  18  19
ENDBRANCH  17  18
ENDBRANCH  16  17
ENDBRANCH  15  16
ENDBRANCH  14  15
ENDBRANCH   1  14
TORSDOF 14
ENDMDL
MODEL 8
REMARK VINA RESULT:      -5.3      2.401      2.837
REMARK  Name = NuBBE_304
REMARK  16 active torsions:
REMARK  status: ('A' for Active; 'I' for Inactive)
REMARK    1  A    between atoms: C_3  and  C_5
REMARK    2  A    between atoms: C_6  and  O_8
REMARK    3  A    between atoms: C_11  and  C_13
REMARK    4  A    between atoms: C_13  and  C_14
REMARK    5  A    between atoms: C_14  and  C_15
REMARK    6  A    between atoms: C_15  and  C_16
REMARK    7  A    between atoms: C_16  and  C_17
REMARK    8  A    between atoms: C_17  and  C_18
REMARK    9  A    between atoms: C_18  and  C_19
REMARK   10  A    between atoms: C_19  and  C_20
REMARK   11  A    between atoms: C_20  and  C_21
REMARK   12  A    between atoms: C_21  and  C_22
REMARK   13  A    between atoms: C_22  and  C_23
REMARK   14  A    between atoms: C_23  and  C_24
REMARK   15  A    between atoms: C_24  and  C_25
REMARK   16  A    between atoms: C_25  and  C_26
REMARK                            x       y       z     vdW  Elec       q    Type
REMARK                         _______ _______ _______ _____ _____    ______ ____
ROOT
ATOM      1  C   LIG A   1      -8.982  -3.824 127.548  0.00  0.00    +0.000 C 
ENDROOT
BRANCH   1   2
ATOM      2  C   LIG A   1      -8.224  -3.611 128.874  0.00  0.00    +0.002 C 
BRANCH   2   3
ATOM      3  C   LIG A   1      -7.763  -2.152 129.099  0.00  0.00    +0.019 C 
BRANCH   3  11
ATOM      4  H   LIG A   1      -8.810  -0.960 130.941  0.00  0.00    +0.122 HD
ATOM      5  N   LIG A   1      -7.830  -0.919 131.214  0.00  0.00    -0.308 NA
ATOM      6  C   LIG A   1      -7.711  -0.943 132.674  0.00  0.00    +0.079 C 
ATOM      7  C   LIG A   1      -6.448  -0.214 133.143  0.00  0.00    +0.026 C 
ATOM      8  C   LIG A   1      -7.865  -2.360 133.255  0.00  0.00    +0.131 C 
ATOM      9  C   LIG A   1      -6.825  -3.307 132.685  0.00  0.00    +0.034 C 
ATOM     10  C   LIG A   1      -6.723  -3.248 131.164  0.00  0.00    +0.021 C 
ATOM     11  C   LIG A   1      -7.031  -1.902 130.463  0.00  0.00    +0.054 C 
BRANCH   8  12
ATOM     12  O   LIG A   1      -7.753  -2.367 134.677  0.00  0.00    -0.390 OA
ATOM     13  H   LIG A   1      -7.446  -3.252 134.943  0.00  0.00    +0.210 HD
ENDBRANCH   8  12
ENDBRANCH   3  11
ENDBRANCH   2   3
ENDBRANCH   1   2
BRANCH   1  14
ATOM     14  C   LIG A   1      -8.612  -2.839 126.410  0.00  0.00    -0.000 C 
BRANCH  14  15
ATOM     15  C   LIG A   1      -9.339  -3.044 125.069  0.00  0.00    -0.000 C 
BRANCH  15  16
ATOM     16  C   LIG A   1      -8.362  -3.310 123.898  0.00  0.00    -0.000 C 
BRANCH  16  17
ATOM     17  C   LIG A   1      -6.892  -3.537 124.330  0.00  0.00    -0.000 C 
BRANCH  17  18
ATOM     18  C   LIG A   1      -6.006  -2.381 123.862  0.00  0.00    -0.000 C 
BRANCH  18  19
ATOM     19  C   LIG A   1      -5.519  -1.393 124.928  0.00  0.00    +0.000 C 
BRANCH  19  20
ATOM     20  C   LIG A   1      -6.420  -0.144 124.875  0.00  0.00    +0.000 C 
BRANCH  20  21
ATOM     21  C   LIG A   1      -7.018   0.183 123.504  0.00  0.00    +0.007 C 
BRANCH  21  22
ATOM     22  C   LIG A   1      -8.538   0.297 123.510  0.00  0.00    +0.074 C 
BRANCH  22  23
ATOM     23  C   LIG A   1      -9.045   1.233 124.575  0.00  0.00    +0.130 C 
ATOM     24  C   LIG A   1      -9.732   0.634 125.771  0.00  0.00    +0.086 C 
ATOM     25  O   LIG A   1      -8.871   2.472 124.487  0.00  0.00    -0.298 OA
ENDBRANCH  22  23
ENDBRANCH  21  22
ENDBRANCH  20  21
ENDBRANCH  19  20
ENDBRANCH  18  19
ENDBRANCH  17  18
ENDBRANCH  16  17
ENDBRANCH  15  16
ENDBRANCH  14  15
ENDBRANCH   1  14
TORSDOF 14
ENDMDL
MODEL 9
REMARK VINA RESULT:      -5.3      7.670      9.873
REMARK  Name = NuBBE_304
REMARK  16 active torsions:
REMARK  status: ('A' for Active; 'I' for Inactive)
REMARK    1  A    between atoms: C_3  and  C_5
REMARK    2  A    between atoms: C_6  and  O_8
REMARK    3  A    between atoms: C_11  and  C_13
REMARK    4  A    between atoms: C_13  and  C_14
REMARK    5  A    between atoms: C_14  and  C_15
REMARK    6  A    between atoms: C_15  and  C_16
REMARK    7  A    between atoms: C_16  and  C_17
REMARK    8  A    between atoms: C_17  and  C_18
REMARK    9  A    between atoms: C_18  and  C_19
REMARK   10  A    between atoms: C_19  and  C_20
REMARK   11  A    between atoms: C_20  and  C_21
REMARK   12  A    between atoms: C_21  and  C_22
REMARK   13  A    between atoms: C_22  and  C_23
REMARK   14  A    between atoms: C_23  and  C_24
REMARK   15  A    between atoms: C_24  and  C_25
REMARK   16  A    between atoms: C_25  and  C_26
REMARK                            x       y       z     vdW  Elec       q    Type
REMARK                         _______ _______ _______ _____ _____    ______ ____
ROOT
ATOM      1  C   LIG A   1      -6.826   4.306 132.679  0.00  0.00    +0.000 C 
ENDROOT
BRANCH   1   2
ATOM      2  C   LIG A   1      -7.235   5.788 132.545  0.00  0.00    +0.002 C 
BRANCH   2   3
ATOM      3  C   LIG A   1      -6.590   6.505 131.337  0.00  0.00    +0.019 C 
BRANCH   3  11
ATOM      4  H   LIG A   1      -6.021   6.115 129.006  0.00  0.00    +0.122 HD
ATOM      5  N   LIG A   1      -5.316   5.550 129.476  0.00  0.00    -0.308 NA
ATOM      6  C   LIG A   1      -4.079   5.534 128.693  0.00  0.00    +0.079 C 
ATOM      7  C   LIG A   1      -3.289   4.241 128.925  0.00  0.00    +0.026 C 
ATOM      8  C   LIG A   1      -3.246   6.815 128.879  0.00  0.00    +0.131 C 
ATOM      9  C   LIG A   1      -2.876   7.027 130.336  0.00  0.00    +0.034 C 
ATOM     10  C   LIG A   1      -4.062   6.892 131.286  0.00  0.00    +0.021 C 
ATOM     11  C   LIG A   1      -5.203   5.921 130.897  0.00  0.00    +0.054 C 
BRANCH   8  12
ATOM     12  O   LIG A   1      -2.047   6.787 128.106  0.00  0.00    -0.390 OA
ATOM     13  H   LIG A   1      -1.379   6.298 128.619  0.00  0.00    +0.210 HD
ENDBRANCH   8  12
ENDBRANCH   3  11
ENDBRANCH   2   3
ENDBRANCH   1   2
BRANCH   1  14
ATOM     14  C   LIG A   1      -7.677   3.474 133.672  0.00  0.00    -0.000 C 
BRANCH  14  15
ATOM     15  C   LIG A   1      -9.190   3.420 133.393  0.00  0.00    -0.000 C 
BRANCH  15  16
ATOM     16  C   LIG A   1      -9.566   2.329 132.362  0.00  0.00    -0.000 C 
BRANCH  16  17
ATOM     17  C   LIG A   1      -9.586   2.817 130.892  0.00  0.00    -0.000 C 
BRANCH  17  18
ATOM     18  C   LIG A   1     -10.624   3.925 130.704  0.00  0.00    -0.000 C 
BRANCH  18  19
ATOM     19  C   LIG A   1     -10.109   5.306 130.282  0.00  0.00    +0.000 C 
BRANCH  19  20
ATOM     20  C   LIG A   1     -10.693   6.354 131.251  0.00  0.00    +0.000 C 
BRANCH  20  21
ATOM     21  C   LIG A   1     -12.150   6.747 130.999  0.00  0.00    +0.007 C 
BRANCH  21  22
ATOM     22  C   LIG A   1     -12.469   7.016 129.533  0.00  0.00    +0.074 C 
BRANCH  22  23
ATOM     23  C   LIG A   1     -12.047   8.392 129.090  0.00  0.00    +0.130 C 
ATOM     24  C   LIG A   1     -12.908   9.557 129.493  0.00  0.00    +0.086 C 
ATOM     25  O   LIG A   1     -10.992   8.568 128.436  0.00  0.00    -0.298 OA
ENDBRANCH  22  23
ENDBRANCH  21  22
ENDBRANCH  20  21
ENDBRANCH  19  20
ENDBRANCH  18  19
ENDBRANCH  17  18
ENDBRANCH  16  17
ENDBRANCH  15  16
ENDBRANCH  14  15
ENDBRANCH   1  14
TORSDOF 14
ENDMDL
