MODEL 1
REMARK VINA RESULT:      -5.9      0.000      0.000
REMARK  Name = NuBBE_456
REMARK  15 active torsions:
REMARK  status: ('A' for Active; 'I' for Inactive)
REMARK    1  A    between atoms: O_1  and  C_2
REMARK    2  A    between atoms: C_4  and  C_6
REMARK    3  A    between atoms: C_9  and  C_11
REMARK    4  A    between atoms: C_11  and  C_12
REMARK    5  A    between atoms: C_12  and  C_13
REMARK    6  A    between atoms: C_13  and  C_14
REMARK    7  A    between atoms: C_14  and  C_15
REMARK    8  A    between atoms: C_15  and  C_16
REMARK    9  A    between atoms: C_16  and  C_17
REMARK   10  A    between atoms: C_17  and  C_18
REMARK   11  A    between atoms: C_18  and  C_19
REMARK   12  A    between atoms: C_19  and  C_20
REMARK   13  A    between atoms: C_20  and  C_21
REMARK   14  A    between atoms: C_21  and  O_22
REMARK   15  A    between atoms: C_21  and  C_23
REMARK                            x       y       z     vdW  Elec       q    Type
REMARK                         _______ _______ _______ _____ _____    ______ ____
ROOT
ATOM      1  C   LIG A   1      -9.676  -0.179 122.841  0.00  0.00    +0.002 C 
ENDROOT
BRANCH   1   2
ATOM      2  C   LIG A   1      -9.353   0.846 123.935  0.00  0.00    +0.019 C 
BRANCH   2   8
ATOM      3  C   LIG A   1      -6.587   3.533 124.384  0.00  0.00    +0.131 C 
ATOM      4  C   LIG A   1      -7.735   3.250 125.381  0.00  0.00    +0.079 C 
ATOM      5  C   LIG A   1      -7.655   4.167 126.595  0.00  0.00    +0.026 C 
ATOM      6  N   LIG A   1      -9.068   3.289 124.779  0.00  0.00    -0.308 NA
ATOM      7  H   LIG A   1      -9.783   3.082 125.472  0.00  0.00    +0.122 HD
ATOM      8  C   LIG A   1      -9.211   2.372 123.635  0.00  0.00    +0.054 C 
ATOM      9  C   LIG A   1      -8.191   2.775 122.549  0.00  0.00    +0.021 C 
ATOM     10  C   LIG A   1      -6.740   2.895 123.022  0.00  0.00    +0.034 C 
BRANCH   3  11
ATOM     11  O   LIG A   1      -6.407   4.951 124.169  0.00  0.00    -0.390 OA
ATOM     12  H   LIG A   1      -6.017   4.979 123.274  0.00  0.00    +0.210 HD
ENDBRANCH   3  11
ENDBRANCH   2   8
ENDBRANCH   1   2
BRANCH   1  13
ATOM     13  C   LIG A   1      -8.783  -1.410 122.829  0.00  0.00    +0.000 C 
BRANCH  13  14
ATOM     14  C   LIG A   1      -9.394  -2.749 123.259  0.00  0.00    -0.000 C 
BRANCH  14  15
ATOM     15  C   LIG A   1      -8.981  -3.508 124.535  0.00  0.00    -0.000 C 
BRANCH  15  16
ATOM     16  C   LIG A   1      -9.118  -2.843 125.909  0.00  0.00    -0.000 C 
BRANCH  16  17
ATOM     17  C   LIG A   1      -7.801  -2.524 126.601  0.00  0.00    -0.000 C 
BRANCH  17  18
ATOM     18  C   LIG A   1      -7.237  -1.219 126.047  0.00  0.00    +0.000 C 
BRANCH  18  19
ATOM     19  C   LIG A   1      -5.928  -1.399 125.294  0.00  0.00    +0.002 C 
BRANCH  19  20
ATOM     20  C   LIG A   1      -5.404  -2.841 125.224  0.00  0.00    +0.031 C 
BRANCH  20  21
ATOM     21  C   LIG A   1      -5.424  -3.519 123.847  0.00  0.00    +0.111 C 
ATOM     22  C   LIG A   1      -4.219  -4.404 123.581  0.00  0.00    +0.037 C 
BRANCH  21  23
ATOM     23  O   LIG A   1      -5.510  -2.553 122.828  0.00  0.00    -0.392 OA
ATOM     24  H   LIG A   1      -5.631  -2.989 121.967  0.00  0.00    +0.210 HD
ENDBRANCH  21  23
ENDBRANCH  20  21
ENDBRANCH  19  20
ENDBRANCH  18  19
ENDBRANCH  17  18
ENDBRANCH  16  17
ENDBRANCH  15  16
ENDBRANCH  14  15
ENDBRANCH  13  14
ENDBRANCH   1  13
TORSDOF 13
ENDMDL
MODEL 2
REMARK VINA RESULT:      -5.7      2.275      3.537
REMARK  Name = NuBBE_456
REMARK  15 active torsions:
REMARK  status: ('A' for Active; 'I' for Inactive)
REMARK    1  A    between atoms: O_1  and  C_2
REMARK    2  A    between atoms: C_4  and  C_6
REMARK    3  A    between atoms: C_9  and  C_11
REMARK    4  A    between atoms: C_11  and  C_12
REMARK    5  A    between atoms: C_12  and  C_13
REMARK    6  A    between atoms: C_13  and  C_14
REMARK    7  A    between atoms: C_14  and  C_15
REMARK    8  A    between atoms: C_15  and  C_16
REMARK    9  A    between atoms: C_16  and  C_17
REMARK   10  A    between atoms: C_17  and  C_18
REMARK   11  A    between atoms: C_18  and  C_19
REMARK   12  A    between atoms: C_19  and  C_20
REMARK   13  A    between atoms: C_20  and  C_21
REMARK   14  A    between atoms: C_21  and  O_22
REMARK   15  A    between atoms: C_21  and  C_23
REMARK                            x       y       z     vdW  Elec       q    Type
REMARK                         _______ _______ _______ _____ _____    ______ ____
ROOT
ATOM      1  C   LIG A   1      -6.190  -1.501 123.445  0.00  0.00    +0.002 C 
ENDROOT
BRANCH   1   2
ATOM      2  C   LIG A   1      -6.564  -0.841 124.777  0.00  0.00    +0.019 C 
BRANCH   2   8
ATOM      3  C   LIG A   1      -9.166   2.035 124.959  0.00  0.00    +0.131 C 
ATOM      4  C   LIG A   1      -8.390   1.604 123.693  0.00  0.00    +0.079 C 
ATOM      5  C   LIG A   1      -8.774   2.456 122.489  0.00  0.00    +0.026 C 
ATOM      6  N   LIG A   1      -6.938   1.567 123.870  0.00  0.00    -0.308 NA
ATOM      7  H   LIG A   1      -6.479   1.263 123.014  0.00  0.00    +0.122 HD
ATOM      8  C   LIG A   1      -6.515   0.706 124.987  0.00  0.00    +0.054 C 
ATOM      9  C   LIG A   1      -7.135   1.251 126.291  0.00  0.00    +0.021 C 
ATOM     10  C   LIG A   1      -8.651   1.463 126.260  0.00  0.00    +0.034 C 
BRANCH   3  11
ATOM     11  O   LIG A   1      -9.185   3.473 125.107  0.00  0.00    -0.390 OA
ATOM     12  H   LIG A   1      -8.476   3.625 125.762  0.00  0.00    +0.210 HD
ENDBRANCH   3  11
ENDBRANCH   2   8
ENDBRANCH   1   2
BRANCH   1  13
ATOM     13  C   LIG A   1      -7.367  -1.874 122.558  0.00  0.00    +0.000 C 
BRANCH  13  14
ATOM     14  C   LIG A   1      -8.750  -1.996 123.207  0.00  0.00    -0.000 C 
BRANCH  14  15
ATOM     15  C   LIG A   1      -9.272  -3.283 123.875  0.00  0.00    -0.000 C 
BRANCH  15  16
ATOM     16  C   LIG A   1      -8.654  -3.780 125.186  0.00  0.00    -0.000 C 
BRANCH  16  17
ATOM     17  C   LIG A   1      -9.066  -2.999 126.425  0.00  0.00    -0.000 C 
BRANCH  17  18
ATOM     18  C   LIG A   1      -8.773  -3.828 127.672  0.00  0.00    +0.000 C 
BRANCH  18  19
ATOM     19  C   LIG A   1      -8.165  -3.019 128.806  0.00  0.00    +0.002 C 
BRANCH  19  20
ATOM     20  C   LIG A   1      -7.204  -1.902 128.372  0.00  0.00    +0.031 C 
BRANCH  20  21
ATOM     21  C   LIG A   1      -5.739  -2.299 128.140  0.00  0.00    +0.111 C 
ATOM     22  C   LIG A   1      -5.127  -3.086 129.284  0.00  0.00    +0.037 C 
BRANCH  21  23
ATOM     23  O   LIG A   1      -4.955  -1.155 127.908  0.00  0.00    -0.392 OA
ATOM     24  H   LIG A   1      -4.651  -1.141 126.984  0.00  0.00    +0.210 HD
ENDBRANCH  21  23
ENDBRANCH  20  21
ENDBRANCH  19  20
ENDBRANCH  18  19
ENDBRANCH  17  18
ENDBRANCH  16  17
ENDBRANCH  15  16
ENDBRANCH  14  15
ENDBRANCH  13  14
ENDBRANCH   1  13
TORSDOF 13
ENDMDL
MODEL 3
REMARK VINA RESULT:      -5.7      3.032      4.105
REMARK  Name = NuBBE_456
REMARK  15 active torsions:
REMARK  status: ('A' for Active; 'I' for Inactive)
REMARK    1  A    between atoms: O_1  and  C_2
REMARK    2  A    between atoms: C_4  and  C_6
REMARK    3  A    between atoms: C_9  and  C_11
REMARK    4  A    between atoms: C_11  and  C_12
REMARK    5  A    between atoms: C_12  and  C_13
REMARK    6  A    between atoms: C_13  and  C_14
REMARK    7  A    between atoms: C_14  and  C_15
REMARK    8  A    between atoms: C_15  and  C_16
REMARK    9  A    between atoms: C_16  and  C_17
REMARK   10  A    between atoms: C_17  and  C_18
REMARK   11  A    between atoms: C_18  and  C_19
REMARK   12  A    between atoms: C_19  and  C_20
REMARK   13  A    between atoms: C_20  and  C_21
REMARK   14  A    between atoms: C_21  and  O_22
REMARK   15  A    between atoms: C_21  and  C_23
REMARK                            x       y       z     vdW  Elec       q    Type
REMARK                         _______ _______ _______ _____ _____    ______ ____
ROOT
ATOM      1  C   LIG A   1      -6.472  -2.446 123.847  0.00  0.00    +0.002 C 
ENDROOT
BRANCH   1   2
ATOM      2  C   LIG A   1      -7.254  -1.183 123.468  0.00  0.00    +0.019 C 
BRANCH   2   8
ATOM      3  C   LIG A   1      -9.452   1.904 124.314  0.00  0.00    +0.131 C 
ATOM      4  C   LIG A   1      -8.537   1.765 123.075  0.00  0.00    +0.079 C 
ATOM      5  C   LIG A   1      -8.598   3.008 122.196  0.00  0.00    +0.026 C 
ATOM      6  N   LIG A   1      -7.152   1.414 123.395  0.00  0.00    -0.308 NA
ATOM      7  H   LIG A   1      -6.599   1.320 122.546  0.00  0.00    +0.122 HD
ATOM      8  C   LIG A   1      -7.040   0.183 124.195  0.00  0.00    +0.054 C 
ATOM      9  C   LIG A   1      -7.794   0.388 125.526  0.00  0.00    +0.021 C 
ATOM     10  C   LIG A   1      -9.242   0.866 125.393  0.00  0.00    +0.034 C 
BRANCH   3  11
ATOM     11  O   LIG A   1      -9.308   3.200 124.938  0.00  0.00    -0.390 OA
ATOM     12  H   LIG A   1      -9.755   3.789 124.301  0.00  0.00    +0.210 HD
ENDBRANCH   3  11
ENDBRANCH   2   8
ENDBRANCH   1   2
BRANCH   1  13
ATOM     13  C   LIG A   1      -7.315  -3.586 124.397  0.00  0.00    +0.000 C 
BRANCH  13  14
ATOM     14  C   LIG A   1      -8.820  -3.351 124.569  0.00  0.00    -0.000 C 
BRANCH  14  15
ATOM     15  C   LIG A   1      -9.482  -2.983 125.911  0.00  0.00    -0.000 C 
BRANCH  15  16
ATOM     16  C   LIG A   1      -8.998  -3.628 127.215  0.00  0.00    -0.000 C 
BRANCH  16  17
ATOM     17  C   LIG A   1      -7.957  -2.825 127.980  0.00  0.00    -0.000 C 
BRANCH  17  18
ATOM     18  C   LIG A   1      -7.949  -3.261 129.442  0.00  0.00    +0.000 C 
BRANCH  18  19
ATOM     19  C   LIG A   1      -6.588  -3.736 129.923  0.00  0.00    +0.002 C 
BRANCH  19  20
ATOM     20  C   LIG A   1      -5.384  -3.007 129.309  0.00  0.00    +0.031 C 
BRANCH  20  21
ATOM     21  C   LIG A   1      -3.994  -3.410 129.820  0.00  0.00    +0.111 C 
ATOM     22  C   LIG A   1      -3.901  -3.508 131.333  0.00  0.00    +0.037 C 
BRANCH  21  23
ATOM     23  O   LIG A   1      -3.024  -2.499 129.366  0.00  0.00    -0.392 OA
ATOM     24  H   LIG A   1      -2.160  -2.943 129.292  0.00  0.00    +0.210 HD
ENDBRANCH  21  23
ENDBRANCH  20  21
ENDBRANCH  19  20
ENDBRANCH  18  19
ENDBRANCH  17  18
ENDBRANCH  16  17
ENDBRANCH  15  16
ENDBRANCH  14  15
ENDBRANCH  13  14
ENDBRANCH   1  13
TORSDOF 13
ENDMDL
MODEL 4
REMARK VINA RESULT:      -5.6      4.054      6.847
REMARK  Name = NuBBE_456
REMARK  15 active torsions:
REMARK  status: ('A' for Active; 'I' for Inactive)
REMARK    1  A    between atoms: O_1  and  C_2
REMARK    2  A    between atoms: C_4  and  C_6
REMARK    3  A    between atoms: C_9  and  C_11
REMARK    4  A    between atoms: C_11  and  C_12
REMARK    5  A    between atoms: C_12  and  C_13
REMARK    6  A    between atoms: C_13  and  C_14
REMARK    7  A    between atoms: C_14  and  C_15
REMARK    8  A    between atoms: C_15  and  C_16
REMARK    9  A    between atoms: C_16  and  C_17
REMARK   10  A    between atoms: C_17  and  C_18
REMARK   11  A    between atoms: C_18  and  C_19
REMARK   12  A    between atoms: C_19  and  C_20
REMARK   13  A    between atoms: C_20  and  C_21
REMARK   14  A    between atoms: C_21  and  O_22
REMARK   15  A    between atoms: C_21  and  C_23
REMARK                            x       y       z     vdW  Elec       q    Type
REMARK                         _______ _______ _______ _____ _____    ______ ____
ROOT
ATOM      1  C   LIG A   1      -8.105  -2.605 127.693  0.00  0.00    +0.002 C 
ENDROOT
BRANCH   1   2
ATOM      2  C   LIG A   1      -8.051  -2.884 129.200  0.00  0.00    +0.019 C 
BRANCH   2   8
ATOM      3  C   LIG A   1      -4.387  -3.917 129.960  0.00  0.00    +0.131 C 
ATOM      4  C   LIG A   1      -5.626  -4.327 130.789  0.00  0.00    +0.079 C 
ATOM      5  C   LIG A   1      -5.238  -5.210 131.969  0.00  0.00    +0.026 C 
ATOM      6  N   LIG A   1      -6.450  -3.198 131.224  0.00  0.00    -0.308 NA
ATOM      7  H   LIG A   1      -7.257  -3.524 131.751  0.00  0.00    +0.122 HD
ATOM      8  C   LIG A   1      -6.899  -2.349 130.109  0.00  0.00    +0.054 C 
ATOM      9  C   LIG A   1      -5.657  -1.777 129.392  0.00  0.00    +0.021 C 
ATOM     10  C   LIG A   1      -4.617  -2.812 128.955  0.00  0.00    +0.034 C 
BRANCH   3  11
ATOM     11  O   LIG A   1      -3.295  -3.496 130.809  0.00  0.00    -0.390 OA
ATOM     12  H   LIG A   1      -3.632  -3.705 131.701  0.00  0.00    +0.210 HD
ENDBRANCH   3  11
ENDBRANCH   2   8
ENDBRANCH   1   2
BRANCH   1  13
ATOM     13  C   LIG A   1      -9.054  -3.496 126.907  0.00  0.00    +0.000 C 
BRANCH  13  14
ATOM     14  C   LIG A   1      -9.404  -3.088 125.472  0.00  0.00    -0.000 C 
BRANCH  14  15
ATOM     15  C   LIG A   1      -8.559  -3.472 124.242  0.00  0.00    -0.000 C 
BRANCH  15  16
ATOM     16  C   LIG A   1      -7.034  -3.567 124.350  0.00  0.00    -0.000 C 
BRANCH  16  17
ATOM     17  C   LIG A   1      -6.278  -2.351 123.836  0.00  0.00    -0.000 C 
BRANCH  17  18
ATOM     18  C   LIG A   1      -5.752  -1.540 125.016  0.00  0.00    +0.000 C 
BRANCH  18  19
ATOM     19  C   LIG A   1      -6.470  -0.213 125.204  0.00  0.00    +0.002 C 
BRANCH  19  20
ATOM     20  C   LIG A   1      -7.416   0.188 124.063  0.00  0.00    +0.031 C 
BRANCH  20  21
ATOM     21  C   LIG A   1      -8.810   0.693 124.464  0.00  0.00    +0.111 C 
ATOM     22  C   LIG A   1      -9.108   0.562 125.946  0.00  0.00    +0.037 C 
BRANCH  21  23
ATOM     23  O   LIG A   1      -9.803   0.008 123.741  0.00  0.00    -0.392 OA
ATOM     24  H   LIG A   1      -9.493  -0.887 123.516  0.00  0.00    +0.210 HD
ENDBRANCH  21  23
ENDBRANCH  20  21
ENDBRANCH  19  20
ENDBRANCH  18  19
ENDBRANCH  17  18
ENDBRANCH  16  17
ENDBRANCH  15  16
ENDBRANCH  14  15
ENDBRANCH  13  14
ENDBRANCH   1  13
TORSDOF 13
ENDMDL
MODEL 5
REMARK VINA RESULT:      -5.6      8.603     12.110
REMARK  Name = NuBBE_456
REMARK  15 active torsions:
REMARK  status: ('A' for Active; 'I' for Inactive)
REMARK    1  A    between atoms: O_1  and  C_2
REMARK    2  A    between atoms: C_4  and  C_6
REMARK    3  A    between atoms: C_9  and  C_11
REMARK    4  A    between atoms: C_11  and  C_12
REMARK    5  A    between atoms: C_12  and  C_13
REMARK    6  A    between atoms: C_13  and  C_14
REMARK    7  A    between atoms: C_14  and  C_15
REMARK    8  A    between atoms: C_15  and  C_16
REMARK    9  A    between atoms: C_16  and  C_17
REMARK   10  A    between atoms: C_17  and  C_18
REMARK   11  A    between atoms: C_18  and  C_19
REMARK   12  A    between atoms: C_19  and  C_20
REMARK   13  A    between atoms: C_20  and  C_21
REMARK   14  A    between atoms: C_21  and  O_22
REMARK   15  A    between atoms: C_21  and  C_23
REMARK                            x       y       z     vdW  Elec       q    Type
REMARK                         _______ _______ _______ _____ _____    ______ ____
ROOT
ATOM      1  C   LIG A   1     -10.277   3.297 130.861  0.00  0.00    +0.002 C 
ENDROOT
BRANCH   1   2
ATOM      2  C   LIG A   1      -9.575   4.240 129.876  0.00  0.00    +0.019 C 
BRANCH   2   8
ATOM      3  C   LIG A   1     -12.387   6.680 130.977  0.00  0.00    +0.131 C 
ATOM      4  C   LIG A   1     -12.146   6.179 129.534  0.00  0.00    +0.079 C 
ATOM      5  C   LIG A   1     -13.167   6.763 128.565  0.00  0.00    +0.026 C 
ATOM      6  N   LIG A   1     -10.781   6.390 129.051  0.00  0.00    -0.308 NA
ATOM      7  H   LIG A   1     -10.673   6.030 128.106  0.00  0.00    +0.122 HD
ATOM      8  C   LIG A   1      -9.760   5.789 129.926  0.00  0.00    +0.054 C 
ATOM      9  C   LIG A   1      -9.871   6.432 131.326  0.00  0.00    +0.021 C 
ATOM     10  C   LIG A   1     -11.266   6.403 131.954  0.00  0.00    +0.034 C 
BRANCH   3  11
ATOM     11  O   LIG A   1     -12.636   8.103 131.010  0.00  0.00    -0.390 OA
ATOM     12  H   LIG A   1     -12.007   8.409 131.692  0.00  0.00    +0.210 HD
ENDBRANCH   3  11
ENDBRANCH   2   8
ENDBRANCH   1   2
BRANCH   1  13
ATOM     13  C   LIG A   1      -9.361   2.617 131.866  0.00  0.00    +0.000 C 
BRANCH  13  14
ATOM     14  C   LIG A   1      -9.357   3.139 133.307  0.00  0.00    -0.000 C 
BRANCH  14  15
ATOM     15  C   LIG A   1      -8.076   3.489 134.088  0.00  0.00    -0.000 C 
BRANCH  15  16
ATOM     16  C   LIG A   1      -7.528   4.920 134.075  0.00  0.00    -0.000 C 
BRANCH  16  17
ATOM     17  C   LIG A   1      -7.995   5.795 135.228  0.00  0.00    -0.000 C 
BRANCH  17  18
ATOM     18  C   LIG A   1      -6.826   6.062 136.172  0.00  0.00    +0.000 C 
BRANCH  18  19
ATOM     19  C   LIG A   1      -7.147   7.075 137.259  0.00  0.00    +0.002 C 
BRANCH  19  20
ATOM     20  C   LIG A   1      -8.642   7.293 137.532  0.00  0.00    +0.031 C 
BRANCH  20  21
ATOM     21  C   LIG A   1      -9.201   8.694 137.250  0.00  0.00    +0.111 C 
ATOM     22  C   LIG A   1      -9.738   9.401 138.482  0.00  0.00    +0.037 C 
BRANCH  21  23
ATOM     23  O   LIG A   1     -10.223   8.627 136.286  0.00  0.00    -0.392 OA
ATOM     24  H   LIG A   1     -10.798   7.863 136.464  0.00  0.00    +0.210 HD
ENDBRANCH  21  23
ENDBRANCH  20  21
ENDBRANCH  19  20
ENDBRANCH  18  19
ENDBRANCH  17  18
ENDBRANCH  16  17
ENDBRANCH  15  16
ENDBRANCH  14  15
ENDBRANCH  13  14
ENDBRANCH   1  13
TORSDOF 13
ENDMDL
MODEL 6
REMARK VINA RESULT:      -5.6      3.584      4.901
REMARK  Name = NuBBE_456
REMARK  15 active torsions:
REMARK  status: ('A' for Active; 'I' for Inactive)
REMARK    1  A    between atoms: O_1  and  C_2
REMARK    2  A    between atoms: C_4  and  C_6
REMARK    3  A    between atoms: C_9  and  C_11
REMARK    4  A    between atoms: C_11  and  C_12
REMARK    5  A    between atoms: C_12  and  C_13
REMARK    6  A    between atoms: C_13  and  C_14
REMARK    7  A    between atoms: C_14  and  C_15
REMARK    8  A    between atoms: C_15  and  C_16
REMARK    9  A    between atoms: C_16  and  C_17
REMARK   10  A    between atoms: C_17  and  C_18
REMARK   11  A    between atoms: C_18  and  C_19
REMARK   12  A    between atoms: C_19  and  C_20
REMARK   13  A    between atoms: C_20  and  C_21
REMARK   14  A    between atoms: C_21  and  O_22
REMARK   15  A    between atoms: C_21  and  C_23
REMARK                            x       y       z     vdW  Elec       q    Type
REMARK                         _______ _______ _______ _____ _____    ______ ____
ROOT
ATOM      1  C   LIG A   1      -8.532  -3.637 125.160  0.00  0.00    +0.002 C 
ENDROOT
BRANCH   1   2
ATOM      2  C   LIG A   1      -9.246  -3.284 123.849  0.00  0.00    +0.019 C 
BRANCH   2   8
ATOM      3  C   LIG A   1      -7.544   0.155 124.440  0.00  0.00    +0.131 C 
ATOM      4  C   LIG A   1      -9.069  -0.091 124.360  0.00  0.00    +0.079 C 
ATOM      5  C   LIG A   1      -9.851   1.203 124.548  0.00  0.00    +0.026 C 
ATOM      6  N   LIG A   1      -9.495  -0.793 123.148  0.00  0.00    -0.308 NA
ATOM      7  H   LIG A   1     -10.501  -0.942 123.153  0.00  0.00    +0.122 HD
ATOM      8  C   LIG A   1      -8.807  -2.081 122.956  0.00  0.00    +0.054 C 
ATOM      9  C   LIG A   1      -7.290  -1.817 122.840  0.00  0.00    +0.021 C 
ATOM     10  C   LIG A   1      -6.678  -0.993 123.975  0.00  0.00    +0.034 C 
BRANCH   3  11
ATOM     11  O   LIG A   1      -7.153   1.317 123.674  0.00  0.00    -0.390 OA
ATOM     12  H   LIG A   1      -6.561   1.786 124.294  0.00  0.00    +0.210 HD
ENDBRANCH   3  11
ENDBRANCH   2   8
ENDBRANCH   1   2
BRANCH   1  13
ATOM     13  C   LIG A   1      -9.273  -3.233 126.425  0.00  0.00    +0.000 C 
BRANCH  13  14
ATOM     14  C   LIG A   1      -8.898  -3.935 127.735  0.00  0.00    -0.000 C 
BRANCH  14  15
ATOM     15  C   LIG A   1      -8.179  -3.236 128.905  0.00  0.00    -0.000 C 
BRANCH  15  16
ATOM     16  C   LIG A   1      -7.269  -2.031 128.645  0.00  0.00    -0.000 C 
BRANCH  16  17
ATOM     17  C   LIG A   1      -6.066  -2.315 127.759  0.00  0.00    -0.000 C 
BRANCH  17  18
ATOM     18  C   LIG A   1      -4.783  -2.035 128.535  0.00  0.00    +0.000 C 
BRANCH  18  19
ATOM     19  C   LIG A   1      -4.084  -3.294 129.022  0.00  0.00    +0.002 C 
BRANCH  19  20
ATOM     20  C   LIG A   1      -3.771  -3.331 130.525  0.00  0.00    +0.031 C 
BRANCH  20  21
ATOM     21  C   LIG A   1      -4.846  -3.930 131.442  0.00  0.00    +0.111 C 
ATOM     22  C   LIG A   1      -5.587  -5.107 130.834  0.00  0.00    +0.037 C 
BRANCH  21  23
ATOM     23  O   LIG A   1      -5.782  -2.945 131.805  0.00  0.00    -0.392 OA
ATOM     24  H   LIG A   1      -5.687  -2.167 131.228  0.00  0.00    +0.210 HD
ENDBRANCH  21  23
ENDBRANCH  20  21
ENDBRANCH  19  20
ENDBRANCH  18  19
ENDBRANCH  17  18
ENDBRANCH  16  17
ENDBRANCH  15  16
ENDBRANCH  14  15
ENDBRANCH  13  14
ENDBRANCH   1  13
TORSDOF 13
ENDMDL
MODEL 7
REMARK VINA RESULT:      -5.5      2.146      4.233
REMARK  Name = NuBBE_456
REMARK  15 active torsions:
REMARK  status: ('A' for Active; 'I' for Inactive)
REMARK    1  A    between atoms: O_1  and  C_2
REMARK    2  A    between atoms: C_4  and  C_6
REMARK    3  A    between atoms: C_9  and  C_11
REMARK    4  A    between atoms: C_11  and  C_12
REMARK    5  A    between atoms: C_12  and  C_13
REMARK    6  A    between atoms: C_13  and  C_14
REMARK    7  A    between atoms: C_14  and  C_15
REMARK    8  A    between atoms: C_15  and  C_16
REMARK    9  A    between atoms: C_16  and  C_17
REMARK   10  A    between atoms: C_17  and  C_18
REMARK   11  A    between atoms: C_18  and  C_19
REMARK   12  A    between atoms: C_19  and  C_20
REMARK   13  A    between atoms: C_20  and  C_21
REMARK   14  A    between atoms: C_21  and  O_22
REMARK   15  A    between atoms: C_21  and  C_23
REMARK                            x       y       z     vdW  Elec       q    Type
REMARK                         _______ _______ _______ _____ _____    ______ ____
ROOT
ATOM      1  C   LIG A   1      -5.206   3.012 126.882  0.00  0.00    +0.002 C 
ENDROOT
BRANCH   1   2
ATOM      2  C   LIG A   1      -5.184   3.293 125.374  0.00  0.00    +0.019 C 
BRANCH   2   8
ATOM      3  C   LIG A   1      -7.714   2.971 122.447  0.00  0.00    +0.131 C 
ATOM      4  C   LIG A   1      -6.278   3.533 122.335  0.00  0.00    +0.079 C 
ATOM      5  C   LIG A   1      -5.956   3.955 120.907  0.00  0.00    +0.026 C 
ATOM      6  N   LIG A   1      -5.987   4.611 123.281  0.00  0.00    -0.308 NA
ATOM      7  H   LIG A   1      -5.027   4.933 123.176  0.00  0.00    +0.122 HD
ATOM      8  C   LIG A   1      -6.227   4.229 124.683  0.00  0.00    +0.054 C 
ATOM      9  C   LIG A   1      -7.715   3.850 124.843  0.00  0.00    +0.021 C 
ATOM     10  C   LIG A   1      -8.236   2.803 123.856  0.00  0.00    +0.034 C 
BRANCH   3  11
ATOM     11  O   LIG A   1      -8.665   3.798 121.739  0.00  0.00    -0.390 OA
ATOM     12  H   LIG A   1      -8.369   3.712 120.813  0.00  0.00    +0.210 HD
ENDBRANCH   3  11
ENDBRANCH   2   8
ENDBRANCH   1   2
BRANCH   1  13
ATOM     13  C   LIG A   1      -5.547   1.581 127.265  0.00  0.00    +0.000 C 
BRANCH  13  14
ATOM     14  C   LIG A   1      -5.889   0.595 126.142  0.00  0.00    -0.000 C 
BRANCH  14  15
ATOM     15  C   LIG A   1      -6.532  -0.785 126.381  0.00  0.00    -0.000 C 
BRANCH  15  16
ATOM     16  C   LIG A   1      -5.690  -2.061 126.266  0.00  0.00    -0.000 C 
BRANCH  16  17
ATOM     17  C   LIG A   1      -5.966  -2.901 125.028  0.00  0.00    -0.000 C 
BRANCH  17  18
ATOM     18  C   LIG A   1      -5.481  -2.156 123.787  0.00  0.00    +0.000 C 
BRANCH  18  19
ATOM     19  C   LIG A   1      -6.537  -2.045 122.699  0.00  0.00    +0.002 C 
BRANCH  19  20
ATOM     20  C   LIG A   1      -7.615  -0.977 122.938  0.00  0.00    +0.031 C 
BRANCH  20  21
ATOM     21  C   LIG A   1      -8.988  -1.473 123.413  0.00  0.00    +0.111 C 
ATOM     22  C   LIG A   1      -9.180  -2.973 123.278  0.00  0.00    +0.037 C 
BRANCH  21  23
ATOM     23  O   LIG A   1     -10.014  -0.820 122.707  0.00  0.00    -0.392 OA
ATOM     24  H   LIG A   1      -9.884  -0.936 121.749  0.00  0.00    +0.210 HD
ENDBRANCH  21  23
ENDBRANCH  20  21
ENDBRANCH  19  20
ENDBRANCH  18  19
ENDBRANCH  17  18
ENDBRANCH  16  17
ENDBRANCH  15  16
ENDBRANCH  14  15
ENDBRANCH  13  14
ENDBRANCH   1  13
TORSDOF 13
ENDMDL
MODEL 8
REMARK VINA RESULT:      -5.4      2.348      5.550
REMARK  Name = NuBBE_456
REMARK  15 active torsions:
REMARK  status: ('A' for Active; 'I' for Inactive)
REMARK    1  A    between atoms: O_1  and  C_2
REMARK    2  A    between atoms: C_4  and  C_6
REMARK    3  A    between atoms: C_9  and  C_11
REMARK    4  A    between atoms: C_11  and  C_12
REMARK    5  A    between atoms: C_12  and  C_13
REMARK    6  A    between atoms: C_13  and  C_14
REMARK    7  A    between atoms: C_14  and  C_15
REMARK    8  A    between atoms: C_15  and  C_16
REMARK    9  A    between atoms: C_16  and  C_17
REMARK   10  A    between atoms: C_17  and  C_18
REMARK   11  A    between atoms: C_18  and  C_19
REMARK   12  A    between atoms: C_19  and  C_20
REMARK   13  A    between atoms: C_20  and  C_21
REMARK   14  A    between atoms: C_21  and  O_22
REMARK   15  A    between atoms: C_21  and  C_23
REMARK                            x       y       z     vdW  Elec       q    Type
REMARK                         _______ _______ _______ _____ _____    ______ ____
ROOT
ATOM      1  C   LIG A   1      -6.493  -3.464 124.224  0.00  0.00    +0.002 C 
ENDROOT
BRANCH   1   2
ATOM      2  C   LIG A   1      -7.678  -3.512 125.197  0.00  0.00    +0.019 C 
BRANCH   2   8
ATOM      3  C   LIG A   1      -9.091  -0.342 123.456  0.00  0.00    +0.131 C 
ATOM      4  C   LIG A   1      -8.945  -0.539 124.983  0.00  0.00    +0.079 C 
ATOM      5  C   LIG A   1      -9.429   0.686 125.750  0.00  0.00    +0.026 C 
ATOM      6  N   LIG A   1      -9.576  -1.760 125.488  0.00  0.00    -0.308 NA
ATOM      7  H   LIG A   1      -9.438  -1.847 126.492  0.00  0.00    +0.122 HD
ATOM      8  C   LIG A   1      -9.095  -2.978 124.816  0.00  0.00    +0.054 C 
ATOM      9  C   LIG A   1      -9.415  -2.870 123.310  0.00  0.00    +0.021 C 
ATOM     10  C   LIG A   1      -8.924  -1.593 122.623  0.00  0.00    +0.034 C 
BRANCH   3  11
ATOM     11  O   LIG A   1     -10.376   0.225 123.114  0.00  0.00    -0.390 OA
ATOM     12  H   LIG A   1     -10.965  -0.553 123.152  0.00  0.00    +0.210 HD
ENDBRANCH   3  11
ENDBRANCH   2   8
ENDBRANCH   1   2
BRANCH   1  13
ATOM     13  C   LIG A   1      -5.508  -2.331 124.462  0.00  0.00    +0.000 C 
BRANCH  13  14
ATOM     14  C   LIG A   1      -5.579  -1.583 125.798  0.00  0.00    -0.000 C 
BRANCH  14  15
ATOM     15  C   LIG A   1      -5.396  -0.059 125.937  0.00  0.00    -0.000 C 
BRANCH  15  16
ATOM     16  C   LIG A   1      -5.513   0.613 127.309  0.00  0.00    -0.000 C 
BRANCH  16  17
ATOM     17  C   LIG A   1      -5.355   2.126 127.297  0.00  0.00    -0.000 C 
BRANCH  17  18
ATOM     18  C   LIG A   1      -4.078   2.500 126.551  0.00  0.00    +0.000 C 
BRANCH  18  19
ATOM     19  C   LIG A   1      -4.219   3.754 125.704  0.00  0.00    +0.002 C 
BRANCH  19  20
ATOM     20  C   LIG A   1      -5.652   4.288 125.557  0.00  0.00    +0.031 C 
BRANCH  20  21
ATOM     21  C   LIG A   1      -6.306   4.147 124.176  0.00  0.00    +0.111 C 
ATOM     22  C   LIG A   1      -6.604   2.712 123.781  0.00  0.00    +0.037 C 
BRANCH  21  23
ATOM     23  O   LIG A   1      -5.491   4.728 123.188  0.00  0.00    -0.392 OA
ATOM     24  H   LIG A   1      -6.005   5.371 122.669  0.00  0.00    +0.210 HD
ENDBRANCH  21  23
ENDBRANCH  20  21
ENDBRANCH  19  20
ENDBRANCH  18  19
ENDBRANCH  17  18
ENDBRANCH  16  17
ENDBRANCH  15  16
ENDBRANCH  14  15
ENDBRANCH  13  14
ENDBRANCH   1  13
TORSDOF 13
ENDMDL
MODEL 9
REMARK VINA RESULT:      -5.4      2.452      3.491
REMARK  Name = NuBBE_456
REMARK  15 active torsions:
REMARK  status: ('A' for Active; 'I' for Inactive)
REMARK    1  A    between atoms: O_1  and  C_2
REMARK    2  A    between atoms: C_4  and  C_6
REMARK    3  A    between atoms: C_9  and  C_11
REMARK    4  A    between atoms: C_11  and  C_12
REMARK    5  A    between atoms: C_12  and  C_13
REMARK    6  A    between atoms: C_13  and  C_14
REMARK    7  A    between atoms: C_14  and  C_15
REMARK    8  A    between atoms: C_15  and  C_16
REMARK    9  A    between atoms: C_16  and  C_17
REMARK   10  A    between atoms: C_17  and  C_18
REMARK   11  A    between atoms: C_18  and  C_19
REMARK   12  A    between atoms: C_19  and  C_20
REMARK   13  A    between atoms: C_20  and  C_21
REMARK   14  A    between atoms: C_21  and  O_22
REMARK   15  A    between atoms: C_21  and  C_23
REMARK                            x       y       z     vdW  Elec       q    Type
REMARK                         _______ _______ _______ _____ _____    ______ ____
ROOT
ATOM      1  C   LIG A   1      -8.633  -2.040 123.110  0.00  0.00    +0.002 C 
ENDROOT
BRANCH   1   2
ATOM      2  C   LIG A   1      -7.531  -0.995 123.325  0.00  0.00    +0.019 C 
BRANCH   2   8
ATOM      3  C   LIG A   1      -8.932   2.590 123.833  0.00  0.00    +0.131 C 
ATOM      4  C   LIG A   1      -7.480   2.241 123.431  0.00  0.00    +0.079 C 
ATOM      5  C   LIG A   1      -6.637   3.498 123.249  0.00  0.00    +0.026 C 
ATOM      6  N   LIG A   1      -6.824   1.294 124.334  0.00  0.00    -0.308 NA
ATOM      7  H   LIG A   1      -5.880   1.088 124.016  0.00  0.00    +0.122 HD
ATOM      8  C   LIG A   1      -7.575   0.037 124.495  0.00  0.00    +0.054 C 
ATOM      9  C   LIG A   1      -8.965   0.364 125.082  0.00  0.00    +0.021 C 
ATOM     10  C   LIG A   1      -9.764   1.428 124.326  0.00  0.00    +0.034 C 
BRANCH   3  11
ATOM     11  O   LIG A   1      -8.970   3.604 124.863  0.00  0.00    -0.390 OA
ATOM     12  H   LIG A   1      -9.372   4.361 124.396  0.00  0.00    +0.210 HD
ENDBRANCH   3  11
ENDBRANCH   2   8
ENDBRANCH   1   2
BRANCH   1  13
ATOM     13  C   LIG A   1      -8.566  -3.247 124.032  0.00  0.00    +0.000 C 
BRANCH  13  14
ATOM     14  C   LIG A   1      -9.379  -3.209 125.331  0.00  0.00    -0.000 C 
BRANCH  14  15
ATOM     15  C   LIG A   1      -8.780  -2.857 126.706  0.00  0.00    -0.000 C 
BRANCH  15  16
ATOM     16  C   LIG A   1      -8.909  -3.835 127.879  0.00  0.00    -0.000 C 
BRANCH  16  17
ATOM     17  C   LIG A   1      -7.874  -3.656 128.980  0.00  0.00    -0.000 C 
BRANCH  17  18
ATOM     18  C   LIG A   1      -8.055  -2.289 129.633  0.00  0.00    +0.000 C 
BRANCH  18  19
ATOM     19  C   LIG A   1      -6.775  -1.470 129.685  0.00  0.00    +0.002 C 
BRANCH  19  20
ATOM     20  C   LIG A   1      -6.784  -0.186 128.843  0.00  0.00    +0.031 C 
BRANCH  20  21
ATOM     21  C   LIG A   1      -5.875  -0.161 127.606  0.00  0.00    +0.111 C 
ATOM     22  C   LIG A   1      -5.411  -1.535 127.157  0.00  0.00    +0.037 C 
BRANCH  21  23
ATOM     23  O   LIG A   1      -4.745   0.640 127.847  0.00  0.00    -0.392 OA
ATOM     24  H   LIG A   1      -4.756   0.964 128.765  0.00  0.00    +0.210 HD
ENDBRANCH  21  23
ENDBRANCH  20  21
ENDBRANCH  19  20
ENDBRANCH  18  19
ENDBRANCH  17  18
ENDBRANCH  16  17
ENDBRANCH  15  16
ENDBRANCH  14  15
ENDBRANCH  13  14
ENDBRANCH   1  13
TORSDOF 13
ENDMDL
