MODEL 1
REMARK VINA RESULT:      -6.7      0.000      0.000
REMARK  Name = NuBBE_330
REMARK  19 active torsions:
REMARK  status: ('A' for Active; 'I' for Inactive)
REMARK    1  A    between atoms: C_2  and  O_3
REMARK    2  A    between atoms: C_2  and  C_5
REMARK    3  A    between atoms: O_3  and  C_4
REMARK    4  A    between atoms: C_8  and  O_10
REMARK    5  A    between atoms: O_10  and  C_11
REMARK    6  A    between atoms: C_13  and  O_15
REMARK    7  A    between atoms: C_17  and  C_19
REMARK    8  A    between atoms: C_19  and  O_20
REMARK    9  A    between atoms: C_21  and  O_23
REMARK   10  A    between atoms: C_24  and  O_26
REMARK   11  A    between atoms: C_27  and  C_35
REMARK   12  A    between atoms: C_28  and  C_30
REMARK   13  A    between atoms: C_30  and  C_31
REMARK   14  A    between atoms: C_31  and  O_32
REMARK   15  A    between atoms: O_32  and  C_33
REMARK   16  A    between atoms: C_35  and  O_37
REMARK   17  A    between atoms: C_35  and  C_41
REMARK   18  A    between atoms: O_37  and  C_38
REMARK   19  A    between atoms: C_38  and  C_39
REMARK                            x       y       z     vdW  Elec       q    Type
REMARK                         _______ _______ _______ _____ _____    ______ ____
ROOT
ATOM      1  C   LIG A   1      -5.323   3.479 127.991  0.00  0.00    +0.075 C 
ATOM      2  C   LIG A   1      -5.178   3.467 129.330  0.00  0.00    +0.201 C 
ATOM      3  O   LIG A   1      -6.149   3.768 130.248  0.00  0.00    -0.470 OA
ATOM      4  C   LIG A   1      -7.496   3.928 129.778  0.00  0.00    +0.316 C 
ATOM      5  C   LIG A   1      -7.729   3.392 128.333  0.00  0.00    +0.106 C 
ATOM      6  C   LIG A   1      -6.629   3.999 127.422  0.00  0.00    +0.052 C 
ENDROOT
BRANCH   1   8
ATOM      7  O   LIG A   1      -4.136   2.034 126.489  0.00  0.00    -0.245 OA
ATOM      8  C   LIG A   1      -4.142   2.983 127.232  0.00  0.00    +0.338 C 
BRANCH   8   9
ATOM      9  O   LIG A   1      -3.061   3.717 127.586  0.00  0.00    -0.465 OA
ATOM     10  C   LIG A   1      -1.839   3.289 126.996  0.00  0.00    +0.280 C 
ENDBRANCH   8   9
ENDBRANCH   1   8
BRANCH   5  11
ATOM     11  C   LIG A   1      -7.850   1.833 128.360  0.00  0.00    +0.183 C 
ATOM     12  C   LIG A   1      -8.644   1.126 127.259  0.00  0.00    +0.052 C 
BRANCH  11  13
ATOM     13  O   LIG A   1      -8.284   1.393 129.683  0.00  0.00    -0.461 OA
BRANCH  13  14
ATOM     14  C   LIG A   1      -7.861   0.201 130.193  0.00  0.00    +0.304 C 
ATOM     15  C   LIG A   1      -6.371   0.076 129.974  0.00  0.00    +0.136 C 
ATOM     16  O   LIG A   1      -8.519  -0.588 130.828  0.00  0.00    -0.251 OA
ENDBRANCH  13  14
ENDBRANCH  11  13
ENDBRANCH   5  11
BRANCH   4  17
ATOM     17  O   LIG A   1      -7.932   5.299 129.850  0.00  0.00    -0.309 OA
BRANCH  17  18
ATOM     18  C   LIG A   1      -9.324   5.458 129.500  0.00  0.00    +0.286 C 
ATOM     19  C   LIG A   1     -10.178   5.443 130.802  0.00  0.00    +0.201 C 
ATOM     20  O   LIG A   1      -9.492   6.680 128.769  0.00  0.00    -0.340 OA
ATOM     21  C   LIG A   1     -10.859   6.963 128.450  0.00  0.00    +0.178 C 
ATOM     22  C   LIG A   1     -11.589   7.294 129.756  0.00  0.00    +0.177 C 
ATOM     23  C   LIG A   1     -11.585   6.026 130.605  0.00  0.00    +0.179 C 
BRANCH  19  24
ATOM     24  O   LIG A   1     -10.341   4.097 131.295  0.00  0.00    -0.384 OA
ATOM     25  H   LIG A   1     -11.162   3.766 130.881  0.00  0.00    +0.210 HD
ENDBRANCH  19  24
BRANCH  22  26
ATOM     26  O   LIG A   1     -12.951   7.702 129.601  0.00  0.00    -0.387 OA
ATOM     27  H   LIG A   1     -13.130   7.744 128.639  0.00  0.00    +0.210 HD
ENDBRANCH  22  26
BRANCH  23  28
ATOM     28  O   LIG A   1     -12.176   6.298 131.889  0.00  0.00    -0.386 OA
ATOM     29  H   LIG A   1     -12.633   7.158 131.777  0.00  0.00    +0.210 HD
ENDBRANCH  23  28
BRANCH  21  30
ATOM     30  C   LIG A   1     -10.891   8.114 127.442  0.00  0.00    +0.190 C 
BRANCH  30  31
ATOM     31  O   LIG A   1     -10.875   7.625 126.106  0.00  0.00    -0.392 OA
ATOM     32  H   LIG A   1     -11.706   7.914 125.685  0.00  0.00    +0.209 HD
ENDBRANCH  30  31
ENDBRANCH  21  30
ENDBRANCH  17  18
ENDBRANCH   4  17
BRANCH   6  33
ATOM     33  C   LIG A   1      -6.934   3.971 125.899  0.00  0.00    +0.129 C 
BRANCH  33  34
ATOM     34  C   LIG A   1      -8.329   4.466 125.551  0.00  0.00    +0.307 C 
ATOM     35  O   LIG A   1      -8.764   5.561 125.864  0.00  0.00    -0.251 OA
BRANCH  34  36
ATOM     36  O   LIG A   1      -9.018   3.524 124.865  0.00  0.00    -0.468 OA
ATOM     37  C   LIG A   1      -8.374   2.952 123.722  0.00  0.00    +0.280 C 
ENDBRANCH  34  36
ENDBRANCH  33  34
ENDBRANCH   6  33
TORSDOF 15
ENDMDL
MODEL 2
REMARK VINA RESULT:      -6.7      2.109      4.746
REMARK  Name = NuBBE_330
REMARK  19 active torsions:
REMARK  status: ('A' for Active; 'I' for Inactive)
REMARK    1  A    between atoms: C_2  and  O_3
REMARK    2  A    between atoms: C_2  and  C_5
REMARK    3  A    between atoms: O_3  and  C_4
REMARK    4  A    between atoms: C_8  and  O_10
REMARK    5  A    between atoms: O_10  and  C_11
REMARK    6  A    between atoms: C_13  and  O_15
REMARK    7  A    between atoms: C_17  and  C_19
REMARK    8  A    between atoms: C_19  and  O_20
REMARK    9  A    between atoms: C_21  and  O_23
REMARK   10  A    between atoms: C_24  and  O_26
REMARK   11  A    between atoms: C_27  and  C_35
REMARK   12  A    between atoms: C_28  and  C_30
REMARK   13  A    between atoms: C_30  and  C_31
REMARK   14  A    between atoms: C_31  and  O_32
REMARK   15  A    between atoms: O_32  and  C_33
REMARK   16  A    between atoms: C_35  and  O_37
REMARK   17  A    between atoms: C_35  and  C_41
REMARK   18  A    between atoms: O_37  and  C_38
REMARK   19  A    between atoms: C_38  and  C_39
REMARK                            x       y       z     vdW  Elec       q    Type
REMARK                         _______ _______ _______ _____ _____    ______ ____
ROOT
ATOM      1  C   LIG A   1      -8.008   3.335 125.055  0.00  0.00    +0.075 C 
ATOM      2  C   LIG A   1      -7.928   4.620 125.451  0.00  0.00    +0.201 C 
ATOM      3  O   LIG A   1      -7.785   5.058 126.742  0.00  0.00    -0.470 OA
ATOM      4  C   LIG A   1      -7.503   4.084 127.757  0.00  0.00    +0.316 C 
ATOM      5  C   LIG A   1      -7.052   2.701 127.198  0.00  0.00    +0.106 C 
ATOM      6  C   LIG A   1      -8.086   2.265 126.126  0.00  0.00    +0.052 C 
ENDROOT
BRANCH   1   8
ATOM      7  O   LIG A   1      -9.012   2.931 122.915  0.00  0.00    -0.245 OA
ATOM      8  C   LIG A   1      -8.028   3.139 123.579  0.00  0.00    +0.338 C 
BRANCH   8   9
ATOM      9  O   LIG A   1      -6.753   3.143 123.124  0.00  0.00    -0.465 OA
ATOM     10  C   LIG A   1      -6.620   3.459 121.743  0.00  0.00    +0.280 C 
ENDBRANCH   8   9
ENDBRANCH   1   8
BRANCH   5  11
ATOM     11  C   LIG A   1      -5.554   2.772 126.755  0.00  0.00    +0.183 C 
ATOM     12  C   LIG A   1      -4.835   1.487 126.338  0.00  0.00    +0.052 C 
BRANCH  11  13
ATOM     13  O   LIG A   1      -4.777   3.506 127.750  0.00  0.00    -0.461 OA
BRANCH  13  14
ATOM     14  C   LIG A   1      -4.074   4.620 127.401  0.00  0.00    +0.304 C 
ATOM     15  C   LIG A   1      -2.602   4.280 127.366  0.00  0.00    +0.136 C 
ATOM     16  O   LIG A   1      -4.530   5.683 127.051  0.00  0.00    -0.251 OA
ENDBRANCH  13  14
ENDBRANCH  11  13
ENDBRANCH   5  11
BRANCH   4  17
ATOM     17  O   LIG A   1      -8.622   3.892 128.645  0.00  0.00    -0.309 OA
BRANCH  17  18
ATOM     18  C   LIG A   1      -8.649   4.856 129.719  0.00  0.00    +0.286 C 
ATOM     19  C   LIG A   1      -9.851   5.823 129.504  0.00  0.00    +0.201 C 
ATOM     20  O   LIG A   1      -8.743   4.164 130.972  0.00  0.00    -0.340 OA
ATOM     21  C   LIG A   1      -8.858   5.046 132.095  0.00  0.00    +0.178 C 
ATOM     22  C   LIG A   1     -10.233   5.722 132.024  0.00  0.00    +0.177 C 
ATOM     23  C   LIG A   1     -10.236   6.596 130.773  0.00  0.00    +0.179 C 
BRANCH  19  24
ATOM     24  O   LIG A   1      -9.548   6.800 128.486  0.00  0.00    -0.384 OA
ATOM     25  H   LIG A   1     -10.370   7.316 128.369  0.00  0.00    +0.210 HD
ENDBRANCH  19  24
BRANCH  22  26
ATOM     26  O   LIG A   1     -10.550   6.564 133.136  0.00  0.00    -0.387 OA
ATOM     27  H   LIG A   1      -9.746   7.084 133.341  0.00  0.00    +0.210 HD
ENDBRANCH  22  26
BRANCH  23  28
ATOM     28  O   LIG A   1     -11.537   7.188 130.597  0.00  0.00    -0.386 OA
ATOM     29  H   LIG A   1     -12.014   6.572 130.002  0.00  0.00    +0.210 HD
ENDBRANCH  23  28
BRANCH  21  30
ATOM     30  C   LIG A   1      -8.664   4.226 133.374  0.00  0.00    +0.190 C 
BRANCH  30  31
ATOM     31  O   LIG A   1      -9.915   3.919 133.979  0.00  0.00    -0.392 OA
ATOM     32  H   LIG A   1      -9.791   3.102 134.496  0.00  0.00    +0.209 HD
ENDBRANCH  30  31
ENDBRANCH  21  30
ENDBRANCH  17  18
ENDBRANCH   4  17
BRANCH   6  33
ATOM     33  C   LIG A   1      -8.089   0.751 125.779  0.00  0.00    +0.129 C 
BRANCH  33  34
ATOM     34  C   LIG A   1      -9.463   0.218 125.403  0.00  0.00    +0.307 C 
ATOM     35  O   LIG A   1     -10.489   0.873 125.460  0.00  0.00    -0.251 OA
BRANCH  34  36
ATOM     36  O   LIG A   1      -9.389  -1.077 125.017  0.00  0.00    -0.468 OA
ATOM     37  C   LIG A   1      -8.978  -2.028 126.005  0.00  0.00    +0.280 C 
ENDBRANCH  34  36
ENDBRANCH  33  34
ENDBRANCH   6  33
TORSDOF 15
ENDMDL
MODEL 3
REMARK VINA RESULT:      -6.6      2.084      2.763
REMARK  Name = NuBBE_330
REMARK  19 active torsions:
REMARK  status: ('A' for Active; 'I' for Inactive)
REMARK    1  A    between atoms: C_2  and  O_3
REMARK    2  A    between atoms: C_2  and  C_5
REMARK    3  A    between atoms: O_3  and  C_4
REMARK    4  A    between atoms: C_8  and  O_10
REMARK    5  A    between atoms: O_10  and  C_11
REMARK    6  A    between atoms: C_13  and  O_15
REMARK    7  A    between atoms: C_17  and  C_19
REMARK    8  A    between atoms: C_19  and  O_20
REMARK    9  A    between atoms: C_21  and  O_23
REMARK   10  A    between atoms: C_24  and  O_26
REMARK   11  A    between atoms: C_27  and  C_35
REMARK   12  A    between atoms: C_28  and  C_30
REMARK   13  A    between atoms: C_30  and  C_31
REMARK   14  A    between atoms: C_31  and  O_32
REMARK   15  A    between atoms: O_32  and  C_33
REMARK   16  A    between atoms: C_35  and  O_37
REMARK   17  A    between atoms: C_35  and  C_41
REMARK   18  A    between atoms: O_37  and  C_38
REMARK   19  A    between atoms: C_38  and  C_39
REMARK                            x       y       z     vdW  Elec       q    Type
REMARK                         _______ _______ _______ _____ _____    ______ ____
ROOT
ATOM      1  C   LIG A   1      -5.145   5.231 130.594  0.00  0.00    +0.075 C 
ATOM      2  C   LIG A   1      -5.228   5.939 131.737  0.00  0.00    +0.201 C 
ATOM      3  O   LIG A   1      -6.381   6.396 132.319  0.00  0.00    -0.470 OA
ATOM      4  C   LIG A   1      -7.633   5.935 131.790  0.00  0.00    +0.316 C 
ATOM      5  C   LIG A   1      -7.504   4.701 130.847  0.00  0.00    +0.106 C 
ATOM      6  C   LIG A   1      -6.414   5.026 129.791  0.00  0.00    +0.052 C 
ENDROOT
BRANCH   1   8
ATOM      7  O   LIG A   1      -3.331   3.664 130.529  0.00  0.00    -0.245 OA
ATOM      8  C   LIG A   1      -3.776   4.750 130.258  0.00  0.00    +0.338 C 
BRANCH   8   9
ATOM      9  O   LIG A   1      -3.090   5.765 129.681  0.00  0.00    -0.465 OA
ATOM     10  C   LIG A   1      -2.738   5.542 128.321  0.00  0.00    +0.280 C 
ENDBRANCH   8   9
ENDBRANCH   1   8
BRANCH   5  11
ATOM     11  C   LIG A   1      -7.305   3.403 131.697  0.00  0.00    +0.183 C 
ATOM     12  C   LIG A   1      -6.648   2.180 131.052  0.00  0.00    +0.052 C 
BRANCH  11  13
ATOM     13  O   LIG A   1      -8.562   3.039 132.346  0.00  0.00    -0.461 OA
BRANCH  13  14
ATOM     14  C   LIG A   1      -9.586   2.499 131.625  0.00  0.00    +0.304 C 
ATOM     15  C   LIG A   1      -9.690   1.027 131.951  0.00  0.00    +0.136 C 
ATOM     16  O   LIG A   1     -10.373   3.094 130.929  0.00  0.00    -0.251 OA
ENDBRANCH  13  14
ENDBRANCH  11  13
ENDBRANCH   5  11
BRANCH   4  17
ATOM     17  O   LIG A   1      -8.346   6.981 131.104  0.00  0.00    -0.309 OA
BRANCH  17  18
ATOM     18  C   LIG A   1      -9.532   6.499 130.437  0.00  0.00    +0.286 C 
ATOM     19  C   LIG A   1     -10.756   6.684 131.382  0.00  0.00    +0.201 C 
ATOM     20  O   LIG A   1      -9.703   7.210 129.203  0.00  0.00    -0.340 OA
ATOM     21  C   LIG A   1     -10.904   6.854 128.509  0.00  0.00    +0.178 C 
ATOM     22  C   LIG A   1     -12.092   7.381 129.323  0.00  0.00    +0.177 C 
ATOM     23  C   LIG A   1     -12.101   6.617 130.645  0.00  0.00    +0.179 C 
BRANCH  19  24
ATOM     24  O   LIG A   1     -10.778   5.661 132.400  0.00  0.00    -0.384 OA
ATOM     25  H   LIG A   1     -10.762   6.142 133.252  0.00  0.00    +0.210 HD
ENDBRANCH  19  24
BRANCH  22  26
ATOM     26  O   LIG A   1     -13.372   7.195 128.713  0.00  0.00    -0.387 OA
ATOM     27  H   LIG A   1     -13.607   6.251 128.818  0.00  0.00    +0.210 HD
ENDBRANCH  22  26
BRANCH  23  28
ATOM     28  O   LIG A   1     -13.141   7.132 131.497  0.00  0.00    -0.386 OA
ATOM     29  H   LIG A   1     -12.937   6.772 132.385  0.00  0.00    +0.210 HD
ENDBRANCH  23  28
BRANCH  21  30
ATOM     30  C   LIG A   1     -10.840   7.447 127.099  0.00  0.00    +0.190 C 
BRANCH  30  31
ATOM     31  O   LIG A   1     -11.661   6.713 126.198  0.00  0.00    -0.392 OA
ATOM     32  H   LIG A   1     -12.585   6.972 126.375  0.00  0.00    +0.209 HD
ENDBRANCH  30  31
ENDBRANCH  21  30
ENDBRANCH  17  18
ENDBRANCH   4  17
BRANCH   6  33
ATOM     33  C   LIG A   1      -6.445   4.150 128.508  0.00  0.00    +0.129 C 
BRANCH  33  34
ATOM     34  C   LIG A   1      -7.846   3.930 127.959  0.00  0.00    +0.307 C 
ATOM     35  O   LIG A   1      -8.502   2.919 128.145  0.00  0.00    -0.251 OA
BRANCH  34  36
ATOM     36  O   LIG A   1      -8.252   4.995 127.229  0.00  0.00    -0.468 OA
ATOM     37  C   LIG A   1      -8.177   4.873 125.805  0.00  0.00    +0.280 C 
ENDBRANCH  34  36
ENDBRANCH  33  34
ENDBRANCH   6  33
TORSDOF 15
ENDMDL
MODEL 4
REMARK VINA RESULT:      -6.4      3.366      6.167
REMARK  Name = NuBBE_330
REMARK  19 active torsions:
REMARK  status: ('A' for Active; 'I' for Inactive)
REMARK    1  A    between atoms: C_2  and  O_3
REMARK    2  A    between atoms: C_2  and  C_5
REMARK    3  A    between atoms: O_3  and  C_4
REMARK    4  A    between atoms: C_8  and  O_10
REMARK    5  A    between atoms: O_10  and  C_11
REMARK    6  A    between atoms: C_13  and  O_15
REMARK    7  A    between atoms: C_17  and  C_19
REMARK    8  A    between atoms: C_19  and  O_20
REMARK    9  A    between atoms: C_21  and  O_23
REMARK   10  A    between atoms: C_24  and  O_26
REMARK   11  A    between atoms: C_27  and  C_35
REMARK   12  A    between atoms: C_28  and  C_30
REMARK   13  A    between atoms: C_30  and  C_31
REMARK   14  A    between atoms: C_31  and  O_32
REMARK   15  A    between atoms: O_32  and  C_33
REMARK   16  A    between atoms: C_35  and  O_37
REMARK   17  A    between atoms: C_35  and  C_41
REMARK   18  A    between atoms: O_37  and  C_38
REMARK   19  A    between atoms: C_38  and  C_39
REMARK                            x       y       z     vdW  Elec       q    Type
REMARK                         _______ _______ _______ _____ _____    ______ ____
ROOT
ATOM      1  C   LIG A   1      -6.010   4.266 131.866  0.00  0.00    +0.075 C 
ATOM      2  C   LIG A   1      -6.351   4.297 130.563  0.00  0.00    +0.201 C 
ATOM      3  O   LIG A   1      -6.693   5.414 129.847  0.00  0.00    -0.470 OA
ATOM      4  C   LIG A   1      -6.497   6.696 130.461  0.00  0.00    +0.316 C 
ATOM      5  C   LIG A   1      -5.592   6.657 131.729  0.00  0.00    +0.106 C 
ATOM      6  C   LIG A   1      -6.141   5.548 132.666  0.00  0.00    +0.052 C 
ENDROOT
BRANCH   1   8
ATOM      7  O   LIG A   1      -4.521   2.397 132.064  0.00  0.00    -0.245 OA
ATOM      8  C   LIG A   1      -5.557   2.936 132.358  0.00  0.00    +0.338 C 
BRANCH   8   9
ATOM      9  O   LIG A   1      -6.541   2.397 133.116  0.00  0.00    -0.465 OA
ATOM     10  C   LIG A   1      -6.106   1.876 134.367  0.00  0.00    +0.280 C 
ENDBRANCH   8   9
ENDBRANCH   1   8
BRANCH   5  11
ATOM     11  C   LIG A   1      -4.090   6.553 131.306  0.00  0.00    +0.183 C 
ATOM     12  C   LIG A   1      -3.038   7.349 132.081  0.00  0.00    +0.052 C 
BRANCH  11  13
ATOM     13  O   LIG A   1      -3.964   6.779 129.869  0.00  0.00    -0.461 OA
BRANCH  13  14
ATOM     14  C   LIG A   1      -2.921   6.249 129.170  0.00  0.00    +0.304 C 
ATOM     15  C   LIG A   1      -2.971   4.743 129.283  0.00  0.00    +0.136 C 
ATOM     16  O   LIG A   1      -2.141   6.848 128.468  0.00  0.00    -0.251 OA
ENDBRANCH  13  14
ENDBRANCH  11  13
ENDBRANCH   5  11
BRANCH   4  17
ATOM     17  O   LIG A   1      -7.746   7.333 130.791  0.00  0.00    -0.309 OA
BRANCH  17  18
ATOM     18  C   LIG A   1      -8.885   6.635 130.244  0.00  0.00    +0.286 C 
ATOM     19  C   LIG A   1      -9.951   6.447 131.365  0.00  0.00    +0.201 C 
ATOM     20  O   LIG A   1      -9.408   7.378 129.135  0.00  0.00    -0.340 OA
ATOM     21  C   LIG A   1     -10.595   6.801 128.579  0.00  0.00    +0.178 C 
ATOM     22  C   LIG A   1     -11.723   6.963 129.604  0.00  0.00    +0.177 C 
ATOM     23  C   LIG A   1     -11.348   6.119 130.819  0.00  0.00    +0.179 C 
BRANCH  19  24
ATOM     24  O   LIG A   1      -9.578   5.373 132.253  0.00  0.00    -0.384 OA
ATOM     25  H   LIG A   1     -10.417   5.057 132.646  0.00  0.00    +0.210 HD
ENDBRANCH  19  24
BRANCH  22  26
ATOM     26  O   LIG A   1     -13.010   6.526 129.160  0.00  0.00    -0.387 OA
ATOM     27  H   LIG A   1     -13.489   7.318 128.841  0.00  0.00    +0.210 HD
ENDBRANCH  22  26
BRANCH  23  28
ATOM     28  O   LIG A   1     -12.325   6.302 131.860  0.00  0.00    -0.386 OA
ATOM     29  H   LIG A   1     -12.839   7.090 131.584  0.00  0.00    +0.210 HD
ENDBRANCH  23  28
BRANCH  21  30
ATOM     30  C   LIG A   1     -10.894   7.500 127.250  0.00  0.00    +0.190 C 
BRANCH  30  31
ATOM     31  O   LIG A   1     -11.568   6.626 126.353  0.00  0.00    -0.392 OA
ATOM     32  H   LIG A   1     -12.493   6.929 126.297  0.00  0.00    +0.209 HD
ENDBRANCH  30  31
ENDBRANCH  21  30
ENDBRANCH  17  18
ENDBRANCH   4  17
BRANCH   6  33
ATOM     33  C   LIG A   1      -5.688   5.642 134.149  0.00  0.00    +0.129 C 
BRANCH  33  34
ATOM     34  C   LIG A   1      -6.840   5.564 135.139  0.00  0.00    +0.307 C 
ATOM     35  O   LIG A   1      -8.012   5.466 134.819  0.00  0.00    -0.251 OA
BRANCH  34  36
ATOM     36  O   LIG A   1      -6.386   5.633 136.413  0.00  0.00    -0.468 OA
ATOM     37  C   LIG A   1      -5.891   6.900 136.858  0.00  0.00    +0.280 C 
ENDBRANCH  34  36
ENDBRANCH  33  34
ENDBRANCH   6  33
TORSDOF 15
ENDMDL
MODEL 5
REMARK VINA RESULT:      -6.3      2.303      4.701
REMARK  Name = NuBBE_330
REMARK  19 active torsions:
REMARK  status: ('A' for Active; 'I' for Inactive)
REMARK    1  A    between atoms: C_2  and  O_3
REMARK    2  A    between atoms: C_2  and  C_5
REMARK    3  A    between atoms: O_3  and  C_4
REMARK    4  A    between atoms: C_8  and  O_10
REMARK    5  A    between atoms: O_10  and  C_11
REMARK    6  A    between atoms: C_13  and  O_15
REMARK    7  A    between atoms: C_17  and  C_19
REMARK    8  A    between atoms: C_19  and  O_20
REMARK    9  A    between atoms: C_21  and  O_23
REMARK   10  A    between atoms: C_24  and  O_26
REMARK   11  A    between atoms: C_27  and  C_35
REMARK   12  A    between atoms: C_28  and  C_30
REMARK   13  A    between atoms: C_30  and  C_31
REMARK   14  A    between atoms: C_31  and  O_32
REMARK   15  A    between atoms: O_32  and  C_33
REMARK   16  A    between atoms: C_35  and  O_37
REMARK   17  A    between atoms: C_35  and  C_41
REMARK   18  A    between atoms: O_37  and  C_38
REMARK   19  A    between atoms: C_38  and  C_39
REMARK                            x       y       z     vdW  Elec       q    Type
REMARK                         _______ _______ _______ _____ _____    ______ ____
ROOT
ATOM      1  C   LIG A   1      -7.998   3.080 124.885  0.00  0.00    +0.075 C 
ATOM      2  C   LIG A   1      -8.236   4.210 125.578  0.00  0.00    +0.201 C 
ATOM      3  O   LIG A   1      -8.279   4.324 126.942  0.00  0.00    -0.470 OA
ATOM      4  C   LIG A   1      -7.850   3.203 127.728  0.00  0.00    +0.316 C 
ATOM      5  C   LIG A   1      -7.063   2.129 126.918  0.00  0.00    +0.106 C 
ATOM      6  C   LIG A   1      -7.900   1.779 125.659  0.00  0.00    +0.052 C 
ENDROOT
BRANCH   1   8
ATOM      7  O   LIG A   1      -8.786   3.195 122.623  0.00  0.00    -0.245 OA
ATOM      8  C   LIG A   1      -7.878   3.266 123.413  0.00  0.00    +0.338 C 
BRANCH   8   9
ATOM      9  O   LIG A   1      -6.572   3.436 123.102  0.00  0.00    -0.465 OA
ATOM     10  C   LIG A   1      -6.308   3.565 121.710  0.00  0.00    +0.280 C 
ENDBRANCH   8   9
ENDBRANCH   1   8
BRANCH   5  11
ATOM     11  C   LIG A   1      -5.594   2.614 126.684  0.00  0.00    +0.183 C 
ATOM     12  C   LIG A   1      -4.506   1.583 126.376  0.00  0.00    +0.052 C 
BRANCH  11  13
ATOM     13  O   LIG A   1      -5.185   3.497 127.772  0.00  0.00    -0.461 OA
BRANCH  13  14
ATOM     14  C   LIG A   1      -4.558   4.679 127.511  0.00  0.00    +0.304 C 
ATOM     15  C   LIG A   1      -3.144   4.610 128.038  0.00  0.00    +0.136 C 
ATOM     16  O   LIG A   1      -4.992   5.600 126.860  0.00  0.00    -0.251 OA
ENDBRANCH  13  14
ENDBRANCH  11  13
ENDBRANCH   5  11
BRANCH   4  17
ATOM     17  O   LIG A   1      -8.951   2.568 128.407  0.00  0.00    -0.309 OA
BRANCH  17  18
ATOM     18  C   LIG A   1      -9.179   3.114 129.723  0.00  0.00    +0.286 C 
ATOM     19  C   LIG A   1      -7.818   3.575 130.324  0.00  0.00    +0.201 C 
ATOM     20  O   LIG A   1     -10.112   4.200 129.631  0.00  0.00    -0.340 OA
ATOM     21  C   LIG A   1     -10.337   4.859 130.882  0.00  0.00    +0.178 C 
ATOM     22  C   LIG A   1      -9.050   5.603 131.261  0.00  0.00    +0.177 C 
ATOM     23  C   LIG A   1      -7.978   4.545 131.504  0.00  0.00    +0.179 C 
BRANCH  19  24
ATOM     24  O   LIG A   1      -7.059   2.445 130.803  0.00  0.00    -0.384 OA
ATOM     25  H   LIG A   1      -6.128   2.744 130.817  0.00  0.00    +0.210 HD
ENDBRANCH  19  24
BRANCH  22  26
ATOM     26  O   LIG A   1      -9.140   6.401 132.444  0.00  0.00    -0.387 OA
ATOM     27  H   LIG A   1     -10.029   6.248 132.827  0.00  0.00    +0.210 HD
ENDBRANCH  22  26
BRANCH  23  28
ATOM     28  O   LIG A   1      -6.716   5.184 131.773  0.00  0.00    -0.386 OA
ATOM     29  H   LIG A   1      -6.655   5.904 131.112  0.00  0.00    +0.210 HD
ENDBRANCH  23  28
BRANCH  21  30
ATOM     30  C   LIG A   1     -11.539   5.793 130.726  0.00  0.00    +0.190 C 
BRANCH  30  31
ATOM     31  O   LIG A   1     -12.092   6.131 131.994  0.00  0.00    -0.392 OA
ATOM     32  H   LIG A   1     -11.482   5.788 132.673  0.00  0.00    +0.209 HD
ENDBRANCH  30  31
ENDBRANCH  21  30
ENDBRANCH  17  18
ENDBRANCH   4  17
BRANCH   6  33
ATOM     33  C   LIG A   1      -7.538   0.435 124.969  0.00  0.00    +0.129 C 
BRANCH  33  34
ATOM     34  C   LIG A   1      -8.752  -0.354 124.506  0.00  0.00    +0.307 C 
ATOM     35  O   LIG A   1      -9.814   0.151 124.186  0.00  0.00    -0.251 OA
BRANCH  34  36
ATOM     36  O   LIG A   1      -8.496  -1.683 124.515  0.00  0.00    -0.468 OA
ATOM     37  C   LIG A   1      -8.922  -2.435 123.374  0.00  0.00    +0.280 C 
ENDBRANCH  34  36
ENDBRANCH  33  34
ENDBRANCH   6  33
TORSDOF 15
ENDMDL
MODEL 6
REMARK VINA RESULT:      -6.3      3.059      4.442
REMARK  Name = NuBBE_330
REMARK  19 active torsions:
REMARK  status: ('A' for Active; 'I' for Inactive)
REMARK    1  A    between atoms: C_2  and  O_3
REMARK    2  A    between atoms: C_2  and  C_5
REMARK    3  A    between atoms: O_3  and  C_4
REMARK    4  A    between atoms: C_8  and  O_10
REMARK    5  A    between atoms: O_10  and  C_11
REMARK    6  A    between atoms: C_13  and  O_15
REMARK    7  A    between atoms: C_17  and  C_19
REMARK    8  A    between atoms: C_19  and  O_20
REMARK    9  A    between atoms: C_21  and  O_23
REMARK   10  A    between atoms: C_24  and  O_26
REMARK   11  A    between atoms: C_27  and  C_35
REMARK   12  A    between atoms: C_28  and  C_30
REMARK   13  A    between atoms: C_30  and  C_31
REMARK   14  A    between atoms: C_31  and  O_32
REMARK   15  A    between atoms: O_32  and  C_33
REMARK   16  A    between atoms: C_35  and  O_37
REMARK   17  A    between atoms: C_35  and  C_41
REMARK   18  A    between atoms: O_37  and  C_38
REMARK   19  A    between atoms: C_38  and  C_39
REMARK                            x       y       z     vdW  Elec       q    Type
REMARK                         _______ _______ _______ _____ _____    ______ ____
ROOT
ATOM      1  C   LIG A   1      -5.337   5.791 132.787  0.00  0.00    +0.075 C 
ATOM      2  C   LIG A   1      -6.378   5.725 133.638  0.00  0.00    +0.201 C 
ATOM      3  O   LIG A   1      -7.701   5.655 133.289  0.00  0.00    -0.470 OA
ATOM      4  C   LIG A   1      -8.024   5.439 131.907  0.00  0.00    +0.316 C 
ATOM      5  C   LIG A   1      -6.816   4.966 131.043  0.00  0.00    +0.106 C 
ATOM      6  C   LIG A   1      -5.636   5.939 131.308  0.00  0.00    +0.052 C 
ENDROOT
BRANCH   1   8
ATOM      7  O   LIG A   1      -3.429   4.717 133.765  0.00  0.00    -0.245 OA
ATOM      8  C   LIG A   1      -3.998   5.727 133.435  0.00  0.00    +0.338 C 
BRANCH   8   9
ATOM      9  O   LIG A   1      -3.571   6.989 133.674  0.00  0.00    -0.465 OA
ATOM     10  C   LIG A   1      -2.261   7.270 133.195  0.00  0.00    +0.280 C 
ENDBRANCH   8   9
ENDBRANCH   1   8
BRANCH   5  11
ATOM     11  C   LIG A   1      -6.553   3.444 131.290  0.00  0.00    +0.183 C 
ATOM     12  C   LIG A   1      -5.758   2.646 130.254  0.00  0.00    +0.052 C 
BRANCH  11  13
ATOM     13  O   LIG A   1      -7.807   2.772 131.618  0.00  0.00    -0.461 OA
BRANCH  13  14
ATOM     14  C   LIG A   1      -7.854   1.833 132.605  0.00  0.00    +0.304 C 
ATOM     15  C   LIG A   1      -8.447   0.561 132.043  0.00  0.00    +0.136 C 
ATOM     16  O   LIG A   1      -7.395   1.930 133.718  0.00  0.00    -0.251 OA
ENDBRANCH  13  14
ENDBRANCH  11  13
ENDBRANCH   5  11
BRANCH   4  17
ATOM     17  O   LIG A   1      -8.608   6.609 131.302  0.00  0.00    -0.309 OA
BRANCH  17  18
ATOM     18  C   LIG A   1      -9.837   6.318 130.604  0.00  0.00    +0.286 C 
ATOM     19  C   LIG A   1     -11.041   6.712 131.510  0.00  0.00    +0.201 C 
ATOM     20  O   LIG A   1      -9.855   7.030 129.359  0.00  0.00    -0.340 OA
ATOM     21  C   LIG A   1     -11.078   6.865 128.633  0.00  0.00    +0.178 C 
ATOM     22  C   LIG A   1     -12.187   7.589 129.406  0.00  0.00    +0.177 C 
ATOM     23  C   LIG A   1     -12.358   6.855 130.733  0.00  0.00    +0.179 C 
BRANCH  19  24
ATOM     24  O   LIG A   1     -11.258   5.720 132.536  0.00  0.00    -0.384 OA
ATOM     25  H   LIG A   1     -11.917   6.113 133.142  0.00  0.00    +0.210 HD
ENDBRANCH  19  24
BRANCH  22  26
ATOM     26  O   LIG A   1     -13.462   7.606 128.760  0.00  0.00    -0.387 OA
ATOM     27  H   LIG A   1     -13.410   8.266 128.038  0.00  0.00    +0.210 HD
ENDBRANCH  22  26
BRANCH  23  28
ATOM     28  O   LIG A   1     -13.323   7.543 131.549  0.00  0.00    -0.386 OA
ATOM     29  H   LIG A   1     -13.079   8.490 131.480  0.00  0.00    +0.210 HD
ENDBRANCH  23  28
BRANCH  21  30
ATOM     30  C   LIG A   1     -10.879   7.421 127.220  0.00  0.00    +0.190 C 
BRANCH  30  31
ATOM     31  O   LIG A   1     -11.657   6.699 126.273  0.00  0.00    -0.392 OA
ATOM     32  H   LIG A   1     -12.151   7.355 125.747  0.00  0.00    +0.209 HD
ENDBRANCH  30  31
ENDBRANCH  21  30
ENDBRANCH  17  18
ENDBRANCH   4  17
BRANCH   6  33
ATOM     33  C   LIG A   1      -4.512   5.932 130.236  0.00  0.00    +0.129 C 
BRANCH  33  34
ATOM     34  C   LIG A   1      -4.164   7.318 129.714  0.00  0.00    +0.307 C 
ATOM     35  O   LIG A   1      -4.191   8.330 130.393  0.00  0.00    -0.251 OA
BRANCH  34  36
ATOM     36  O   LIG A   1      -3.840   7.272 128.401  0.00  0.00    -0.468 OA
ATOM     37  C   LIG A   1      -2.542   6.767 128.070  0.00  0.00    +0.280 C 
ENDBRANCH  34  36
ENDBRANCH  33  34
ENDBRANCH   6  33
TORSDOF 15
ENDMDL
MODEL 7
REMARK VINA RESULT:      -6.1      3.509      5.685
REMARK  Name = NuBBE_330
REMARK  19 active torsions:
REMARK  status: ('A' for Active; 'I' for Inactive)
REMARK    1  A    between atoms: C_2  and  O_3
REMARK    2  A    between atoms: C_2  and  C_5
REMARK    3  A    between atoms: O_3  and  C_4
REMARK    4  A    between atoms: C_8  and  O_10
REMARK    5  A    between atoms: O_10  and  C_11
REMARK    6  A    between atoms: C_13  and  O_15
REMARK    7  A    between atoms: C_17  and  C_19
REMARK    8  A    between atoms: C_19  and  O_20
REMARK    9  A    between atoms: C_21  and  O_23
REMARK   10  A    between atoms: C_24  and  O_26
REMARK   11  A    between atoms: C_27  and  C_35
REMARK   12  A    between atoms: C_28  and  C_30
REMARK   13  A    between atoms: C_30  and  C_31
REMARK   14  A    between atoms: C_31  and  O_32
REMARK   15  A    between atoms: O_32  and  C_33
REMARK   16  A    between atoms: C_35  and  O_37
REMARK   17  A    between atoms: C_35  and  C_41
REMARK   18  A    between atoms: O_37  and  C_38
REMARK   19  A    between atoms: C_38  and  C_39
REMARK                            x       y       z     vdW  Elec       q    Type
REMARK                         _______ _______ _______ _____ _____    ______ ____
ROOT
ATOM      1  C   LIG A   1      -6.250  -1.290 125.294  0.00  0.00    +0.075 C 
ATOM      2  C   LIG A   1      -5.286  -0.811 126.104  0.00  0.00    +0.201 C 
ATOM      3  O   LIG A   1      -5.484  -0.126 127.274  0.00  0.00    -0.470 OA
ATOM      4  C   LIG A   1      -6.816  -0.065 127.804  0.00  0.00    +0.316 C 
ATOM      5  C   LIG A   1      -7.800  -1.085 127.155  0.00  0.00    +0.106 C 
ATOM      6  C   LIG A   1      -7.689  -0.935 125.615  0.00  0.00    +0.052 C 
ENDROOT
BRANCH   1   8
ATOM      7  O   LIG A   1      -5.931  -1.863 122.988  0.00  0.00    -0.245 OA
ATOM      8  C   LIG A   1      -5.755  -2.109 124.154  0.00  0.00    +0.338 C 
BRANCH   8   9
ATOM      9  O   LIG A   1      -5.154  -3.218 124.646  0.00  0.00    -0.465 OA
ATOM     10  C   LIG A   1      -4.565  -4.058 123.660  0.00  0.00    +0.280 C 
ENDBRANCH   8   9
ENDBRANCH   1   8
BRANCH   5  11
ATOM     11  C   LIG A   1      -7.555  -2.510 127.751  0.00  0.00    +0.183 C 
ATOM     12  C   LIG A   1      -8.700  -3.525 127.758  0.00  0.00    +0.052 C 
BRANCH  11  13
ATOM     13  O   LIG A   1      -6.950  -2.396 129.075  0.00  0.00    -0.461 OA
BRANCH  13  14
ATOM     14  C   LIG A   1      -6.084  -3.346 129.529  0.00  0.00    +0.304 C 
ATOM     15  C   LIG A   1      -4.698  -3.031 129.017  0.00  0.00    +0.136 C 
ATOM     16  O   LIG A   1      -6.330  -4.234 130.310  0.00  0.00    -0.251 OA
ENDBRANCH  13  14
ENDBRANCH  11  13
ENDBRANCH   5  11
BRANCH   4  17
ATOM     17  O   LIG A   1      -7.375   1.259 127.705  0.00  0.00    -0.309 OA
BRANCH  17  18
ATOM     18  C   LIG A   1      -7.586   1.869 128.996  0.00  0.00    +0.286 C 
ATOM     19  C   LIG A   1      -8.892   2.718 128.948  0.00  0.00    +0.201 C 
ATOM     20  O   LIG A   1      -7.656   0.846 129.998  0.00  0.00    -0.340 OA
ATOM     21  C   LIG A   1      -7.947   1.355 131.305  0.00  0.00    +0.178 C 
ATOM     22  C   LIG A   1      -9.392   1.865 131.300  0.00  0.00    +0.177 C 
ATOM     23  C   LIG A   1      -9.444   3.052 130.341  0.00  0.00    +0.179 C 
BRANCH  19  24
ATOM     24  O   LIG A   1      -8.666   3.970 128.269  0.00  0.00    -0.384 OA
ATOM     25  H   LIG A   1      -7.731   4.197 128.445  0.00  0.00    +0.210 HD
ENDBRANCH  19  24
BRANCH  22  26
ATOM     26  O   LIG A   1      -9.877   2.318 132.567  0.00  0.00    -0.387 OA
ATOM     27  H   LIG A   1      -9.095   2.476 133.135  0.00  0.00    +0.210 HD
ENDBRANCH  22  26
BRANCH  23  28
ATOM     28  O   LIG A   1     -10.800   3.521 130.220  0.00  0.00    -0.386 OA
ATOM     29  H   LIG A   1     -10.808   4.051 129.396  0.00  0.00    +0.210 HD
ENDBRANCH  23  28
BRANCH  21  30
ATOM     30  C   LIG A   1      -7.715   0.234 132.321  0.00  0.00    +0.190 C 
BRANCH  30  31
ATOM     31  O   LIG A   1      -7.381   0.764 133.599  0.00  0.00    -0.392 OA
ATOM     32  H   LIG A   1      -8.127   0.566 134.195  0.00  0.00    +0.209 HD
ENDBRANCH  30  31
ENDBRANCH  21  30
ENDBRANCH  17  18
ENDBRANCH   4  17
BRANCH   6  33
ATOM     33  C   LIG A   1      -8.880  -1.510 124.800  0.00  0.00    +0.129 C 
BRANCH  33  34
ATOM     34  C   LIG A   1      -9.267  -0.652 123.606  0.00  0.00    +0.307 C 
ATOM     35  O   LIG A   1     -10.019  -1.017 122.718  0.00  0.00    -0.251 OA
BRANCH  34  36
ATOM     36  O   LIG A   1      -8.655   0.553 123.658  0.00  0.00    -0.468 OA
ATOM     37  C   LIG A   1      -9.347   1.660 123.072  0.00  0.00    +0.280 C 
ENDBRANCH  34  36
ENDBRANCH  33  34
ENDBRANCH   6  33
TORSDOF 15
ENDMDL
MODEL 8
REMARK VINA RESULT:      -6.0      2.233      4.622
REMARK  Name = NuBBE_330
REMARK  19 active torsions:
REMARK  status: ('A' for Active; 'I' for Inactive)
REMARK    1  A    between atoms: C_2  and  O_3
REMARK    2  A    between atoms: C_2  and  C_5
REMARK    3  A    between atoms: O_3  and  C_4
REMARK    4  A    between atoms: C_8  and  O_10
REMARK    5  A    between atoms: O_10  and  C_11
REMARK    6  A    between atoms: C_13  and  O_15
REMARK    7  A    between atoms: C_17  and  C_19
REMARK    8  A    between atoms: C_19  and  O_20
REMARK    9  A    between atoms: C_21  and  O_23
REMARK   10  A    between atoms: C_24  and  O_26
REMARK   11  A    between atoms: C_27  and  C_35
REMARK   12  A    between atoms: C_28  and  C_30
REMARK   13  A    between atoms: C_30  and  C_31
REMARK   14  A    between atoms: C_31  and  O_32
REMARK   15  A    between atoms: O_32  and  C_33
REMARK   16  A    between atoms: C_35  and  O_37
REMARK   17  A    between atoms: C_35  and  C_41
REMARK   18  A    between atoms: O_37  and  C_38
REMARK   19  A    between atoms: C_38  and  C_39
REMARK                            x       y       z     vdW  Elec       q    Type
REMARK                         _______ _______ _______ _____ _____    ______ ____
ROOT
ATOM      1  C   LIG A   1      -6.955   3.630 125.155  0.00  0.00    +0.075 C 
ATOM      2  C   LIG A   1      -7.715   4.667 125.555  0.00  0.00    +0.201 C 
ATOM      3  O   LIG A   1      -8.163   4.893 126.830  0.00  0.00    -0.470 OA
ATOM      4  C   LIG A   1      -7.636   4.076 127.885  0.00  0.00    +0.316 C 
ATOM      5  C   LIG A   1      -6.362   3.272 127.485  0.00  0.00    +0.106 C 
ATOM      6  C   LIG A   1      -6.669   2.529 126.158  0.00  0.00    +0.052 C 
ENDROOT
BRANCH   1   8
ATOM      7  O   LIG A   1      -5.801   4.561 123.270  0.00  0.00    -0.245 OA
ATOM      8  C   LIG A   1      -6.502   3.700 123.739  0.00  0.00    +0.338 C 
BRANCH   8   9
ATOM      9  O   LIG A   1      -7.081   2.690 123.048  0.00  0.00    -0.465 OA
ATOM     10  C   LIG A   1      -8.260   3.058 122.340  0.00  0.00    +0.280 C 
ENDBRANCH   8   9
ENDBRANCH   1   8
BRANCH   5  11
ATOM     11  C   LIG A   1      -5.114   4.216 127.500  0.00  0.00    +0.183 C 
ATOM     12  C   LIG A   1      -3.723   3.613 127.704  0.00  0.00    +0.052 C 
BRANCH  11  13
ATOM     13  O   LIG A   1      -5.344   5.325 128.422  0.00  0.00    -0.461 OA
BRANCH  13  14
ATOM     14  C   LIG A   1      -4.585   5.463 129.546  0.00  0.00    +0.304 C 
ATOM     15  C   LIG A   1      -3.692   6.671 129.389  0.00  0.00    +0.136 C 
ATOM     16  O   LIG A   1      -4.676   4.818 130.563  0.00  0.00    -0.251 OA
ENDBRANCH  13  14
ENDBRANCH  11  13
ENDBRANCH   5  11
BRANCH   4  17
ATOM     17  O   LIG A   1      -8.624   3.166 128.407  0.00  0.00    -0.309 OA
BRANCH  17  18
ATOM     18  C   LIG A   1      -9.073   3.533 129.728  0.00  0.00    +0.286 C 
ATOM     19  C   LIG A   1      -7.846   3.985 130.574  0.00  0.00    +0.201 C 
ATOM     20  O   LIG A   1     -10.056   4.572 129.622  0.00  0.00    -0.340 OA
ATOM     21  C   LIG A   1     -10.501   5.059 130.894  0.00  0.00    +0.178 C 
ATOM     22  C   LIG A   1      -9.336   5.815 131.542  0.00  0.00    +0.177 C 
ATOM     23  C   LIG A   1      -8.238   4.792 131.820  0.00  0.00    +0.179 C 
BRANCH  19  24
ATOM     24  O   LIG A   1      -7.087   2.845 131.028  0.00  0.00    -0.384 OA
ATOM     25  H   LIG A   1      -6.610   2.519 130.238  0.00  0.00    +0.210 HD
ENDBRANCH  19  24
BRANCH  22  26
ATOM     26  O   LIG A   1      -9.647   6.456 132.783  0.00  0.00    -0.387 OA
ATOM     27  H   LIG A   1      -9.064   7.239 132.857  0.00  0.00    +0.210 HD
ENDBRANCH  22  26
BRANCH  23  28
ATOM     28  O   LIG A   1      -7.075   5.457 132.346  0.00  0.00    -0.386 OA
ATOM     29  H   LIG A   1      -6.323   5.083 131.840  0.00  0.00    +0.210 HD
ENDBRANCH  23  28
BRANCH  21  30
ATOM     30  C   LIG A   1     -11.731   5.942 130.668  0.00  0.00    +0.190 C 
BRANCH  30  31
ATOM     31  O   LIG A   1     -12.342   6.292 131.905  0.00  0.00    -0.392 OA
ATOM     32  H   LIG A   1     -12.350   5.490 132.458  0.00  0.00    +0.209 HD
ENDBRANCH  30  31
ENDBRANCH  21  30
ENDBRANCH  17  18
ENDBRANCH   4  17
BRANCH   6  33
ATOM     33  C   LIG A   1      -5.730   1.337 125.828  0.00  0.00    +0.129 C 
BRANCH  33  34
ATOM     34  C   LIG A   1      -6.126   0.043 126.522  0.00  0.00    +0.307 C 
ATOM     35  O   LIG A   1      -5.338  -0.705 127.074  0.00  0.00    -0.251 OA
BRANCH  34  36
ATOM     36  O   LIG A   1      -7.460  -0.166 126.428  0.00  0.00    -0.468 OA
ATOM     37  C   LIG A   1      -7.884  -1.421 125.886  0.00  0.00    +0.280 C 
ENDBRANCH  34  36
ENDBRANCH  33  34
ENDBRANCH   6  33
TORSDOF 15
ENDMDL
MODEL 9
REMARK VINA RESULT:      -6.0      1.930      3.274
REMARK  Name = NuBBE_330
REMARK  19 active torsions:
REMARK  status: ('A' for Active; 'I' for Inactive)
REMARK    1  A    between atoms: C_2  and  O_3
REMARK    2  A    between atoms: C_2  and  C_5
REMARK    3  A    between atoms: O_3  and  C_4
REMARK    4  A    between atoms: C_8  and  O_10
REMARK    5  A    between atoms: O_10  and  C_11
REMARK    6  A    between atoms: C_13  and  O_15
REMARK    7  A    between atoms: C_17  and  C_19
REMARK    8  A    between atoms: C_19  and  O_20
REMARK    9  A    between atoms: C_21  and  O_23
REMARK   10  A    between atoms: C_24  and  O_26
REMARK   11  A    between atoms: C_27  and  C_35
REMARK   12  A    between atoms: C_28  and  C_30
REMARK   13  A    between atoms: C_30  and  C_31
REMARK   14  A    between atoms: C_31  and  O_32
REMARK   15  A    between atoms: O_32  and  C_33
REMARK   16  A    between atoms: C_35  and  O_37
REMARK   17  A    between atoms: C_35  and  C_41
REMARK   18  A    between atoms: O_37  and  C_38
REMARK   19  A    between atoms: C_38  and  C_39
REMARK                            x       y       z     vdW  Elec       q    Type
REMARK                         _______ _______ _______ _____ _____    ______ ____
ROOT
ATOM      1  C   LIG A   1      -7.166   3.420 128.919  0.00  0.00    +0.075 C 
ATOM      2  C   LIG A   1      -7.266   4.455 129.775  0.00  0.00    +0.201 C 
ATOM      3  O   LIG A   1      -8.381   4.803 130.491  0.00  0.00    -0.470 OA
ATOM      4  C   LIG A   1      -9.492   3.895 130.494  0.00  0.00    +0.316 C 
ATOM      5  C   LIG A   1      -9.145   2.471 129.964  0.00  0.00    +0.106 C 
ATOM      6  C   LIG A   1      -8.425   2.638 128.599  0.00  0.00    +0.052 C 
ENDROOT
BRANCH   1   8
ATOM      7  O   LIG A   1      -5.017   2.366 128.772  0.00  0.00    -0.245 OA
ATOM      8  C   LIG A   1      -5.799   3.193 128.375  0.00  0.00    +0.338 C 
BRANCH   8   9
ATOM      9  O   LIG A   1      -5.549   4.125 127.425  0.00  0.00    -0.465 OA
ATOM     10  C   LIG A   1      -4.563   3.747 126.471  0.00  0.00    +0.280 C 
ENDBRANCH   8   9
ENDBRANCH   1   8
BRANCH   5  11
ATOM     11  C   LIG A   1      -8.393   1.662 131.071  0.00  0.00    +0.183 C 
ATOM     12  C   LIG A   1      -8.365   0.135 130.993  0.00  0.00    +0.052 C 
BRANCH  11  13
ATOM     13  O   LIG A   1      -8.826   2.111 132.392  0.00  0.00    -0.461 OA
BRANCH  13  14
ATOM     14  C   LIG A   1      -7.916   2.346 133.379  0.00  0.00    +0.304 C 
ATOM     15  C   LIG A   1      -8.189   3.703 133.984  0.00  0.00    +0.136 C 
ATOM     16  O   LIG A   1      -7.094   1.570 133.806  0.00  0.00    -0.251 OA
ENDBRANCH  13  14
ENDBRANCH  11  13
ENDBRANCH   5  11
BRANCH   4  17
ATOM     17  O   LIG A   1     -10.614   4.415 129.754  0.00  0.00    -0.309 OA
BRANCH  17  18
ATOM     18  C   LIG A   1     -10.579   5.852 129.631  0.00  0.00    +0.286 C 
ATOM     19  C   LIG A   1     -10.532   6.230 128.120  0.00  0.00    +0.201 C 
ATOM     20  O   LIG A   1     -11.728   6.411 130.282  0.00  0.00    -0.340 OA
ATOM     21  C   LIG A   1     -11.821   7.833 130.139  0.00  0.00    +0.178 C 
ATOM     22  C   LIG A   1     -12.133   8.140 128.669  0.00  0.00    +0.177 C 
ATOM     23  C   LIG A   1     -10.924   7.691 127.853  0.00  0.00    +0.179 C 
BRANCH  19  24
ATOM     24  O   LIG A   1      -9.206   6.041 127.584  0.00  0.00    -0.384 OA
ATOM     25  H   LIG A   1      -9.217   5.154 127.172  0.00  0.00    +0.210 HD
ENDBRANCH  19  24
BRANCH  22  26
ATOM     26  O   LIG A   1     -12.359   9.521 128.375  0.00  0.00    -0.387 OA
ATOM     27  H   LIG A   1     -12.295   9.622 127.403  0.00  0.00    +0.210 HD
ENDBRANCH  22  26
BRANCH  23  28
ATOM     28  O   LIG A   1     -11.193   7.866 126.450  0.00  0.00    -0.386 OA
ATOM     29  H   LIG A   1     -12.055   8.331 126.416  0.00  0.00    +0.210 HD
ENDBRANCH  23  28
BRANCH  21  30
ATOM     30  C   LIG A   1     -12.901   8.344 131.095  0.00  0.00    +0.190 C 
BRANCH  30  31
ATOM     31  O   LIG A   1     -13.528   7.267 131.781  0.00  0.00    -0.392 OA
ATOM     32  H   LIG A   1     -13.884   6.663 131.103  0.00  0.00    +0.209 HD
ENDBRANCH  30  31
ENDBRANCH  21  30
ENDBRANCH  17  18
ENDBRANCH   4  17
BRANCH   6  33
ATOM     33  C   LIG A   1      -8.402   1.373 127.698  0.00  0.00    +0.129 C 
BRANCH  33  34
ATOM     34  C   LIG A   1      -8.005   1.662 126.258  0.00  0.00    +0.307 C 
ATOM     35  O   LIG A   1      -7.034   1.175 125.707  0.00  0.00    -0.251 OA
BRANCH  34  36
ATOM     36  O   LIG A   1      -8.864   2.539 125.688  0.00  0.00    -0.468 OA
ATOM     37  C   LIG A   1      -8.294   3.699 125.072  0.00  0.00    +0.280 C 
ENDBRANCH  34  36
ENDBRANCH  33  34
ENDBRANCH   6  33
TORSDOF 15
ENDMDL
