MODEL 1
REMARK VINA RESULT:      -8.7      0.000      0.000
REMARK  Name = NuBBE_1043
REMARK  14 active torsions:
REMARK  status: ('A' for Active; 'I' for Inactive)
REMARK    1  A    between atoms: C_1  and  C_2
REMARK    2  A    between atoms: C_8  and  C_30
REMARK    3  A    between atoms: C_13  and  C_14
REMARK    4  A    between atoms: C_15  and  C_19
REMARK    5  A    between atoms: C_19  and  C_21
REMARK    6  A    between atoms: C_19  and  C_29
REMARK    7  A    between atoms: C_21  and  C_22
REMARK    8  A    between atoms: C_22  and  C_23
REMARK    9  A    between atoms: C_24  and  C_25
REMARK   10  A    between atoms: C_24  and  C_28
REMARK   11  A    between atoms: C_25  and  O_27
REMARK   12  A    between atoms: N_34  and  O_35
REMARK   13  A    between atoms: C_36  and  C_37
REMARK   14  A    between atoms: C_36  and  C_38
REMARK                            x       y       z     vdW  Elec       q    Type
REMARK                         _______ _______ _______ _____ _____    ______ ____
ROOT
ATOM      1  C   LIG A   1      -8.186   2.764 126.557  0.00  0.00    +0.016 C 
ATOM      2  C   LIG A   1      -7.104   2.343 127.582  0.00  0.00    -0.005 C 
ATOM      3  C   LIG A   1      -6.634   0.928 127.165  0.00  0.00    -0.063 C 
ATOM      4  C   LIG A   1      -5.569   0.685 126.382  0.00  0.00    -0.026 C 
ATOM      5  C   LIG A   1      -5.248  -0.652 125.804  0.00  0.00    +0.032 C 
ATOM      6  C   LIG A   1      -6.475  -1.576 125.644  0.00  0.00    +0.011 C 
ATOM      7  C   LIG A   1      -7.283  -1.638 126.993  0.00  0.00    -0.021 C 
ATOM      8  C   LIG A   1      -7.552  -0.202 127.604  0.00  0.00    +0.021 C 
ATOM      9  C   LIG A   1      -7.593  -0.173 129.136  0.00  0.00    +0.009 C 
ATOM     10  C   LIG A   1      -8.213   1.128 129.635  0.00  0.00    +0.008 C 
ATOM     11  C   LIG A   1      -7.557   2.434 129.106  0.00  0.00    -0.020 C 
ATOM     12  C   LIG A   1      -8.627   3.553 129.263  0.00  0.00    +0.012 C 
ATOM     13  C   LIG A   1      -6.199   2.748 129.898  0.00  0.00    -0.001 C 
ATOM     14  C   LIG A   1      -5.189   3.170 128.803  0.00  0.00    +0.005 C 
ATOM     15  C   LIG A   1      -6.002   3.420 127.550  0.00  0.00    +0.012 C 
ATOM     16  C   LIG A   1      -6.464  -2.536 127.966  0.00  0.00    +0.012 C 
ATOM     17  C   LIG A   1      -8.664  -2.334 126.775  0.00  0.00    +0.013 C 
ATOM     18  C   LIG A   1      -8.686  -3.258 125.567  0.00  0.00    +0.055 C 
ATOM     19  C   LIG A   1      -8.471  -2.420 124.317  0.00  0.00    +0.063 C 
ATOM     20  N   LIG A   1      -9.176  -2.537 123.227  0.00  0.00    -0.096 NA
ATOM     21  C   LIG A   1      -7.344  -1.357 124.349  0.00  0.00    +0.010 C 
ATOM     22  C   LIG A   1      -6.470  -1.566 123.090  0.00  0.00    +0.017 C 
ATOM     23  C   LIG A   1      -8.004   0.022 124.233  0.00  0.00    +0.017 C 
ENDROOT
BRANCH  13  24
ATOM     24  C   LIG A   1      -6.288   3.785 131.072  0.00  0.00    -0.010 C 
ATOM     25  C   LIG A   1      -5.729   3.226 132.392  0.00  0.00    +0.008 C 
BRANCH  24  26
ATOM     26  C   LIG A   1      -5.547   5.125 130.786  0.00  0.00    +0.007 C 
BRANCH  26  27
ATOM     27  C   LIG A   1      -6.147   6.352 131.510  0.00  0.00    +0.028 C 
BRANCH  27  28
ATOM     28  C   LIG A   1      -7.506   6.772 131.001  0.00  0.00    -0.017 C 
ATOM     29  C   LIG A   1      -8.746   6.470 131.451  0.00  0.00    +0.029 C 
ATOM     30  C   LIG A   1      -9.973   6.950 130.708  0.00  0.00    +0.051 C 
BRANCH  29  31
ATOM     31  C   LIG A   1      -9.125   5.662 132.652  0.00  0.00    +0.332 C 
ATOM     32  O   LIG A   1      -9.314   4.464 132.607  0.00  0.00    -0.245 OA
BRANCH  31  33
ATOM     33  O   LIG A   1      -9.334   6.380 133.772  0.00  0.00    -0.477 OA
ATOM     34  H   LIG A   1     -10.213   6.245 134.161  0.00  0.00    +0.295 HD
ENDBRANCH  31  33
ENDBRANCH  29  31
ENDBRANCH  27  28
ENDBRANCH  26  27
ENDBRANCH  24  26
ENDBRANCH  13  24
BRANCH  20  35
ATOM     35  O   LIG A   1     -10.148  -3.533 123.323  0.00  0.00    -0.409 OA
ATOM     36  H   LIG A   1     -10.708  -3.206 124.052  0.00  0.00    +0.328 HD
ENDBRANCH  20  35
TORSDOF 7
ENDMDL
MODEL 2
REMARK VINA RESULT:      -8.7      3.430      5.137
REMARK  Name = NuBBE_1043
REMARK  14 active torsions:
REMARK  status: ('A' for Active; 'I' for Inactive)
REMARK    1  A    between atoms: C_1  and  C_2
REMARK    2  A    between atoms: C_8  and  C_30
REMARK    3  A    between atoms: C_13  and  C_14
REMARK    4  A    between atoms: C_15  and  C_19
REMARK    5  A    between atoms: C_19  and  C_21
REMARK    6  A    between atoms: C_19  and  C_29
REMARK    7  A    between atoms: C_21  and  C_22
REMARK    8  A    between atoms: C_22  and  C_23
REMARK    9  A    between atoms: C_24  and  C_25
REMARK   10  A    between atoms: C_24  and  C_28
REMARK   11  A    between atoms: C_25  and  O_27
REMARK   12  A    between atoms: N_34  and  O_35
REMARK   13  A    between atoms: C_36  and  C_37
REMARK   14  A    between atoms: C_36  and  C_38
REMARK                            x       y       z     vdW  Elec       q    Type
REMARK                         _______ _______ _______ _____ _____    ______ ____
ROOT
ATOM      1  C   LIG A   1      -7.212  -0.057 128.706  0.00  0.00    +0.016 C 
ATOM      2  C   LIG A   1      -6.455  -1.405 128.613  0.00  0.00    -0.005 C 
ATOM      3  C   LIG A   1      -6.467  -1.811 127.119  0.00  0.00    -0.063 C 
ATOM      4  C   LIG A   1      -5.478  -1.532 126.252  0.00  0.00    -0.026 C 
ATOM      5  C   LIG A   1      -5.586  -1.726 124.777  0.00  0.00    +0.032 C 
ATOM      6  C   LIG A   1      -7.033  -1.684 124.243  0.00  0.00    +0.011 C 
ATOM      7  C   LIG A   1      -7.947  -2.651 125.085  0.00  0.00    -0.021 C 
ATOM      8  C   LIG A   1      -7.760  -2.454 126.645  0.00  0.00    +0.021 C 
ATOM      9  C   LIG A   1      -7.946  -3.737 127.463  0.00  0.00    +0.009 C 
ATOM     10  C   LIG A   1      -8.122  -3.414 128.943  0.00  0.00    +0.008 C 
ATOM     11  C   LIG A   1      -7.002  -2.546 129.581  0.00  0.00    -0.020 C 
ATOM     12  C   LIG A   1      -7.626  -1.894 130.850  0.00  0.00    +0.012 C 
ATOM     13  C   LIG A   1      -5.709  -3.436 129.905  0.00  0.00    -0.001 C 
ATOM     14  C   LIG A   1      -4.509  -2.576 129.438  0.00  0.00    +0.005 C 
ATOM     15  C   LIG A   1      -5.050  -1.181 129.206  0.00  0.00    +0.012 C 
ATOM     16  C   LIG A   1      -7.596  -4.101 124.639  0.00  0.00    +0.012 C 
ATOM     17  C   LIG A   1      -9.454  -2.417 124.747  0.00  0.00    +0.013 C 
ATOM     18  C   LIG A   1      -9.671  -1.797 123.376  0.00  0.00    +0.055 C 
ATOM     19  C   LIG A   1      -9.051  -0.410 123.370  0.00  0.00    +0.063 C 
ATOM     20  N   LIG A   1      -9.636   0.653 122.893  0.00  0.00    -0.096 NA
ATOM     21  C   LIG A   1      -7.634  -0.254 123.978  0.00  0.00    +0.010 C 
ATOM     22  C   LIG A   1      -6.763   0.497 122.943  0.00  0.00    +0.017 C 
ATOM     23  C   LIG A   1      -7.757   0.641 125.218  0.00  0.00    +0.017 C 
ENDROOT
BRANCH  13  24
ATOM     24  C   LIG A   1      -5.552  -3.946 131.380  0.00  0.00    -0.010 C 
ATOM     25  C   LIG A   1      -5.494  -5.481 131.466  0.00  0.00    +0.008 C 
BRANCH  24  26
ATOM     26  C   LIG A   1      -4.290  -3.393 132.106  0.00  0.00    +0.007 C 
BRANCH  26  27
ATOM     27  C   LIG A   1      -4.588  -2.296 133.153  0.00  0.00    +0.028 C 
BRANCH  27  28
ATOM     28  C   LIG A   1      -4.405  -0.884 132.646  0.00  0.00    -0.017 C 
ATOM     29  C   LIG A   1      -5.159   0.223 132.835  0.00  0.00    +0.029 C 
ATOM     30  C   LIG A   1      -4.811   1.520 132.140  0.00  0.00    +0.051 C 
BRANCH  29  31
ATOM     31  C   LIG A   1      -6.385   0.376 133.679  0.00  0.00    +0.332 C 
ATOM     32  O   LIG A   1      -7.449   0.757 133.233  0.00  0.00    -0.245 OA
BRANCH  31  33
ATOM     33  O   LIG A   1      -6.198   0.151 134.993  0.00  0.00    -0.477 OA
ATOM     34  H   LIG A   1      -6.987   0.318 135.532  0.00  0.00    +0.295 HD
ENDBRANCH  31  33
ENDBRANCH  29  31
ENDBRANCH  27  28
ENDBRANCH  26  27
ENDBRANCH  24  26
ENDBRANCH  13  24
BRANCH  20  35
ATOM     35  O   LIG A   1     -10.899   0.377 122.368  0.00  0.00    -0.409 OA
ATOM     36  H   LIG A   1     -10.689   0.114 121.452  0.00  0.00    +0.328 HD
ENDBRANCH  20  35
TORSDOF 7
ENDMDL
MODEL 3
REMARK VINA RESULT:      -8.7      4.350      6.335
REMARK  Name = NuBBE_1043
REMARK  14 active torsions:
REMARK  status: ('A' for Active; 'I' for Inactive)
REMARK    1  A    between atoms: C_1  and  C_2
REMARK    2  A    between atoms: C_8  and  C_30
REMARK    3  A    between atoms: C_13  and  C_14
REMARK    4  A    between atoms: C_15  and  C_19
REMARK    5  A    between atoms: C_19  and  C_21
REMARK    6  A    between atoms: C_19  and  C_29
REMARK    7  A    between atoms: C_21  and  C_22
REMARK    8  A    between atoms: C_22  and  C_23
REMARK    9  A    between atoms: C_24  and  C_25
REMARK   10  A    between atoms: C_24  and  C_28
REMARK   11  A    between atoms: C_25  and  O_27
REMARK   12  A    between atoms: N_34  and  O_35
REMARK   13  A    between atoms: C_36  and  C_37
REMARK   14  A    between atoms: C_36  and  C_38
REMARK                            x       y       z     vdW  Elec       q    Type
REMARK                         _______ _______ _______ _____ _____    ______ ____
ROOT
ATOM      1  C   LIG A   1      -7.485  -0.226 128.828  0.00  0.00    +0.016 C 
ATOM      2  C   LIG A   1      -6.653  -1.523 128.679  0.00  0.00    -0.005 C 
ATOM      3  C   LIG A   1      -6.569  -1.816 127.161  0.00  0.00    -0.063 C 
ATOM      4  C   LIG A   1      -5.556  -1.423 126.370  0.00  0.00    -0.026 C 
ATOM      5  C   LIG A   1      -5.580  -1.511 124.880  0.00  0.00    +0.032 C 
ATOM      6  C   LIG A   1      -7.000  -1.502 124.276  0.00  0.00    +0.011 C 
ATOM      7  C   LIG A   1      -7.900  -2.574 124.995  0.00  0.00    -0.021 C 
ATOM      8  C   LIG A   1      -7.801  -2.486 126.573  0.00  0.00    +0.021 C 
ATOM      9  C   LIG A   1      -7.957  -3.835 127.285  0.00  0.00    +0.009 C 
ATOM     10  C   LIG A   1      -8.222  -3.632 128.774  0.00  0.00    +0.008 C 
ATOM     11  C   LIG A   1      -7.184  -2.759 129.531  0.00  0.00    -0.020 C 
ATOM     12  C   LIG A   1      -7.903  -2.237 130.809  0.00  0.00    +0.012 C 
ATOM     13  C   LIG A   1      -5.862  -3.605 129.857  0.00  0.00    -0.001 C 
ATOM     14  C   LIG A   1      -4.688  -2.654 129.519  0.00  0.00    +0.005 C 
ATOM     15  C   LIG A   1      -5.292  -1.274 129.360  0.00  0.00    +0.012 C 
ATOM     16  C   LIG A   1      -7.450  -3.967 124.465  0.00  0.00    +0.012 C 
ATOM     17  C   LIG A   1      -9.399  -2.392 124.596  0.00  0.00    +0.013 C 
ATOM     18  C   LIG A   1      -9.582  -1.683 123.264  0.00  0.00    +0.055 C 
ATOM     19  C   LIG A   1      -9.039  -0.269 123.392  0.00  0.00    +0.063 C 
ATOM     20  N   LIG A   1      -9.656   0.795 122.962  0.00  0.00    -0.096 NA
ATOM     21  C   LIG A   1      -7.664  -0.088 124.083  0.00  0.00    +0.010 C 
ATOM     22  C   LIG A   1      -6.785   0.781 123.153  0.00  0.00    +0.017 C 
ATOM     23  C   LIG A   1      -7.895   0.704 125.376  0.00  0.00    +0.017 C 
ENDROOT
BRANCH  13  24
ATOM     24  C   LIG A   1      -5.749  -4.216 131.298  0.00  0.00    -0.010 C 
ATOM     25  C   LIG A   1      -5.378  -5.709 131.274  0.00  0.00    +0.008 C 
BRANCH  24  26
ATOM     26  C   LIG A   1      -4.713  -3.495 132.208  0.00  0.00    +0.007 C 
BRANCH  26  27
ATOM     27  C   LIG A   1      -5.228  -3.174 133.630  0.00  0.00    +0.028 C 
BRANCH  27  28
ATOM     28  C   LIG A   1      -5.883  -4.339 134.333  0.00  0.00    -0.017 C 
ATOM     29  C   LIG A   1      -7.041  -4.409 135.029  0.00  0.00    +0.029 C 
ATOM     30  C   LIG A   1      -7.447  -5.689 135.724  0.00  0.00    +0.051 C 
BRANCH  29  31
ATOM     31  C   LIG A   1      -8.056  -3.331 135.250  0.00  0.00    +0.332 C 
ATOM     32  O   LIG A   1      -8.166  -2.735 136.302  0.00  0.00    -0.245 OA
BRANCH  31  33
ATOM     33  O   LIG A   1      -8.904  -3.135 134.222  0.00  0.00    -0.477 OA
ATOM     34  H   LIG A   1      -9.025  -2.200 133.992  0.00  0.00    +0.295 HD
ENDBRANCH  31  33
ENDBRANCH  29  31
ENDBRANCH  27  28
ENDBRANCH  26  27
ENDBRANCH  24  26
ENDBRANCH  13  24
BRANCH  20  35
ATOM     35  O   LIG A   1     -10.874   0.496 122.353  0.00  0.00    -0.409 OA
ATOM     36  H   LIG A   1     -10.600  -0.069 121.607  0.00  0.00    +0.328 HD
ENDBRANCH  20  35
TORSDOF 7
ENDMDL
MODEL 4
REMARK VINA RESULT:      -8.7      4.326      5.803
REMARK  Name = NuBBE_1043
REMARK  14 active torsions:
REMARK  status: ('A' for Active; 'I' for Inactive)
REMARK    1  A    between atoms: C_1  and  C_2
REMARK    2  A    between atoms: C_8  and  C_30
REMARK    3  A    between atoms: C_13  and  C_14
REMARK    4  A    between atoms: C_15  and  C_19
REMARK    5  A    between atoms: C_19  and  C_21
REMARK    6  A    between atoms: C_19  and  C_29
REMARK    7  A    between atoms: C_21  and  C_22
REMARK    8  A    between atoms: C_22  and  C_23
REMARK    9  A    between atoms: C_24  and  C_25
REMARK   10  A    between atoms: C_24  and  C_28
REMARK   11  A    between atoms: C_25  and  O_27
REMARK   12  A    between atoms: N_34  and  O_35
REMARK   13  A    between atoms: C_36  and  C_37
REMARK   14  A    between atoms: C_36  and  C_38
REMARK                            x       y       z     vdW  Elec       q    Type
REMARK                         _______ _______ _______ _____ _____    ______ ____
ROOT
ATOM      1  C   LIG A   1      -7.473  -0.048 128.816  0.00  0.00    +0.016 C 
ATOM      2  C   LIG A   1      -6.625  -1.340 128.712  0.00  0.00    -0.005 C 
ATOM      3  C   LIG A   1      -6.540  -1.686 127.205  0.00  0.00    -0.063 C 
ATOM      4  C   LIG A   1      -5.532  -1.310 126.399  0.00  0.00    -0.026 C 
ATOM      5  C   LIG A   1      -5.557  -1.451 124.914  0.00  0.00    +0.032 C 
ATOM      6  C   LIG A   1      -6.978  -1.482 124.311  0.00  0.00    +0.011 C 
ATOM      7  C   LIG A   1      -7.864  -2.538 125.071  0.00  0.00    -0.021 C 
ATOM      8  C   LIG A   1      -7.764  -2.392 126.644  0.00  0.00    +0.021 C 
ATOM      9  C   LIG A   1      -7.903  -3.716 127.405  0.00  0.00    +0.009 C 
ATOM     10  C   LIG A   1      -8.169  -3.463 128.885  0.00  0.00    +0.008 C 
ATOM     11  C   LIG A   1      -7.140  -2.551 129.609  0.00  0.00    -0.020 C 
ATOM     12  C   LIG A   1      -7.864  -1.992 130.868  0.00  0.00    +0.012 C 
ATOM     13  C   LIG A   1      -5.808  -3.368 129.963  0.00  0.00    -0.001 C 
ATOM     14  C   LIG A   1      -4.646  -2.415 129.589  0.00  0.00    +0.005 C 
ATOM     15  C   LIG A   1      -5.267  -1.050 129.381  0.00  0.00    +0.012 C 
ATOM     16  C   LIG A   1      -7.397  -3.944 124.590  0.00  0.00    +0.012 C 
ATOM     17  C   LIG A   1      -9.365  -2.389 124.668  0.00  0.00    +0.013 C 
ATOM     18  C   LIG A   1      -9.559  -1.730 123.311  0.00  0.00    +0.055 C 
ATOM     19  C   LIG A   1      -9.032  -0.306 123.387  0.00  0.00    +0.063 C 
ATOM     20  N   LIG A   1      -9.664   0.734 122.921  0.00  0.00    -0.096 NA
ATOM     21  C   LIG A   1      -7.659  -0.084 124.069  0.00  0.00    +0.010 C 
ATOM     22  C   LIG A   1      -6.792   0.762 123.107  0.00  0.00    +0.017 C 
ATOM     23  C   LIG A   1      -7.899   0.751 125.333  0.00  0.00    +0.017 C 
ENDROOT
BRANCH  13  24
ATOM     24  C   LIG A   1      -5.686  -3.925 131.425  0.00  0.00    -0.010 C 
ATOM     25  C   LIG A   1      -5.437  -5.443 131.454  0.00  0.00    +0.008 C 
BRANCH  24  26
ATOM     26  C   LIG A   1      -4.558  -3.255 132.262  0.00  0.00    +0.007 C 
BRANCH  26  27
ATOM     27  C   LIG A   1      -5.063  -2.242 133.316  0.00  0.00    +0.028 C 
BRANCH  27  28
ATOM     28  C   LIG A   1      -4.536  -0.838 133.133  0.00  0.00    -0.017 C 
ATOM     29  C   LIG A   1      -3.330  -0.305 133.434  0.00  0.00    +0.029 C 
ATOM     30  C   LIG A   1      -3.068   1.171 133.232  0.00  0.00    +0.051 C 
BRANCH  29  31
ATOM     31  C   LIG A   1      -2.125  -0.994 133.991  0.00  0.00    +0.332 C 
ATOM     32  O   LIG A   1      -1.381  -1.673 133.312  0.00  0.00    -0.245 OA
BRANCH  31  33
ATOM     33  O   LIG A   1      -1.978  -0.884 135.325  0.00  0.00    -0.477 OA
ATOM     34  H   LIG A   1      -1.246  -0.303 135.588  0.00  0.00    +0.295 HD
ENDBRANCH  31  33
ENDBRANCH  29  31
ENDBRANCH  27  28
ENDBRANCH  26  27
ENDBRANCH  24  26
ENDBRANCH  13  24
BRANCH  20  35
ATOM     35  O   LIG A   1     -10.879   0.398 122.324  0.00  0.00    -0.409 OA
ATOM     36  H   LIG A   1     -11.367   1.242 122.359  0.00  0.00    +0.328 HD
ENDBRANCH  20  35
TORSDOF 7
ENDMDL
MODEL 5
REMARK VINA RESULT:      -8.7      1.526      2.119
REMARK  Name = NuBBE_1043
REMARK  14 active torsions:
REMARK  status: ('A' for Active; 'I' for Inactive)
REMARK    1  A    between atoms: C_1  and  C_2
REMARK    2  A    between atoms: C_8  and  C_30
REMARK    3  A    between atoms: C_13  and  C_14
REMARK    4  A    between atoms: C_15  and  C_19
REMARK    5  A    between atoms: C_19  and  C_21
REMARK    6  A    between atoms: C_19  and  C_29
REMARK    7  A    between atoms: C_21  and  C_22
REMARK    8  A    between atoms: C_22  and  C_23
REMARK    9  A    between atoms: C_24  and  C_25
REMARK   10  A    between atoms: C_24  and  C_28
REMARK   11  A    between atoms: C_25  and  O_27
REMARK   12  A    between atoms: N_34  and  O_35
REMARK   13  A    between atoms: C_36  and  C_37
REMARK   14  A    between atoms: C_36  and  C_38
REMARK                            x       y       z     vdW  Elec       q    Type
REMARK                         _______ _______ _______ _____ _____    ______ ____
ROOT
ATOM      1  C   LIG A   1      -8.959   2.115 129.206  0.00  0.00    +0.016 C 
ATOM      2  C   LIG A   1      -7.687   1.653 129.957  0.00  0.00    -0.005 C 
ATOM      3  C   LIG A   1      -6.989   0.618 129.041  0.00  0.00    -0.063 C 
ATOM      4  C   LIG A   1      -6.010   0.919 128.170  0.00  0.00    -0.026 C 
ATOM      5  C   LIG A   1      -5.495  -0.028 127.138  0.00  0.00    +0.032 C 
ATOM      6  C   LIG A   1      -6.510  -1.114 126.722  0.00  0.00    +0.011 C 
ATOM      7  C   LIG A   1      -7.100  -1.818 127.999  0.00  0.00    -0.021 C 
ATOM      8  C   LIG A   1      -7.581  -0.780 129.094  0.00  0.00    +0.021 C 
ATOM      9  C   LIG A   1      -7.424  -1.276 130.537  0.00  0.00    +0.009 C 
ATOM     10  C   LIG A   1      -8.232  -0.409 131.497  0.00  0.00    +0.008 C 
ATOM     11  C   LIG A   1      -7.942   1.116 131.435  0.00  0.00    -0.020 C 
ATOM     12  C   LIG A   1      -9.193   1.822 132.034  0.00  0.00    +0.012 C 
ATOM     13  C   LIG A   1      -6.588   1.469 132.217  0.00  0.00    -0.001 C 
ATOM     14  C   LIG A   1      -5.844   2.465 131.295  0.00  0.00    +0.005 C 
ATOM     15  C   LIG A   1      -6.850   2.913 130.255  0.00  0.00    +0.012 C 
ATOM     16  C   LIG A   1      -5.989  -2.761 128.547  0.00  0.00    +0.012 C 
ATOM     17  C   LIG A   1      -8.320  -2.716 127.619  0.00  0.00    +0.013 C 
ATOM     18  C   LIG A   1      -8.307  -3.159 126.164  0.00  0.00    +0.055 C 
ATOM     19  C   LIG A   1      -8.441  -1.926 125.284  0.00  0.00    +0.063 C 
ATOM     20  N   LIG A   1      -9.244  -1.840 124.261  0.00  0.00    -0.096 NA
ATOM     21  C   LIG A   1      -7.569  -0.694 125.636  0.00  0.00    +0.010 C 
ATOM     22  C   LIG A   1      -6.846  -0.251 124.342  0.00  0.00    +0.017 C 
ATOM     23  C   LIG A   1      -8.514   0.440 126.052  0.00  0.00    +0.017 C 
ENDROOT
BRANCH  13  24
ATOM     24  C   LIG A   1      -6.736   1.999 133.686  0.00  0.00    -0.010 C 
ATOM     25  C   LIG A   1      -5.983   1.124 134.704  0.00  0.00    +0.008 C 
BRANCH  24  26
ATOM     26  C   LIG A   1      -6.244   3.463 133.879  0.00  0.00    +0.007 C 
BRANCH  26  27
ATOM     27  C   LIG A   1      -7.375   4.517 133.913  0.00  0.00    +0.028 C 
BRANCH  27  28
ATOM     28  C   LIG A   1      -7.313   5.533 132.796  0.00  0.00    -0.017 C 
ATOM     29  C   LIG A   1      -8.290   6.030 132.004  0.00  0.00    +0.029 C 
ATOM     30  C   LIG A   1      -7.959   6.987 130.882  0.00  0.00    +0.051 C 
BRANCH  29  31
ATOM     31  C   LIG A   1      -9.759   5.750 132.058  0.00  0.00    +0.332 C 
ATOM     32  O   LIG A   1     -10.322   5.028 131.260  0.00  0.00    -0.245 OA
BRANCH  31  33
ATOM     33  O   LIG A   1     -10.430   6.434 133.004  0.00  0.00    -0.477 OA
ATOM     34  H   LIG A   1      -9.869   7.038 133.517  0.00  0.00    +0.295 HD
ENDBRANCH  31  33
ENDBRANCH  29  31
ENDBRANCH  27  28
ENDBRANCH  26  27
ENDBRANCH  24  26
ENDBRANCH  13  24
BRANCH  20  35
ATOM     35  O   LIG A   1      -9.963  -3.016 124.046  0.00  0.00    -0.409 OA
ATOM     36  H   LIG A   1      -9.360  -3.525 123.474  0.00  0.00    +0.328 HD
ENDBRANCH  20  35
TORSDOF 7
ENDMDL
MODEL 6
REMARK VINA RESULT:      -8.5      3.046      8.957
REMARK  Name = NuBBE_1043
REMARK  14 active torsions:
REMARK  status: ('A' for Active; 'I' for Inactive)
REMARK    1  A    between atoms: C_1  and  C_2
REMARK    2  A    between atoms: C_8  and  C_30
REMARK    3  A    between atoms: C_13  and  C_14
REMARK    4  A    between atoms: C_15  and  C_19
REMARK    5  A    between atoms: C_19  and  C_21
REMARK    6  A    between atoms: C_19  and  C_29
REMARK    7  A    between atoms: C_21  and  C_22
REMARK    8  A    between atoms: C_22  and  C_23
REMARK    9  A    between atoms: C_24  and  C_25
REMARK   10  A    between atoms: C_24  and  C_28
REMARK   11  A    between atoms: C_25  and  O_27
REMARK   12  A    between atoms: N_34  and  O_35
REMARK   13  A    between atoms: C_36  and  C_37
REMARK   14  A    between atoms: C_36  and  C_38
REMARK                            x       y       z     vdW  Elec       q    Type
REMARK                         _______ _______ _______ _____ _____    ______ ____
ROOT
ATOM      1  C   LIG A   1      -5.336   0.861 128.718  0.00  0.00    +0.016 C 
ATOM      2  C   LIG A   1      -6.813   0.473 128.461  0.00  0.00    -0.005 C 
ATOM      3  C   LIG A   1      -7.672   1.419 129.337  0.00  0.00    -0.063 C 
ATOM      4  C   LIG A   1      -8.205   2.574 128.902  0.00  0.00    -0.026 C 
ATOM      5  C   LIG A   1      -8.841   3.585 129.797  0.00  0.00    +0.032 C 
ATOM      6  C   LIG A   1      -8.335   3.538 131.254  0.00  0.00    +0.011 C 
ATOM      7  C   LIG A   1      -8.406   2.064 131.802  0.00  0.00    -0.021 C 
ATOM      8  C   LIG A   1      -7.774   1.015 130.798  0.00  0.00    +0.021 C 
ATOM      9  C   LIG A   1      -8.443  -0.364 130.834  0.00  0.00    +0.009 C 
ATOM     10  C   LIG A   1      -7.571  -1.406 130.140  0.00  0.00    +0.008 C 
ATOM     11  C   LIG A   1      -7.148  -1.068 128.683  0.00  0.00    -0.020 C 
ATOM     12  C   LIG A   1      -5.880  -1.921 128.389  0.00  0.00    +0.012 C 
ATOM     13  C   LIG A   1      -8.348  -1.358 127.662  0.00  0.00    -0.001 C 
ATOM     14  C   LIG A   1      -8.363  -0.137 126.709  0.00  0.00    +0.005 C 
ATOM     15  C   LIG A   1      -7.062   0.601 126.945  0.00  0.00    +0.012 C 
ATOM     16  C   LIG A   1      -9.906   1.761 132.085  0.00  0.00    +0.012 C 
ATOM     17  C   LIG A   1      -7.647   1.945 133.162  0.00  0.00    +0.013 C 
ATOM     18  C   LIG A   1      -7.532   3.269 133.901  0.00  0.00    +0.055 C 
ATOM     19  C   LIG A   1      -6.686   4.216 133.065  0.00  0.00    +0.063 C 
ATOM     20  N   LIG A   1      -5.723   4.954 133.542  0.00  0.00    -0.096 NA
ATOM     21  C   LIG A   1      -6.990   4.300 131.548  0.00  0.00    +0.010 C 
ATOM     22  C   LIG A   1      -7.145   5.796 131.185  0.00  0.00    +0.017 C 
ATOM     23  C   LIG A   1      -5.762   3.766 130.799  0.00  0.00    +0.017 C 
ENDROOT
BRANCH  13  24
ATOM     24  C   LIG A   1      -8.310  -2.724 126.893  0.00  0.00    -0.010 C 
ATOM     25  C   LIG A   1      -8.900  -3.879 127.720  0.00  0.00    +0.008 C 
BRANCH  24  26
ATOM     26  C   LIG A   1      -9.061  -2.701 125.529  0.00  0.00    +0.007 C 
BRANCH  26  27
ATOM     27  C   LIG A   1      -8.569  -3.756 124.512  0.00  0.00    +0.028 C 
BRANCH  27  28
ATOM     28  C   LIG A   1      -7.073  -3.967 124.508  0.00  0.00    -0.017 C 
ATOM     29  C   LIG A   1      -6.087  -3.261 123.909  0.00  0.00    +0.029 C 
ATOM     30  C   LIG A   1      -4.650  -3.729 123.983  0.00  0.00    +0.051 C 
BRANCH  29  31
ATOM     31  C   LIG A   1      -6.202  -2.000 123.112  0.00  0.00    +0.332 C 
ATOM     32  O   LIG A   1      -6.028  -1.962 121.910  0.00  0.00    -0.245 OA
BRANCH  31  33
ATOM     33  O   LIG A   1      -6.422  -0.889 123.840  0.00  0.00    -0.477 OA
ATOM     34  H   LIG A   1      -7.131  -0.328 123.489  0.00  0.00    +0.295 HD
ENDBRANCH  31  33
ENDBRANCH  29  31
ENDBRANCH  27  28
ENDBRANCH  26  27
ENDBRANCH  24  26
ENDBRANCH  13  24
BRANCH  20  35
ATOM     35  O   LIG A   1      -5.559   4.794 134.917  0.00  0.00    -0.409 OA
ATOM     36  H   LIG A   1      -4.726   5.273 135.084  0.00  0.00    +0.328 HD
ENDBRANCH  20  35
TORSDOF 7
ENDMDL
MODEL 7
REMARK VINA RESULT:      -8.1      3.757      5.320
REMARK  Name = NuBBE_1043
REMARK  14 active torsions:
REMARK  status: ('A' for Active; 'I' for Inactive)
REMARK    1  A    between atoms: C_1  and  C_2
REMARK    2  A    between atoms: C_8  and  C_30
REMARK    3  A    between atoms: C_13  and  C_14
REMARK    4  A    between atoms: C_15  and  C_19
REMARK    5  A    between atoms: C_19  and  C_21
REMARK    6  A    between atoms: C_19  and  C_29
REMARK    7  A    between atoms: C_21  and  C_22
REMARK    8  A    between atoms: C_22  and  C_23
REMARK    9  A    between atoms: C_24  and  C_25
REMARK   10  A    between atoms: C_24  and  C_28
REMARK   11  A    between atoms: C_25  and  O_27
REMARK   12  A    between atoms: N_34  and  O_35
REMARK   13  A    between atoms: C_36  and  C_37
REMARK   14  A    between atoms: C_36  and  C_38
REMARK                            x       y       z     vdW  Elec       q    Type
REMARK                         _______ _______ _______ _____ _____    ______ ____
ROOT
ATOM      1  C   LIG A   1      -9.454   1.478 132.130  0.00  0.00    +0.016 C 
ATOM      2  C   LIG A   1      -8.765   2.424 131.116  0.00  0.00    -0.005 C 
ATOM      3  C   LIG A   1      -7.797   1.544 130.286  0.00  0.00    -0.063 C 
ATOM      4  C   LIG A   1      -8.111   0.983 129.105  0.00  0.00    -0.026 C 
ATOM      5  C   LIG A   1      -7.265  -0.036 128.418  0.00  0.00    +0.032 C 
ATOM      6  C   LIG A   1      -6.357  -0.842 129.370  0.00  0.00    +0.011 C 
ATOM      7  C   LIG A   1      -5.550   0.136 130.303  0.00  0.00    -0.021 C 
ATOM      8  C   LIG A   1      -6.474   1.238 130.967  0.00  0.00    +0.021 C 
ATOM      9  C   LIG A   1      -5.772   2.580 131.203  0.00  0.00    +0.009 C 
ATOM     10  C   LIG A   1      -6.579   3.450 132.161  0.00  0.00    +0.008 C 
ATOM     11  C   LIG A   1      -8.060   3.697 131.762  0.00  0.00    -0.020 C 
ATOM     12  C   LIG A   1      -8.804   4.093 133.071  0.00  0.00    +0.012 C 
ATOM     13  C   LIG A   1      -8.161   4.819 130.621  0.00  0.00    -0.001 C 
ATOM     14  C   LIG A   1      -9.191   4.264 129.608  0.00  0.00    +0.005 C 
ATOM     15  C   LIG A   1      -9.879   3.102 130.295  0.00  0.00    +0.012 C 
ATOM     16  C   LIG A   1      -4.431   0.771 129.427  0.00  0.00    +0.012 C 
ATOM     17  C   LIG A   1      -4.844  -0.655 131.450  0.00  0.00    +0.013 C 
ATOM     18  C   LIG A   1      -4.605  -2.118 131.110  0.00  0.00    +0.055 C 
ATOM     19  C   LIG A   1      -5.952  -2.800 130.940  0.00  0.00    +0.063 C 
ATOM     20  N   LIG A   1      -6.260  -3.955 131.459  0.00  0.00    -0.096 NA
ATOM     21  C   LIG A   1      -7.028  -2.065 130.100  0.00  0.00    +0.010 C 
ATOM     22  C   LIG A   1      -7.566  -3.069 129.053  0.00  0.00    +0.017 C 
ATOM     23  C   LIG A   1      -8.187  -1.708 131.039  0.00  0.00    +0.017 C 
ENDROOT
BRANCH  13  24
ATOM     24  C   LIG A   1      -8.499   6.278 131.090  0.00  0.00    -0.010 C 
ATOM     25  C   LIG A   1      -7.262   7.192 131.098  0.00  0.00    +0.008 C 
BRANCH  24  26
ATOM     26  C   LIG A   1      -9.588   6.980 130.226  0.00  0.00    +0.007 C 
BRANCH  26  27
ATOM     27  C   LIG A   1     -11.031   6.805 130.754  0.00  0.00    +0.028 C 
BRANCH  27  28
ATOM     28  C   LIG A   1     -11.998   7.867 130.286  0.00  0.00    -0.017 C 
ATOM     29  C   LIG A   1     -12.293   8.301 129.040  0.00  0.00    +0.029 C 
ATOM     30  C   LIG A   1     -13.247   9.455 128.832  0.00  0.00    +0.051 C 
BRANCH  29  31
ATOM     31  C   LIG A   1     -11.773   7.789 127.733  0.00  0.00    +0.332 C 
ATOM     32  O   LIG A   1     -12.115   6.724 127.260  0.00  0.00    -0.245 OA
BRANCH  31  33
ATOM     33  O   LIG A   1     -10.824   8.555 127.164  0.00  0.00    -0.477 OA
ATOM     34  H   LIG A   1     -10.503   9.268 127.739  0.00  0.00    +0.295 HD
ENDBRANCH  31  33
ENDBRANCH  29  31
ENDBRANCH  27  28
ENDBRANCH  26  27
ENDBRANCH  24  26
ENDBRANCH  13  24
BRANCH  20  35
ATOM     35  O   LIG A   1      -5.206  -4.513 132.181  0.00  0.00    -0.409 OA
ATOM     36  H   LIG A   1      -4.953  -3.784 132.777  0.00  0.00    +0.328 HD
ENDBRANCH  20  35
TORSDOF 7
ENDMDL
MODEL 8
REMARK VINA RESULT:      -8.1      3.513      5.279
REMARK  Name = NuBBE_1043
REMARK  14 active torsions:
REMARK  status: ('A' for Active; 'I' for Inactive)
REMARK    1  A    between atoms: C_1  and  C_2
REMARK    2  A    between atoms: C_8  and  C_30
REMARK    3  A    between atoms: C_13  and  C_14
REMARK    4  A    between atoms: C_15  and  C_19
REMARK    5  A    between atoms: C_19  and  C_21
REMARK    6  A    between atoms: C_19  and  C_29
REMARK    7  A    between atoms: C_21  and  C_22
REMARK    8  A    between atoms: C_22  and  C_23
REMARK    9  A    between atoms: C_24  and  C_25
REMARK   10  A    between atoms: C_24  and  C_28
REMARK   11  A    between atoms: C_25  and  O_27
REMARK   12  A    between atoms: N_34  and  O_35
REMARK   13  A    between atoms: C_36  and  C_37
REMARK   14  A    between atoms: C_36  and  C_38
REMARK                            x       y       z     vdW  Elec       q    Type
REMARK                         _______ _______ _______ _____ _____    ______ ____
ROOT
ATOM      1  C   LIG A   1      -5.937   1.640 131.882  0.00  0.00    +0.016 C 
ATOM      2  C   LIG A   1      -7.390   1.405 131.401  0.00  0.00    -0.005 C 
ATOM      3  C   LIG A   1      -7.460  -0.068 130.927  0.00  0.00    -0.063 C 
ATOM      4  C   LIG A   1      -7.862  -1.092 131.700  0.00  0.00    -0.026 C 
ATOM      5  C   LIG A   1      -7.720  -2.528 131.319  0.00  0.00    +0.032 C 
ATOM      6  C   LIG A   1      -6.584  -2.799 130.310  0.00  0.00    +0.011 C 
ATOM      7  C   LIG A   1      -6.704  -1.819 129.085  0.00  0.00    -0.021 C 
ATOM      8  C   LIG A   1      -6.911  -0.314 129.532  0.00  0.00    +0.021 C 
ATOM      9  C   LIG A   1      -7.766   0.513 128.564  0.00  0.00    +0.009 C 
ATOM     10  C   LIG A   1      -7.616   2.003 128.849  0.00  0.00    +0.008 C 
ATOM     11  C   LIG A   1      -7.909   2.443 130.311  0.00  0.00    -0.020 C 
ATOM     12  C   LIG A   1      -7.186   3.807 130.508  0.00  0.00    +0.012 C 
ATOM     13  C   LIG A   1      -9.488   2.527 130.572  0.00  0.00    -0.001 C 
ATOM     14  C   LIG A   1      -9.697   1.865 131.957  0.00  0.00    +0.005 C 
ATOM     15  C   LIG A   1      -8.322   1.744 132.581  0.00  0.00    +0.012 C 
ATOM     16  C   LIG A   1      -7.889  -2.332 128.215  0.00  0.00    +0.012 C 
ATOM     17  C   LIG A   1      -5.419  -1.885 128.199  0.00  0.00    +0.013 C 
ATOM     18  C   LIG A   1      -4.656  -3.192 128.347  0.00  0.00    +0.055 C 
ATOM     19  C   LIG A   1      -4.149  -3.294 129.776  0.00  0.00    +0.063 C 
ATOM     20  N   LIG A   1      -2.938  -3.652 130.101  0.00  0.00    -0.096 NA
ATOM     21  C   LIG A   1      -5.138  -2.942 130.916  0.00  0.00    +0.010 C 
ATOM     22  C   LIG A   1      -5.109  -4.107 131.934  0.00  0.00    +0.017 C 
ATOM     23  C   LIG A   1      -4.603  -1.692 131.626  0.00  0.00    +0.017 C 
ENDROOT
BRANCH  13  24
ATOM     24  C   LIG A   1     -10.147   3.947 130.475  0.00  0.00    -0.010 C 
ATOM     25  C   LIG A   1     -11.657   3.874 130.186  0.00  0.00    +0.008 C 
BRANCH  24  26
ATOM     26  C   LIG A   1      -9.963   4.816 131.754  0.00  0.00    +0.007 C 
BRANCH  26  27
ATOM     27  C   LIG A   1      -9.758   6.324 131.476  0.00  0.00    +0.028 C 
BRANCH  27  28
ATOM     28  C   LIG A   1     -11.010   7.053 131.049  0.00  0.00    -0.017 C 
ATOM     29  C   LIG A   1     -11.340   7.615 129.864  0.00  0.00    +0.029 C 
ATOM     30  C   LIG A   1     -12.637   8.377 129.706  0.00  0.00    +0.051 C 
BRANCH  29  31
ATOM     31  C   LIG A   1     -10.557   7.615 128.588  0.00  0.00    +0.332 C 
ATOM     32  O   LIG A   1      -9.999   6.625 128.158  0.00  0.00    -0.245 OA
BRANCH  31  33
ATOM     33  O   LIG A   1     -10.438   8.819 127.998  0.00  0.00    -0.477 OA
ATOM     34  H   LIG A   1     -11.070   9.477 128.329  0.00  0.00    +0.295 HD
ENDBRANCH  31  33
ENDBRANCH  29  31
ENDBRANCH  27  28
ENDBRANCH  26  27
ENDBRANCH  24  26
ENDBRANCH  13  24
BRANCH  20  35
ATOM     35  O   LIG A   1      -2.153  -3.950 128.987  0.00  0.00    -0.409 OA
ATOM     36  H   LIG A   1      -1.414  -4.449 129.382  0.00  0.00    +0.328 HD
ENDBRANCH  20  35
TORSDOF 7
ENDMDL
MODEL 9
REMARK VINA RESULT:      -8.1      4.256      8.819
REMARK  Name = NuBBE_1043
REMARK  14 active torsions:
REMARK  status: ('A' for Active; 'I' for Inactive)
REMARK    1  A    between atoms: C_1  and  C_2
REMARK    2  A    between atoms: C_8  and  C_30
REMARK    3  A    between atoms: C_13  and  C_14
REMARK    4  A    between atoms: C_15  and  C_19
REMARK    5  A    between atoms: C_19  and  C_21
REMARK    6  A    between atoms: C_19  and  C_29
REMARK    7  A    between atoms: C_21  and  C_22
REMARK    8  A    between atoms: C_22  and  C_23
REMARK    9  A    between atoms: C_24  and  C_25
REMARK   10  A    between atoms: C_24  and  C_28
REMARK   11  A    between atoms: C_25  and  O_27
REMARK   12  A    between atoms: N_34  and  O_35
REMARK   13  A    between atoms: C_36  and  C_37
REMARK   14  A    between atoms: C_36  and  C_38
REMARK                            x       y       z     vdW  Elec       q    Type
REMARK                         _______ _______ _______ _____ _____    ______ ____
ROOT
ATOM      1  C   LIG A   1      -7.728   3.998 130.613  0.00  0.00    +0.016 C 
ATOM      2  C   LIG A   1      -6.758   2.840 130.275  0.00  0.00    -0.005 C 
ATOM      3  C   LIG A   1      -5.344   3.465 130.192  0.00  0.00    -0.063 C 
ATOM      4  C   LIG A   1      -4.474   3.504 131.216  0.00  0.00    -0.026 C 
ATOM      5  C   LIG A   1      -3.208   4.295 131.203  0.00  0.00    +0.032 C 
ATOM      6  C   LIG A   1      -3.235   5.504 130.244  0.00  0.00    +0.011 C 
ATOM      7  C   LIG A   1      -3.722   5.051 128.818  0.00  0.00    -0.021 C 
ATOM      8  C   LIG A   1      -5.034   4.166 128.880  0.00  0.00    +0.021 C 
ATOM      9  C   LIG A   1      -5.124   3.105 127.776  0.00  0.00    +0.009 C 
ATOM     10  C   LIG A   1      -6.544   2.557 127.668  0.00  0.00    +0.008 C 
ATOM     11  C   LIG A   1      -7.150   1.995 128.984  0.00  0.00    -0.020 C 
ATOM     12  C   LIG A   1      -8.696   2.022 128.797  0.00  0.00    +0.012 C 
ATOM     13  C   LIG A   1      -6.582   0.528 129.289  0.00  0.00    -0.001 C 
ATOM     14  C   LIG A   1      -6.260   0.534 130.804  0.00  0.00    +0.005 C 
ATOM     15  C   LIG A   1      -6.923   1.771 131.373  0.00  0.00    +0.012 C 
ATOM     16  C   LIG A   1      -2.538   4.283 128.161  0.00  0.00    +0.012 C 
ATOM     17  C   LIG A   1      -4.022   6.292 127.918  0.00  0.00    +0.013 C 
ATOM     18  C   LIG A   1      -3.276   7.543 128.356  0.00  0.00    +0.055 C 
ATOM     19  C   LIG A   1      -3.767   7.937 129.739  0.00  0.00    +0.063 C 
ATOM     20  N   LIG A   1      -4.080   9.153 130.086  0.00  0.00    -0.096 NA
ATOM     21  C   LIG A   1      -3.907   6.815 130.799  0.00  0.00    +0.010 C 
ATOM     22  C   LIG A   1      -3.169   7.283 132.075  0.00  0.00    +0.017 C 
ATOM     23  C   LIG A   1      -5.396   6.687 131.144  0.00  0.00    +0.017 C 
ENDROOT
BRANCH  13  24
ATOM     24  C   LIG A   1      -7.484  -0.684 128.867  0.00  0.00    -0.010 C 
ATOM     25  C   LIG A   1      -6.956  -1.399 127.612  0.00  0.00    +0.008 C 
BRANCH  24  26
ATOM     26  C   LIG A   1      -7.650  -1.762 129.978  0.00  0.00    +0.007 C 
BRANCH  26  27
ATOM     27  C   LIG A   1      -6.893  -3.082 129.705  0.00  0.00    +0.028 C 
BRANCH  27  28
ATOM     28  C   LIG A   1      -5.930  -3.485 130.797  0.00  0.00    -0.017 C 
ATOM     29  C   LIG A   1      -4.578  -3.466 130.828  0.00  0.00    +0.029 C 
ATOM     30  C   LIG A   1      -3.828  -4.010 132.023  0.00  0.00    +0.051 C 
BRANCH  29  31
ATOM     31  C   LIG A   1      -3.633  -2.965 129.781  0.00  0.00    +0.332 C 
ATOM     32  O   LIG A   1      -2.717  -3.634 129.347  0.00  0.00    -0.245 OA
BRANCH  31  33
ATOM     33  O   LIG A   1      -3.817  -1.681 129.423  0.00  0.00    -0.477 OA
ATOM     34  H   LIG A   1      -4.172  -1.575 128.526  0.00  0.00    +0.295 HD
ENDBRANCH  31  33
ENDBRANCH  29  31
ENDBRANCH  27  28
ENDBRANCH  26  27
ENDBRANCH  24  26
ENDBRANCH  13  24
BRANCH  20  35
ATOM     35  O   LIG A   1      -3.900  10.068 129.049  0.00  0.00    -0.409 OA
ATOM     36  H   LIG A   1      -2.969  10.334 129.166  0.00  0.00    +0.328 HD
ENDBRANCH  20  35
TORSDOF 7
ENDMDL
