MODEL 1
REMARK VINA RESULT:      -8.8      0.000      0.000
REMARK  Name = NuBBE_282
REMARK  17 active torsions:
REMARK  status: ('A' for Active; 'I' for Inactive)
REMARK    1  A    between atoms: O_1  and  C_2
REMARK    2  A    between atoms: C_5  and  O_6
REMARK    3  A    between atoms: O_6  and  C_7
REMARK    4  A    between atoms: C_10  and  C_18
REMARK    5  A    between atoms: C_12  and  O_17
REMARK    6  A    between atoms: C_14  and  O_16
REMARK    7  A    between atoms: C_18  and  O_19
REMARK    8  A    between atoms: O_19  and  C_20
REMARK    9  A    between atoms: C_22  and  O_34
REMARK   10  A    between atoms: C_24  and  O_33
REMARK   11  A    between atoms: C_26  and  O_32
REMARK   12  A    between atoms: C_28  and  C_31
REMARK   13  A    between atoms: C_35  and  O_37
REMARK   14  A    between atoms: C_38  and  C_46
REMARK   15  A    between atoms: C_42  and  O_43
REMARK   16  A    between atoms: C_49  and  O_53
REMARK   17  A    between atoms: C_50  and  O_51
REMARK                            x       y       z     vdW  Elec       q    Type
REMARK                         _______ _______ _______ _____ _____    ______ ____
ROOT
ATOM      1  C   LIG A   1      -7.777   4.675 126.345  0.00  0.00    +0.340 C 
ATOM      2  O   LIG A   1      -8.799   4.349 125.375  0.00  0.00    -0.331 OA
ATOM      3  C   LIG A   1      -8.568   3.188 124.565  0.00  0.00    +0.179 C 
ATOM      4  C   LIG A   1      -7.184   3.214 123.878  0.00  0.00    +0.177 C 
ATOM      5  C   LIG A   1      -6.063   3.537 124.866  0.00  0.00    +0.180 C 
ATOM      6  C   LIG A   1      -6.409   4.808 125.640  0.00  0.00    +0.214 C 
ENDROOT
BRANCH   5   7
ATOM      7  O   LIG A   1      -5.861   2.446 125.766  0.00  0.00    -0.386 OA
ATOM      8  H   LIG A   1      -6.681   1.920 125.775  0.00  0.00    +0.210 HD
ENDBRANCH   5   7
BRANCH   4   9
ATOM      9  O   LIG A   1      -6.863   2.036 123.140  0.00  0.00    -0.387 OA
ATOM     10  H   LIG A   1      -7.411   1.311 123.502  0.00  0.00    +0.210 HD
ENDBRANCH   4   9
BRANCH   6  11
ATOM     11  O   LIG A   1      -6.436   5.928 124.732  0.00  0.00    -0.383 OA
ATOM     12  H   LIG A   1      -6.764   5.603 123.869  0.00  0.00    +0.210 HD
ENDBRANCH   6  11
BRANCH   1  13
ATOM     13  O   LIG A   1      -7.839   3.821 127.495  0.00  0.00    -0.453 OA
BRANCH  13  17
ATOM     14  C   LIG A   1      -9.725   5.778 131.593  0.00  0.00    +0.135 A 
ATOM     15  C   LIG A   1      -8.636   5.311 130.851  0.00  0.00    +0.109 A 
ATOM     16  C   LIG A   1      -8.739   5.018 129.414  0.00  0.00    +0.238 A 
ATOM     17  C   LIG A   1      -7.576   4.332 128.757  0.00  0.00    +0.214 A 
ATOM     18  C   LIG A   1      -6.401   4.377 129.438  0.00  0.00    +0.181 A 
ATOM     19  O   LIG A   1      -6.294   4.744 130.780  0.00  0.00    -0.451 OA
ATOM     20  C   LIG A   1      -7.420   5.087 131.478  0.00  0.00    +0.146 A 
ATOM     21  C   LIG A   1      -7.297   5.252 132.862  0.00  0.00    +0.092 A 
ATOM     22  C   LIG A   1      -8.404   5.670 133.599  0.00  0.00    +0.124 A 
ATOM     23  C   LIG A   1      -9.611   5.956 132.971  0.00  0.00    +0.091 A 
ATOM     24  O   LIG A   1      -9.749   5.334 128.805  0.00  0.00    -0.283 OA
BRANCH  18  25
ATOM     25  C   LIG A   1      -5.064   4.093 128.854  0.00  0.00    +0.025 A 
ATOM     26  C   LIG A   1      -4.647   2.773 128.595  0.00  0.00    +0.015 A 
ATOM     27  C   LIG A   1      -3.390   2.505 128.035  0.00  0.00    +0.050 A 
ATOM     28  C   LIG A   1      -2.560   3.563 127.697  0.00  0.00    +0.158 A 
ATOM     29  C   LIG A   1      -2.949   4.867 127.971  0.00  0.00    +0.159 A 
ATOM     30  C   LIG A   1      -4.153   5.132 128.606  0.00  0.00    +0.060 A 
BRANCH  29  31
ATOM     31  O   LIG A   1      -2.168   5.916 127.581  0.00  0.00    -0.503 OA
ATOM     32  H   LIG A   1      -1.253   5.634 127.782  0.00  0.00    +0.292 HD
ENDBRANCH  29  31
BRANCH  28  33
ATOM     33  O   LIG A   1      -1.349   3.377 127.094  0.00  0.00    -0.503 OA
ATOM     34  H   LIG A   1      -0.661   3.384 127.781  0.00  0.00    +0.292 HD
ENDBRANCH  28  33
ENDBRANCH  18  25
BRANCH  14  35
ATOM     35  O   LIG A   1     -10.935   6.081 131.030  0.00  0.00    -0.506 OA
ATOM     36  H   LIG A   1     -11.536   5.313 131.165  0.00  0.00    +0.292 HD
ENDBRANCH  14  35
BRANCH  22  37
ATOM     37  O   LIG A   1      -8.345   5.822 134.954  0.00  0.00    -0.506 OA
ATOM     38  H   LIG A   1      -9.233   5.727 135.333  0.00  0.00    +0.292 HD
ENDBRANCH  22  37
ENDBRANCH  13  17
ENDBRANCH   1  13
BRANCH   3  39
ATOM     39  C   LIG A   1      -8.949   1.892 125.298  0.00  0.00    +0.197 C 
BRANCH  39  40
ATOM     40  O   LIG A   1      -8.339   0.788 124.628  0.00  0.00    -0.346 OA
BRANCH  40  41
ATOM     41  C   LIG A   1      -7.667  -0.136 125.472  0.00  0.00    +0.282 C 
ATOM     42  C   LIG A   1      -8.579  -1.190 126.124  0.00  0.00    +0.201 C 
ATOM     43  C   LIG A   1      -9.279  -1.988 125.023  0.00  0.00    +0.179 C 
ATOM     44  C   LIG A   1      -8.256  -2.623 124.074  0.00  0.00    +0.174 C 
ATOM     45  C   LIG A   1      -7.219  -1.587 123.606  0.00  0.00    +0.149 C 
ATOM     46  O   LIG A   1      -6.667  -0.842 124.709  0.00  0.00    -0.343 OA
ATOM     47  C   LIG A   1      -6.057  -2.280 122.897  0.00  0.00    +0.040 C 
BRANCH  44  48
ATOM     48  O   LIG A   1      -8.945  -3.201 122.960  0.00  0.00    -0.387 OA
ATOM     49  H   LIG A   1      -8.271  -3.713 122.471  0.00  0.00    +0.210 HD
ENDBRANCH  44  48
BRANCH  43  50
ATOM     50  O   LIG A   1     -10.080  -3.035 125.597  0.00  0.00    -0.386 OA
ATOM     51  H   LIG A   1      -9.773  -3.123 126.523  0.00  0.00    +0.210 HD
ENDBRANCH  43  50
BRANCH  42  52
ATOM     52  O   LIG A   1      -7.820  -2.106 126.941  0.00  0.00    -0.384 OA
ATOM     53  H   LIG A   1      -7.186  -1.566 127.456  0.00  0.00    +0.210 HD
ENDBRANCH  42  52
ENDBRANCH  40  41
ENDBRANCH  39  40
ENDBRANCH   3  39
TORSDOF 16
ENDMDL
MODEL 2
REMARK VINA RESULT:      -8.8      2.199      4.590
REMARK  Name = NuBBE_282
REMARK  17 active torsions:
REMARK  status: ('A' for Active; 'I' for Inactive)
REMARK    1  A    between atoms: O_1  and  C_2
REMARK    2  A    between atoms: C_5  and  O_6
REMARK    3  A    between atoms: O_6  and  C_7
REMARK    4  A    between atoms: C_10  and  C_18
REMARK    5  A    between atoms: C_12  and  O_17
REMARK    6  A    between atoms: C_14  and  O_16
REMARK    7  A    between atoms: C_18  and  O_19
REMARK    8  A    between atoms: O_19  and  C_20
REMARK    9  A    between atoms: C_22  and  O_34
REMARK   10  A    between atoms: C_24  and  O_33
REMARK   11  A    between atoms: C_26  and  O_32
REMARK   12  A    between atoms: C_28  and  C_31
REMARK   13  A    between atoms: C_35  and  O_37
REMARK   14  A    between atoms: C_38  and  C_46
REMARK   15  A    between atoms: C_42  and  O_43
REMARK   16  A    between atoms: C_49  and  O_53
REMARK   17  A    between atoms: C_50  and  O_51
REMARK                            x       y       z     vdW  Elec       q    Type
REMARK                         _______ _______ _______ _____ _____    ______ ____
ROOT
ATOM      1  C   LIG A   1      -7.960   4.141 128.005  0.00  0.00    +0.340 C 
ATOM      2  O   LIG A   1      -8.261   3.661 126.674  0.00  0.00    -0.331 OA
ATOM      3  C   LIG A   1      -7.713   2.387 126.312  0.00  0.00    +0.179 C 
ATOM      4  C   LIG A   1      -6.191   2.305 126.565  0.00  0.00    +0.177 C 
ATOM      5  C   LIG A   1      -5.820   2.784 127.969  0.00  0.00    +0.180 C 
ATOM      6  C   LIG A   1      -6.430   4.163 128.220  0.00  0.00    +0.214 C 
ENDROOT
BRANCH   5   7
ATOM      7  O   LIG A   1      -6.274   1.852 128.951  0.00  0.00    -0.386 OA
ATOM      8  H   LIG A   1      -6.292   2.317 129.807  0.00  0.00    +0.210 HD
ENDBRANCH   5   7
BRANCH   4   9
ATOM      9  O   LIG A   1      -5.612   1.025 126.316  0.00  0.00    -0.387 OA
ATOM     10  H   LIG A   1      -5.530   0.930 125.346  0.00  0.00    +0.210 HD
ENDBRANCH   4   9
BRANCH   6  11
ATOM     11  O   LIG A   1      -5.826   5.122 127.330  0.00  0.00    -0.383 OA
ATOM     12  H   LIG A   1      -5.775   5.977 127.804  0.00  0.00    +0.210 HD
ENDBRANCH   6  11
BRANCH   1  13
ATOM     13  O   LIG A   1      -8.751   3.482 129.002  0.00  0.00    -0.453 OA
BRANCH  13  17
ATOM     14  C   LIG A   1      -7.211   3.087 133.656  0.00  0.00    +0.135 A 
ATOM     15  C   LIG A   1      -7.953   3.738 132.665  0.00  0.00    +0.109 A 
ATOM     16  C   LIG A   1      -8.190   3.135 131.344  0.00  0.00    +0.238 A 
ATOM     17  C   LIG A   1      -8.821   3.996 130.289  0.00  0.00    +0.214 A 
ATOM     18  C   LIG A   1      -9.453   5.113 130.734  0.00  0.00    +0.181 A 
ATOM     19  O   LIG A   1      -9.297   5.632 132.020  0.00  0.00    -0.451 OA
ATOM     20  C   LIG A   1      -8.468   5.002 132.908  0.00  0.00    +0.146 A 
ATOM     21  C   LIG A   1      -8.185   5.662 134.109  0.00  0.00    +0.092 A 
ATOM     22  C   LIG A   1      -7.402   5.023 135.069  0.00  0.00    +0.124 A 
ATOM     23  C   LIG A   1      -6.932   3.731 134.860  0.00  0.00    +0.091 A 
ATOM     24  O   LIG A   1      -7.873   1.972 131.147  0.00  0.00    -0.283 OA
BRANCH  18  25
ATOM     25  C   LIG A   1     -10.430   5.913 129.951  0.00  0.00    +0.025 A 
ATOM     26  C   LIG A   1     -11.799   5.582 129.938  0.00  0.00    +0.015 A 
ATOM     27  C   LIG A   1     -12.724   6.342 129.208  0.00  0.00    +0.050 A 
ATOM     28  C   LIG A   1     -12.284   7.460 128.516  0.00  0.00    +0.158 A 
ATOM     29  C   LIG A   1     -10.934   7.781 128.499  0.00  0.00    +0.159 A 
ATOM     30  C   LIG A   1     -10.004   6.982 129.147  0.00  0.00    +0.060 A 
BRANCH  29  31
ATOM     31  O   LIG A   1     -10.502   8.916 127.876  0.00  0.00    -0.503 OA
ATOM     32  H   LIG A   1     -10.818   8.831 126.954  0.00  0.00    +0.292 HD
ENDBRANCH  29  31
BRANCH  28  33
ATOM     33  O   LIG A   1     -13.138   8.278 127.833  0.00  0.00    -0.503 OA
ATOM     34  H   LIG A   1     -13.964   7.793 127.672  0.00  0.00    +0.292 HD
ENDBRANCH  28  33
ENDBRANCH  18  25
BRANCH  14  35
ATOM     35  O   LIG A   1      -6.728   1.815 133.510  0.00  0.00    -0.506 OA
ATOM     36  H   LIG A   1      -6.368   1.524 134.379  0.00  0.00    +0.292 HD
ENDBRANCH  14  35
BRANCH  22  37
ATOM     37  O   LIG A   1      -7.075   5.632 136.245  0.00  0.00    -0.506 OA
ATOM     38  H   LIG A   1      -6.313   6.216 136.111  0.00  0.00    +0.292 HD
ENDBRANCH  22  37
ENDBRANCH  13  17
ENDBRANCH   1  13
BRANCH   3  39
ATOM     39  C   LIG A   1      -8.563   1.224 126.847  0.00  0.00    +0.197 C 
BRANCH  39  40
ATOM     40  O   LIG A   1      -8.609   0.193 125.859  0.00  0.00    -0.346 OA
BRANCH  40  41
ATOM     41  C   LIG A   1      -8.365  -1.120 126.344  0.00  0.00    +0.282 C 
ATOM     42  C   LIG A   1      -9.323  -2.193 125.795  0.00  0.00    +0.201 C 
ATOM     43  C   LIG A   1      -9.205  -2.228 124.271  0.00  0.00    +0.179 C 
ATOM     44  C   LIG A   1      -7.755  -2.479 123.840  0.00  0.00    +0.174 C 
ATOM     45  C   LIG A   1      -6.790  -1.532 124.572  0.00  0.00    +0.149 C 
ATOM     46  O   LIG A   1      -7.024  -1.518 125.995  0.00  0.00    -0.343 OA
ATOM     47  C   LIG A   1      -5.343  -1.971 124.353  0.00  0.00    +0.040 C 
BRANCH  44  48
ATOM     48  O   LIG A   1      -7.653  -2.321 122.421  0.00  0.00    -0.387 OA
ATOM     49  H   LIG A   1      -8.426  -2.790 122.048  0.00  0.00    +0.210 HD
ENDBRANCH  44  48
BRANCH  43  50
ATOM     50  O   LIG A   1     -10.029  -3.276 123.731  0.00  0.00    -0.386 OA
ATOM     51  H   LIG A   1     -10.214  -3.878 124.481  0.00  0.00    +0.210 HD
ENDBRANCH  43  50
BRANCH  42  52
ATOM     52  O   LIG A   1      -8.993  -3.501 126.310  0.00  0.00    -0.384 OA
ATOM     53  H   LIG A   1      -9.460  -3.592 127.166  0.00  0.00    +0.210 HD
ENDBRANCH  42  52
ENDBRANCH  40  41
ENDBRANCH  39  40
ENDBRANCH   3  39
TORSDOF 16
ENDMDL
MODEL 3
REMARK VINA RESULT:      -8.7      2.732      7.839
REMARK  Name = NuBBE_282
REMARK  17 active torsions:
REMARK  status: ('A' for Active; 'I' for Inactive)
REMARK    1  A    between atoms: O_1  and  C_2
REMARK    2  A    between atoms: C_5  and  O_6
REMARK    3  A    between atoms: O_6  and  C_7
REMARK    4  A    between atoms: C_10  and  C_18
REMARK    5  A    between atoms: C_12  and  O_17
REMARK    6  A    between atoms: C_14  and  O_16
REMARK    7  A    between atoms: C_18  and  O_19
REMARK    8  A    between atoms: O_19  and  C_20
REMARK    9  A    between atoms: C_22  and  O_34
REMARK   10  A    between atoms: C_24  and  O_33
REMARK   11  A    between atoms: C_26  and  O_32
REMARK   12  A    between atoms: C_28  and  C_31
REMARK   13  A    between atoms: C_35  and  O_37
REMARK   14  A    between atoms: C_38  and  C_46
REMARK   15  A    between atoms: C_42  and  O_43
REMARK   16  A    between atoms: C_49  and  O_53
REMARK   17  A    between atoms: C_50  and  O_51
REMARK                            x       y       z     vdW  Elec       q    Type
REMARK                         _______ _______ _______ _____ _____    ______ ____
ROOT
ATOM      1  C   LIG A   1      -8.960   4.415 129.589  0.00  0.00    +0.340 C 
ATOM      2  O   LIG A   1      -8.859   5.857 129.615  0.00  0.00    -0.331 OA
ATOM      3  C   LIG A   1      -8.771   6.471 130.907  0.00  0.00    +0.179 C 
ATOM      4  C   LIG A   1      -9.897   6.008 131.859  0.00  0.00    +0.177 C 
ATOM      5  C   LIG A   1     -10.033   4.485 131.883  0.00  0.00    +0.180 C 
ATOM      6  C   LIG A   1     -10.155   3.957 130.454  0.00  0.00    +0.214 C 
ENDROOT
BRANCH   5   7
ATOM      7  O   LIG A   1      -8.910   3.893 132.538  0.00  0.00    -0.386 OA
ATOM      8  H   LIG A   1      -9.143   2.968 132.735  0.00  0.00    +0.210 HD
ENDBRANCH   5   7
BRANCH   4   9
ATOM      9  O   LIG A   1      -9.798   6.512 133.190  0.00  0.00    -0.387 OA
ATOM     10  H   LIG A   1      -9.333   5.834 133.720  0.00  0.00    +0.210 HD
ENDBRANCH   4   9
BRANCH   6  11
ATOM     11  O   LIG A   1     -11.387   4.430 129.873  0.00  0.00    -0.383 OA
ATOM     12  H   LIG A   1     -11.910   3.647 129.608  0.00  0.00    +0.210 HD
ENDBRANCH   6  11
BRANCH   1  13
ATOM     13  O   LIG A   1      -7.695   3.786 129.835  0.00  0.00    -0.453 OA
BRANCH  13  17
ATOM     14  C   LIG A   1      -7.655  -0.972 131.076  0.00  0.00    +0.135 A 
ATOM     15  C   LIG A   1      -7.500   0.045 130.129  0.00  0.00    +0.109 A 
ATOM     16  C   LIG A   1      -7.430   1.464 130.512  0.00  0.00    +0.238 A 
ATOM     17  C   LIG A   1      -7.469   2.485 129.412  0.00  0.00    +0.214 A 
ATOM     18  C   LIG A   1      -7.189   2.024 128.165  0.00  0.00    +0.181 A 
ATOM     19  O   LIG A   1      -7.167   0.670 127.825  0.00  0.00    -0.451 OA
ATOM     20  C   LIG A   1      -7.435  -0.271 128.781  0.00  0.00    +0.146 A 
ATOM     21  C   LIG A   1      -7.599  -1.595 128.357  0.00  0.00    +0.092 A 
ATOM     22  C   LIG A   1      -7.802  -2.594 129.307  0.00  0.00    +0.124 A 
ATOM     23  C   LIG A   1      -7.809  -2.295 130.665  0.00  0.00    +0.091 A 
ATOM     24  O   LIG A   1      -7.344   1.766 131.692  0.00  0.00    -0.283 OA
BRANCH  18  25
ATOM     25  C   LIG A   1      -6.823   2.873 127.001  0.00  0.00    +0.025 A 
ATOM     26  C   LIG A   1      -5.564   3.499 126.924  0.00  0.00    +0.015 A 
ATOM     27  C   LIG A   1      -5.213   4.291 125.822  0.00  0.00    +0.050 A 
ATOM     28  C   LIG A   1      -6.111   4.429 124.775  0.00  0.00    +0.158 A 
ATOM     29  C   LIG A   1      -7.364   3.838 124.851  0.00  0.00    +0.159 A 
ATOM     30  C   LIG A   1      -7.749   3.127 125.977  0.00  0.00    +0.060 A 
BRANCH  29  31
ATOM     31  O   LIG A   1      -8.227   3.914 123.796  0.00  0.00    -0.503 OA
ATOM     32  H   LIG A   1      -7.657   3.876 123.003  0.00  0.00    +0.292 HD
ENDBRANCH  29  31
BRANCH  28  33
ATOM     33  O   LIG A   1      -5.812   5.137 123.646  0.00  0.00    -0.503 OA
ATOM     34  H   LIG A   1      -6.392   4.830 122.929  0.00  0.00    +0.292 HD
ENDBRANCH  28  33
ENDBRANCH  18  25
BRANCH  14  35
ATOM     35  O   LIG A   1      -7.663  -0.740 132.424  0.00  0.00    -0.506 OA
ATOM     36  H   LIG A   1      -7.493  -1.595 132.882  0.00  0.00    +0.292 HD
ENDBRANCH  14  35
BRANCH  22  37
ATOM     37  O   LIG A   1      -7.994  -3.895 128.945  0.00  0.00    -0.506 OA
ATOM     38  H   LIG A   1      -8.874  -4.188 129.228  0.00  0.00    +0.292 HD
ENDBRANCH  22  37
ENDBRANCH  13  17
ENDBRANCH   1  13
BRANCH   3  39
ATOM     39  C   LIG A   1      -7.339   6.431 131.465  0.00  0.00    +0.197 C 
BRANCH  39  40
ATOM     40  O   LIG A   1      -6.424   6.714 130.406  0.00  0.00    -0.346 OA
BRANCH  40  41
ATOM     41  C   LIG A   1      -5.242   7.401 130.794  0.00  0.00    +0.282 C 
ATOM     42  C   LIG A   1      -4.430   6.702 131.899  0.00  0.00    +0.201 C 
ATOM     43  C   LIG A   1      -4.023   5.312 131.411  0.00  0.00    +0.179 C 
ATOM     44  C   LIG A   1      -3.242   5.402 130.095  0.00  0.00    +0.174 C 
ATOM     45  C   LIG A   1      -3.976   6.290 129.076  0.00  0.00    +0.149 C 
ATOM     46  O   LIG A   1      -4.377   7.551 129.650  0.00  0.00    -0.343 OA
ATOM     47  C   LIG A   1      -3.069   6.600 127.887  0.00  0.00    +0.040 C 
BRANCH  44  48
ATOM     48  O   LIG A   1      -3.041   4.083 129.577  0.00  0.00    -0.387 OA
ATOM     49  H   LIG A   1      -3.836   3.575 129.834  0.00  0.00    +0.210 HD
ENDBRANCH  44  48
BRANCH  43  50
ATOM     50  O   LIG A   1      -3.194   4.662 132.390  0.00  0.00    -0.386 OA
ATOM     51  H   LIG A   1      -2.618   5.364 132.754  0.00  0.00    +0.210 HD
ENDBRANCH  43  50
BRANCH  42  52
ATOM     52  O   LIG A   1      -3.233   7.445 132.217  0.00  0.00    -0.384 OA
ATOM     53  H   LIG A   1      -2.963   7.908 131.398  0.00  0.00    +0.210 HD
ENDBRANCH  42  52
ENDBRANCH  40  41
ENDBRANCH  39  40
ENDBRANCH   3  39
TORSDOF 16
ENDMDL
MODEL 4
REMARK VINA RESULT:      -8.7      2.610      4.948
REMARK  Name = NuBBE_282
REMARK  17 active torsions:
REMARK  status: ('A' for Active; 'I' for Inactive)
REMARK    1  A    between atoms: O_1  and  C_2
REMARK    2  A    between atoms: C_5  and  O_6
REMARK    3  A    between atoms: O_6  and  C_7
REMARK    4  A    between atoms: C_10  and  C_18
REMARK    5  A    between atoms: C_12  and  O_17
REMARK    6  A    between atoms: C_14  and  O_16
REMARK    7  A    between atoms: C_18  and  O_19
REMARK    8  A    between atoms: O_19  and  C_20
REMARK    9  A    between atoms: C_22  and  O_34
REMARK   10  A    between atoms: C_24  and  O_33
REMARK   11  A    between atoms: C_26  and  O_32
REMARK   12  A    between atoms: C_28  and  C_31
REMARK   13  A    between atoms: C_35  and  O_37
REMARK   14  A    between atoms: C_38  and  C_46
REMARK   15  A    between atoms: C_42  and  O_43
REMARK   16  A    between atoms: C_49  and  O_53
REMARK   17  A    between atoms: C_50  and  O_51
REMARK                            x       y       z     vdW  Elec       q    Type
REMARK                         _______ _______ _______ _____ _____    ______ ____
ROOT
ATOM      1  C   LIG A   1      -6.103  -0.003 128.501  0.00  0.00    +0.340 C 
ATOM      2  O   LIG A   1      -5.748  -1.089 127.613  0.00  0.00    -0.331 OA
ATOM      3  C   LIG A   1      -6.023  -2.416 128.082  0.00  0.00    +0.179 C 
ATOM      4  C   LIG A   1      -5.439  -2.678 129.488  0.00  0.00    +0.177 C 
ATOM      5  C   LIG A   1      -5.802  -1.566 130.473  0.00  0.00    +0.180 C 
ATOM      6  C   LIG A   1      -5.430  -0.209 129.876  0.00  0.00    +0.214 C 
ENDROOT
BRANCH   5   7
ATOM      7  O   LIG A   1      -7.197  -1.608 130.782  0.00  0.00    -0.386 OA
ATOM      8  H   LIG A   1      -7.464  -2.544 130.790  0.00  0.00    +0.210 HD
ENDBRANCH   5   7
BRANCH   4   9
ATOM      9  O   LIG A   1      -5.770  -3.950 130.044  0.00  0.00    -0.387 OA
ATOM     10  H   LIG A   1      -6.746  -4.014 130.057  0.00  0.00    +0.210 HD
ENDBRANCH   4   9
BRANCH   6  11
ATOM     11  O   LIG A   1      -3.998  -0.126 129.735  0.00  0.00    -0.383 OA
ATOM     12  H   LIG A   1      -3.625  -1.002 129.957  0.00  0.00    +0.210 HD
ENDBRANCH   6  11
BRANCH   1  13
ATOM     13  O   LIG A   1      -7.513   0.253 128.494  0.00  0.00    -0.453 OA
BRANCH  13  17
ATOM     14  C   LIG A   1      -9.437   3.315 131.827  0.00  0.00    +0.135 A 
ATOM     15  C   LIG A   1      -8.957   3.055 130.540  0.00  0.00    +0.109 A 
ATOM     16  C   LIG A   1      -8.695   1.688 130.065  0.00  0.00    +0.238 A 
ATOM     17  C   LIG A   1      -7.992   1.530 128.748  0.00  0.00    +0.214 A 
ATOM     18  C   LIG A   1      -7.994   2.623 127.941  0.00  0.00    +0.181 A 
ATOM     19  O   LIG A   1      -8.332   3.906 128.373  0.00  0.00    -0.451 OA
ATOM     20  C   LIG A   1      -8.690   4.108 129.678  0.00  0.00    +0.146 A 
ATOM     21  C   LIG A   1      -8.825   5.430 130.115  0.00  0.00    +0.092 A 
ATOM     22  C   LIG A   1      -9.257   5.677 131.417  0.00  0.00    +0.124 A 
ATOM     23  C   LIG A   1      -9.586   4.628 132.269  0.00  0.00    +0.091 A 
ATOM     24  O   LIG A   1      -9.049   0.736 130.744  0.00  0.00    -0.283 OA
BRANCH  18  25
ATOM     25  C   LIG A   1      -7.687   2.612 126.487  0.00  0.00    +0.025 A 
ATOM     26  C   LIG A   1      -6.374   2.802 126.018  0.00  0.00    +0.015 A 
ATOM     27  C   LIG A   1      -6.081   2.782 124.647  0.00  0.00    +0.050 A 
ATOM     28  C   LIG A   1      -7.102   2.533 123.741  0.00  0.00    +0.158 A 
ATOM     29  C   LIG A   1      -8.405   2.369 124.190  0.00  0.00    +0.159 A 
ATOM     30  C   LIG A   1      -8.713   2.477 125.538  0.00  0.00    +0.060 A 
BRANCH  29  31
ATOM     31  O   LIG A   1      -9.402   2.059 123.312  0.00  0.00    -0.503 OA
ATOM     32  H   LIG A   1      -8.989   1.451 122.668  0.00  0.00    +0.292 HD
ENDBRANCH  29  31
BRANCH  28  33
ATOM     33  O   LIG A   1      -6.878   2.441 122.397  0.00  0.00    -0.503 OA
ATOM     34  H   LIG A   1      -6.020   2.006 122.259  0.00  0.00    +0.292 HD
ENDBRANCH  28  33
ENDBRANCH  18  25
BRANCH  14  35
ATOM     35  O   LIG A   1      -9.782   2.325 132.707  0.00  0.00    -0.506 OA
ATOM     36  H   LIG A   1      -9.953   1.504 132.192  0.00  0.00    +0.292 HD
ENDBRANCH  14  35
BRANCH  22  37
ATOM     37  O   LIG A   1      -9.380   6.947 131.900  0.00  0.00    -0.506 OA
ATOM     38  H   LIG A   1      -8.624   7.155 132.470  0.00  0.00    +0.292 HD
ENDBRANCH  22  37
ENDBRANCH  13  17
ENDBRANCH   1  13
BRANCH   3  39
ATOM     39  C   LIG A   1      -7.492  -2.810 127.862  0.00  0.00    +0.197 C 
BRANCH  39  40
ATOM     40  O   LIG A   1      -7.947  -2.227 126.640  0.00  0.00    -0.346 OA
BRANCH  40  41
ATOM     41  C   LIG A   1      -8.358  -3.154 125.644  0.00  0.00    +0.282 C 
ATOM     42  C   LIG A   1      -9.377  -2.599 124.633  0.00  0.00    +0.201 C 
ATOM     43  C   LIG A   1      -8.763  -1.393 123.923  0.00  0.00    +0.179 C 
ATOM     44  C   LIG A   1      -7.437  -1.770 123.252  0.00  0.00    +0.174 C 
ATOM     45  C   LIG A   1      -6.517  -2.521 124.230  0.00  0.00    +0.149 C 
ATOM     46  O   LIG A   1      -7.206  -3.597 124.898  0.00  0.00    -0.343 OA
ATOM     47  C   LIG A   1      -5.333  -3.133 123.484  0.00  0.00    +0.040 C 
BRANCH  44  48
ATOM     48  O   LIG A   1      -6.806  -0.583 122.760  0.00  0.00    -0.387 OA
ATOM     49  H   LIG A   1      -5.977  -0.883 122.336  0.00  0.00    +0.210 HD
ENDBRANCH  44  48
BRANCH  43  50
ATOM     50  O   LIG A   1      -9.660  -0.897 122.914  0.00  0.00    -0.386 OA
ATOM     51  H   LIG A   1     -10.554  -0.949 123.309  0.00  0.00    +0.210 HD
ENDBRANCH  43  50
BRANCH  42  52
ATOM     52  O   LIG A   1      -9.722  -3.589 123.640  0.00  0.00    -0.384 OA
ATOM     53  H   LIG A   1      -9.362  -3.270 122.788  0.00  0.00    +0.210 HD
ENDBRANCH  42  52
ENDBRANCH  40  41
ENDBRANCH  39  40
ENDBRANCH   3  39
TORSDOF 16
ENDMDL
MODEL 5
REMARK VINA RESULT:      -8.7      2.582      8.057
REMARK  Name = NuBBE_282
REMARK  17 active torsions:
REMARK  status: ('A' for Active; 'I' for Inactive)
REMARK    1  A    between atoms: O_1  and  C_2
REMARK    2  A    between atoms: C_5  and  O_6
REMARK    3  A    between atoms: O_6  and  C_7
REMARK    4  A    between atoms: C_10  and  C_18
REMARK    5  A    between atoms: C_12  and  O_17
REMARK    6  A    between atoms: C_14  and  O_16
REMARK    7  A    between atoms: C_18  and  O_19
REMARK    8  A    between atoms: O_19  and  C_20
REMARK    9  A    between atoms: C_22  and  O_34
REMARK   10  A    between atoms: C_24  and  O_33
REMARK   11  A    between atoms: C_26  and  O_32
REMARK   12  A    between atoms: C_28  and  C_31
REMARK   13  A    between atoms: C_35  and  O_37
REMARK   14  A    between atoms: C_38  and  C_46
REMARK   15  A    between atoms: C_42  and  O_43
REMARK   16  A    between atoms: C_49  and  O_53
REMARK   17  A    between atoms: C_50  and  O_51
REMARK                            x       y       z     vdW  Elec       q    Type
REMARK                         _______ _______ _______ _____ _____    ______ ____
ROOT
ATOM      1  C   LIG A   1      -4.910   1.524 128.498  0.00  0.00    +0.340 C 
ATOM      2  O   LIG A   1      -4.181   1.536 129.747  0.00  0.00    -0.331 OA
ATOM      3  C   LIG A   1      -4.201   2.762 130.490  0.00  0.00    +0.179 C 
ATOM      4  C   LIG A   1      -3.789   3.979 129.633  0.00  0.00    +0.177 C 
ATOM      5  C   LIG A   1      -4.547   4.024 128.305  0.00  0.00    +0.180 C 
ATOM      6  C   LIG A   1      -4.420   2.677 127.595  0.00  0.00    +0.214 C 
ENDROOT
BRANCH   5   7
ATOM      7  O   LIG A   1      -5.922   4.343 128.525  0.00  0.00    -0.386 OA
ATOM      8  H   LIG A   1      -6.052   5.270 128.253  0.00  0.00    +0.210 HD
ENDBRANCH   5   7
BRANCH   4   9
ATOM      9  O   LIG A   1      -3.889   5.238 130.296  0.00  0.00    -0.387 OA
ATOM     10  H   LIG A   1      -3.251   5.842 129.866  0.00  0.00    +0.210 HD
ENDBRANCH   4   9
BRANCH   6  11
ATOM     11  O   LIG A   1      -3.043   2.458 127.228  0.00  0.00    -0.383 OA
ATOM     12  H   LIG A   1      -2.849   3.022 126.452  0.00  0.00    +0.210 HD
ENDBRANCH   6  11
BRANCH   1  13
ATOM     13  O   LIG A   1      -6.324   1.411 128.706  0.00  0.00    -0.453 OA
BRANCH  13  17
ATOM     14  C   LIG A   1      -9.186   2.137 124.773  0.00  0.00    +0.135 A 
ATOM     15  C   LIG A   1      -8.568   1.285 125.694  0.00  0.00    +0.109 A 
ATOM     16  C   LIG A   1      -7.935   1.791 126.922  0.00  0.00    +0.238 A 
ATOM     17  C   LIG A   1      -7.126   0.824 127.738  0.00  0.00    +0.214 A 
ATOM     18  C   LIG A   1      -7.348  -0.493 127.489  0.00  0.00    +0.181 A 
ATOM     19  O   LIG A   1      -8.030  -0.966 126.367  0.00  0.00    -0.451 OA
ATOM     20  C   LIG A   1      -8.516  -0.078 125.447  0.00  0.00    +0.146 A 
ATOM     21  C   LIG A   1      -9.012  -0.597 124.245  0.00  0.00    +0.092 A 
ATOM     22  C   LIG A   1      -9.581   0.268 123.313  0.00  0.00    +0.124 A 
ATOM     23  C   LIG A   1      -9.692   1.629 123.578  0.00  0.00    +0.091 A 
ATOM     24  O   LIG A   1      -8.083   2.961 127.238  0.00  0.00    -0.283 OA
BRANCH  18  25
ATOM     25  C   LIG A   1      -6.950  -1.611 128.383  0.00  0.00    +0.025 A 
ATOM     26  C   LIG A   1      -7.883  -2.229 129.237  0.00  0.00    +0.015 A 
ATOM     27  C   LIG A   1      -7.511  -3.291 130.073  0.00  0.00    +0.050 A 
ATOM     28  C   LIG A   1      -6.207  -3.763 130.028  0.00  0.00    +0.158 A 
ATOM     29  C   LIG A   1      -5.272  -3.146 129.209  0.00  0.00    +0.159 A 
ATOM     30  C   LIG A   1      -5.614  -2.039 128.446  0.00  0.00    +0.060 A 
BRANCH  29  31
ATOM     31  O   LIG A   1      -4.006  -3.645 129.110  0.00  0.00    -0.503 OA
ATOM     32  H   LIG A   1      -4.126  -4.606 128.977  0.00  0.00    +0.292 HD
ENDBRANCH  29  31
BRANCH  28  33
ATOM     33  O   LIG A   1      -5.792  -4.831 130.771  0.00  0.00    -0.503 OA
ATOM     34  H   LIG A   1      -5.632  -5.578 130.170  0.00  0.00    +0.292 HD
ENDBRANCH  28  33
ENDBRANCH  18  25
BRANCH  14  35
ATOM     35  O   LIG A   1      -9.329   3.481 124.981  0.00  0.00    -0.506 OA
ATOM     36  H   LIG A   1     -10.145   3.623 125.514  0.00  0.00    +0.292 HD
ENDBRANCH  14  35
BRANCH  22  37
ATOM     37  O   LIG A   1     -10.055  -0.183 122.116  0.00  0.00    -0.506 OA
ATOM     38  H   LIG A   1     -10.006   0.526 121.455  0.00  0.00    +0.292 HD
ENDBRANCH  22  37
ENDBRANCH  13  17
ENDBRANCH   1  13
BRANCH   3  39
ATOM     39  C   LIG A   1      -5.487   2.908 131.320  0.00  0.00    +0.197 C 
BRANCH  39  40
ATOM     40  O   LIG A   1      -5.948   4.257 131.222  0.00  0.00    -0.346 OA
BRANCH  40  41
ATOM     41  C   LIG A   1      -7.011   4.598 132.100  0.00  0.00    +0.282 C 
ATOM     42  C   LIG A   1      -7.555   6.027 131.924  0.00  0.00    +0.201 C 
ATOM     43  C   LIG A   1      -8.061   6.190 130.490  0.00  0.00    +0.179 C 
ATOM     44  C   LIG A   1      -9.118   5.130 130.160  0.00  0.00    +0.174 C 
ATOM     45  C   LIG A   1      -8.632   3.724 130.551  0.00  0.00    +0.149 C 
ATOM     46  O   LIG A   1      -8.111   3.688 131.895  0.00  0.00    -0.343 OA
ATOM     47  C   LIG A   1      -9.783   2.723 130.481  0.00  0.00    +0.040 C 
BRANCH  44  48
ATOM     48  O   LIG A   1      -9.431   5.197 128.765  0.00  0.00    -0.387 OA
ATOM     49  H   LIG A   1     -10.407   5.171 128.712  0.00  0.00    +0.210 HD
ENDBRANCH  44  48
BRANCH  43  50
ATOM     50  O   LIG A   1      -8.649   7.491 130.314  0.00  0.00    -0.386 OA
ATOM     51  H   LIG A   1      -7.909   8.126 130.391  0.00  0.00    +0.210 HD
ENDBRANCH  43  50
BRANCH  42  52
ATOM     52  O   LIG A   1      -8.649   6.286 132.829  0.00  0.00    -0.384 OA
ATOM     53  H   LIG A   1      -8.766   7.257 132.859  0.00  0.00    +0.210 HD
ENDBRANCH  42  52
ENDBRANCH  40  41
ENDBRANCH  39  40
ENDBRANCH   3  39
TORSDOF 16
ENDMDL
MODEL 6
REMARK VINA RESULT:      -8.6      2.833      8.586
REMARK  Name = NuBBE_282
REMARK  17 active torsions:
REMARK  status: ('A' for Active; 'I' for Inactive)
REMARK    1  A    between atoms: O_1  and  C_2
REMARK    2  A    between atoms: C_5  and  O_6
REMARK    3  A    between atoms: O_6  and  C_7
REMARK    4  A    between atoms: C_10  and  C_18
REMARK    5  A    between atoms: C_12  and  O_17
REMARK    6  A    between atoms: C_14  and  O_16
REMARK    7  A    between atoms: C_18  and  O_19
REMARK    8  A    between atoms: O_19  and  C_20
REMARK    9  A    between atoms: C_22  and  O_34
REMARK   10  A    between atoms: C_24  and  O_33
REMARK   11  A    between atoms: C_26  and  O_32
REMARK   12  A    between atoms: C_28  and  C_31
REMARK   13  A    between atoms: C_35  and  O_37
REMARK   14  A    between atoms: C_38  and  C_46
REMARK   15  A    between atoms: C_42  and  O_43
REMARK   16  A    between atoms: C_49  and  O_53
REMARK   17  A    between atoms: C_50  and  O_51
REMARK                            x       y       z     vdW  Elec       q    Type
REMARK                         _______ _______ _______ _____ _____    ______ ____
ROOT
ATOM      1  C   LIG A   1      -8.579   3.386 130.495  0.00  0.00    +0.340 C 
ATOM      2  O   LIG A   1      -8.275   4.698 131.022  0.00  0.00    -0.331 OA
ATOM      3  C   LIG A   1      -8.026   4.781 132.432  0.00  0.00    +0.179 C 
ATOM      4  C   LIG A   1      -9.150   4.130 133.269  0.00  0.00    +0.177 C 
ATOM      5  C   LIG A   1      -9.498   2.729 132.763  0.00  0.00    +0.180 C 
ATOM      6  C   LIG A   1      -9.775   2.778 131.261  0.00  0.00    +0.214 C 
ENDROOT
BRANCH   5   7
ATOM      7  O   LIG A   1      -8.434   1.818 133.044  0.00  0.00    -0.386 OA
ATOM      8  H   LIG A   1      -8.808   1.086 133.567  0.00  0.00    +0.210 HD
ENDBRANCH   5   7
BRANCH   4   9
ATOM      9  O   LIG A   1      -8.905   4.096 134.674  0.00  0.00    -0.387 OA
ATOM     10  H   LIG A   1      -8.564   4.977 134.928  0.00  0.00    +0.210 HD
ENDBRANCH   4   9
BRANCH   6  11
ATOM     11  O   LIG A   1     -10.959   3.564 131.019  0.00  0.00    -0.383 OA
ATOM     12  H   LIG A   1     -10.731   4.502 131.177  0.00  0.00    +0.210 HD
ENDBRANCH   6  11
BRANCH   1  13
ATOM     13  O   LIG A   1      -7.404   2.575 130.368  0.00  0.00    -0.453 OA
BRANCH  13  17
ATOM     14  C   LIG A   1      -7.770  -2.299 129.829  0.00  0.00    +0.135 A 
ATOM     15  C   LIG A   1      -7.615  -1.018 129.290  0.00  0.00    +0.109 A 
ATOM     16  C   LIG A   1      -7.332   0.154 130.132  0.00  0.00    +0.238 A 
ATOM     17  C   LIG A   1      -7.386   1.507 129.483  0.00  0.00    +0.214 A 
ATOM     18  C   LIG A   1      -7.318   1.516 128.126  0.00  0.00    +0.181 A 
ATOM     19  O   LIG A   1      -7.497   0.383 127.332  0.00  0.00    -0.451 OA
ATOM     20  C   LIG A   1      -7.754  -0.824 127.924  0.00  0.00    +0.146 A 
ATOM     21  C   LIG A   1      -8.123  -1.887 127.093  0.00  0.00    +0.092 A 
ATOM     22  C   LIG A   1      -8.324  -3.149 127.649  0.00  0.00    +0.124 A 
ATOM     23  C   LIG A   1      -8.128  -3.367 129.009  0.00  0.00    +0.091 A 
ATOM     24  O   LIG A   1      -7.067  -0.003 131.314  0.00  0.00    -0.283 OA
BRANCH  18  25
ATOM     25  C   LIG A   1      -7.001   2.706 127.294  0.00  0.00    +0.025 A 
ATOM     26  C   LIG A   1      -5.688   2.957 126.852  0.00  0.00    +0.015 A 
ATOM     27  C   LIG A   1      -5.389   4.073 126.058  0.00  0.00    +0.050 A 
ATOM     28  C   LIG A   1      -6.414   4.924 125.673  0.00  0.00    +0.158 A 
ATOM     29  C   LIG A   1      -7.708   4.702 126.124  0.00  0.00    +0.159 A 
ATOM     30  C   LIG A   1      -7.992   3.650 126.982  0.00  0.00    +0.060 A 
BRANCH  29  31
ATOM     31  O   LIG A   1      -8.732   5.496 125.697  0.00  0.00    -0.503 OA
ATOM     32  H   LIG A   1      -8.619   5.551 124.728  0.00  0.00    +0.292 HD
ENDBRANCH  29  31
BRANCH  28  33
ATOM     33  O   LIG A   1      -6.204   5.995 124.854  0.00  0.00    -0.503 OA
ATOM     34  H   LIG A   1      -7.029   6.180 124.374  0.00  0.00    +0.292 HD
ENDBRANCH  28  33
ENDBRANCH  18  25
BRANCH  14  35
ATOM     35  O   LIG A   1      -7.585  -2.576 131.156  0.00  0.00    -0.506 OA
ATOM     36  H   LIG A   1      -8.354  -2.215 131.654  0.00  0.00    +0.292 HD
ENDBRANCH  14  35
BRANCH  22  37
ATOM     37  O   LIG A   1      -8.710  -4.212 126.887  0.00  0.00    -0.506 OA
ATOM     38  H   LIG A   1      -9.040  -3.899 126.030  0.00  0.00    +0.292 HD
ENDBRANCH  22  37
ENDBRANCH  13  17
ENDBRANCH   1  13
BRANCH   3  39
ATOM     39  C   LIG A   1      -6.585   4.382 132.785  0.00  0.00    +0.197 C 
BRANCH  39  40
ATOM     40  O   LIG A   1      -5.701   5.417 132.353  0.00  0.00    -0.346 OA
BRANCH  40  41
ATOM     41  C   LIG A   1      -5.026   5.164 131.129  0.00  0.00    +0.282 C 
ATOM     42  C   LIG A   1      -5.180   6.272 130.071  0.00  0.00    +0.201 C 
ATOM     43  C   LIG A   1      -4.635   7.581 130.643  0.00  0.00    +0.179 C 
ATOM     44  C   LIG A   1      -3.179   7.417 131.093  0.00  0.00    +0.174 C 
ATOM     45  C   LIG A   1      -3.012   6.170 131.978  0.00  0.00    +0.149 C 
ATOM     46  O   LIG A   1      -3.615   5.003 131.384  0.00  0.00    -0.343 OA
ATOM     47  C   LIG A   1      -1.530   5.860 132.187  0.00  0.00    +0.040 C 
BRANCH  44  48
ATOM     48  O   LIG A   1      -2.767   8.599 131.787  0.00  0.00    -0.387 OA
ATOM     49  H   LIG A   1      -1.914   8.857 131.384  0.00  0.00    +0.210 HD
ENDBRANCH  44  48
BRANCH  43  50
ATOM     50  O   LIG A   1      -4.692   8.621 129.651  0.00  0.00    -0.386 OA
ATOM     51  H   LIG A   1      -4.355   9.426 130.094  0.00  0.00    +0.210 HD
ENDBRANCH  43  50
BRANCH  42  52
ATOM     52  O   LIG A   1      -4.444   5.955 128.871  0.00  0.00    -0.384 OA
ATOM     53  H   LIG A   1      -3.551   5.670 129.154  0.00  0.00    +0.210 HD
ENDBRANCH  42  52
ENDBRANCH  40  41
ENDBRANCH  39  40
ENDBRANCH   3  39
TORSDOF 16
ENDMDL
MODEL 7
REMARK VINA RESULT:      -8.6      2.963      4.606
REMARK  Name = NuBBE_282
REMARK  17 active torsions:
REMARK  status: ('A' for Active; 'I' for Inactive)
REMARK    1  A    between atoms: O_1  and  C_2
REMARK    2  A    between atoms: C_5  and  O_6
REMARK    3  A    between atoms: O_6  and  C_7
REMARK    4  A    between atoms: C_10  and  C_18
REMARK    5  A    between atoms: C_12  and  O_17
REMARK    6  A    between atoms: C_14  and  O_16
REMARK    7  A    between atoms: C_18  and  O_19
REMARK    8  A    between atoms: O_19  and  C_20
REMARK    9  A    between atoms: C_22  and  O_34
REMARK   10  A    between atoms: C_24  and  O_33
REMARK   11  A    between atoms: C_26  and  O_32
REMARK   12  A    between atoms: C_28  and  C_31
REMARK   13  A    between atoms: C_35  and  O_37
REMARK   14  A    between atoms: C_38  and  C_46
REMARK   15  A    between atoms: C_42  and  O_43
REMARK   16  A    between atoms: C_49  and  O_53
REMARK   17  A    between atoms: C_50  and  O_51
REMARK                            x       y       z     vdW  Elec       q    Type
REMARK                         _______ _______ _______ _____ _____    ______ ____
ROOT
ATOM      1  C   LIG A   1      -7.440   2.330 126.581  0.00  0.00    +0.340 C 
ATOM      2  O   LIG A   1      -8.391   2.080 125.521  0.00  0.00    -0.331 OA
ATOM      3  C   LIG A   1      -7.967   2.402 124.190  0.00  0.00    +0.179 C 
ATOM      4  C   LIG A   1      -7.423   3.844 124.075  0.00  0.00    +0.177 C 
ATOM      5  C   LIG A   1      -6.397   4.155 125.165  0.00  0.00    +0.180 C 
ATOM      6  C   LIG A   1      -6.977   3.803 126.534  0.00  0.00    +0.214 C 
ENDROOT
BRANCH   5   7
ATOM      7  O   LIG A   1      -5.189   3.426 124.936  0.00  0.00    -0.386 OA
ATOM      8  H   LIG A   1      -5.438   2.560 124.567  0.00  0.00    +0.210 HD
ENDBRANCH   5   7
BRANCH   4   9
ATOM      9  O   LIG A   1      -6.895   4.183 122.794  0.00  0.00    -0.387 OA
ATOM     10  H   LIG A   1      -7.324   3.595 122.141  0.00  0.00    +0.210 HD
ENDBRANCH   4   9
BRANCH   6  11
ATOM     11  O   LIG A   1      -8.092   4.673 126.818  0.00  0.00    -0.383 OA
ATOM     12  H   LIG A   1      -8.563   4.837 125.976  0.00  0.00    +0.210 HD
ENDBRANCH   6  11
BRANCH   1  13
ATOM     13  O   LIG A   1      -6.418   1.326 126.630  0.00  0.00    -0.453 OA
BRANCH  13  17
ATOM     14  C   LIG A   1      -7.069  -2.300 129.888  0.00  0.00    +0.135 A 
ATOM     15  C   LIG A   1      -6.410  -1.142 129.464  0.00  0.00    +0.109 A 
ATOM     16  C   LIG A   1      -6.914  -0.319 128.354  0.00  0.00    +0.238 A 
ATOM     17  C   LIG A   1      -6.030   0.783 127.847  0.00  0.00    +0.214 A 
ATOM     18  C   LIG A   1      -5.026   1.168 128.677  0.00  0.00    +0.181 A 
ATOM     19  O   LIG A   1      -4.610   0.428 129.785  0.00  0.00    -0.451 OA
ATOM     20  C   LIG A   1      -5.230  -0.755 130.080  0.00  0.00    +0.146 A 
ATOM     21  C   LIG A   1      -4.655  -1.557 131.072  0.00  0.00    +0.092 A 
ATOM     22  C   LIG A   1      -5.295  -2.736 131.451  0.00  0.00    +0.124 A 
ATOM     23  C   LIG A   1      -6.510  -3.101 130.882  0.00  0.00    +0.091 A 
ATOM     24  O   LIG A   1      -8.017  -0.552 127.884  0.00  0.00    -0.283 OA
BRANCH  18  25
ATOM     25  C   LIG A   1      -4.262   2.437 128.565  0.00  0.00    +0.025 A 
ATOM     26  C   LIG A   1      -4.513   3.518 129.432  0.00  0.00    +0.015 A 
ATOM     27  C   LIG A   1      -3.785   4.712 129.334  0.00  0.00    +0.050 A 
ATOM     28  C   LIG A   1      -2.776   4.814 128.388  0.00  0.00    +0.158 A 
ATOM     29  C   LIG A   1      -2.537   3.765 127.511  0.00  0.00    +0.159 A 
ATOM     30  C   LIG A   1      -3.313   2.616 127.546  0.00  0.00    +0.060 A 
BRANCH  29  31
ATOM     31  O   LIG A   1      -1.503   3.832 126.622  0.00  0.00    -0.503 OA
ATOM     32  H   LIG A   1      -1.531   4.745 126.273  0.00  0.00    +0.292 HD
ENDBRANCH  29  31
BRANCH  28  33
ATOM     33  O   LIG A   1      -1.990   5.925 128.276  0.00  0.00    -0.503 OA
ATOM     34  H   LIG A   1      -1.583   6.101 129.141  0.00  0.00    +0.292 HD
ENDBRANCH  28  33
ENDBRANCH  18  25
BRANCH  14  35
ATOM     35  O   LIG A   1      -8.268  -2.707 129.369  0.00  0.00    -0.506 OA
ATOM     36  H   LIG A   1      -8.155  -3.620 129.018  0.00  0.00    +0.292 HD
ENDBRANCH  14  35
BRANCH  22  37
ATOM     37  O   LIG A   1      -4.763  -3.566 132.394  0.00  0.00    -0.506 OA
ATOM     38  H   LIG A   1      -4.949  -3.218 133.280  0.00  0.00    +0.292 HD
ENDBRANCH  22  37
ENDBRANCH  13  17
ENDBRANCH   1  13
BRANCH   3  39
ATOM     39  C   LIG A   1      -7.100   1.290 123.578  0.00  0.00    +0.197 C 
BRANCH  39  40
ATOM     40  O   LIG A   1      -7.872   0.090 123.510  0.00  0.00    -0.346 OA
BRANCH  40  41
ATOM     41  C   LIG A   1      -7.197  -1.033 122.961  0.00  0.00    +0.282 C 
ATOM     42  C   LIG A   1      -6.038  -1.568 123.821  0.00  0.00    +0.201 C 
ATOM     43  C   LIG A   1      -6.586  -1.976 125.190  0.00  0.00    +0.179 C 
ATOM     44  C   LIG A   1      -7.714  -3.003 125.043  0.00  0.00    +0.174 C 
ATOM     45  C   LIG A   1      -8.753  -2.540 124.008  0.00  0.00    +0.149 C 
ATOM     46  O   LIG A   1      -8.135  -2.113 122.777  0.00  0.00    -0.343 OA
ATOM     47  C   LIG A   1      -9.710  -3.680 123.666  0.00  0.00    +0.040 C 
BRANCH  44  48
ATOM     48  O   LIG A   1      -8.321  -3.219 126.321  0.00  0.00    -0.387 OA
ATOM     49  H   LIG A   1      -9.267  -3.383 126.139  0.00  0.00    +0.210 HD
ENDBRANCH  44  48
BRANCH  43  50
ATOM     50  O   LIG A   1      -5.542  -2.554 125.992  0.00  0.00    -0.386 OA
ATOM     51  H   LIG A   1      -5.463  -3.482 125.691  0.00  0.00    +0.210 HD
ENDBRANCH  43  50
BRANCH  42  52
ATOM     52  O   LIG A   1      -5.424  -2.723 123.211  0.00  0.00    -0.384 OA
ATOM     53  H   LIG A   1      -4.499  -2.752 123.531  0.00  0.00    +0.210 HD
ENDBRANCH  42  52
ENDBRANCH  40  41
ENDBRANCH  39  40
ENDBRANCH   3  39
TORSDOF 16
ENDMDL
MODEL 8
REMARK VINA RESULT:      -8.6      2.705      4.422
REMARK  Name = NuBBE_282
REMARK  17 active torsions:
REMARK  status: ('A' for Active; 'I' for Inactive)
REMARK    1  A    between atoms: O_1  and  C_2
REMARK    2  A    between atoms: C_5  and  O_6
REMARK    3  A    between atoms: O_6  and  C_7
REMARK    4  A    between atoms: C_10  and  C_18
REMARK    5  A    between atoms: C_12  and  O_17
REMARK    6  A    between atoms: C_14  and  O_16
REMARK    7  A    between atoms: C_18  and  O_19
REMARK    8  A    between atoms: O_19  and  C_20
REMARK    9  A    between atoms: C_22  and  O_34
REMARK   10  A    between atoms: C_24  and  O_33
REMARK   11  A    between atoms: C_26  and  O_32
REMARK   12  A    between atoms: C_28  and  C_31
REMARK   13  A    between atoms: C_35  and  O_37
REMARK   14  A    between atoms: C_38  and  C_46
REMARK   15  A    between atoms: C_42  and  O_43
REMARK   16  A    between atoms: C_49  and  O_53
REMARK   17  A    between atoms: C_50  and  O_51
REMARK                            x       y       z     vdW  Elec       q    Type
REMARK                         _______ _______ _______ _____ _____    ______ ____
ROOT
ATOM      1  C   LIG A   1      -6.898   4.047 126.768  0.00  0.00    +0.340 C 
ATOM      2  O   LIG A   1      -8.071   3.303 127.169  0.00  0.00    -0.331 OA
ATOM      3  C   LIG A   1      -8.539   2.302 126.256  0.00  0.00    +0.179 C 
ATOM      4  C   LIG A   1      -8.732   2.852 124.825  0.00  0.00    +0.177 C 
ATOM      5  C   LIG A   1      -7.508   3.633 124.344  0.00  0.00    +0.180 C 
ATOM      6  C   LIG A   1      -7.131   4.689 125.383  0.00  0.00    +0.214 C 
ENDROOT
BRANCH   5   7
ATOM      7  O   LIG A   1      -6.410   2.748 124.113  0.00  0.00    -0.386 OA
ATOM      8  H   LIG A   1      -5.595   3.231 124.342  0.00  0.00    +0.210 HD
ENDBRANCH   5   7
BRANCH   4   9
ATOM      9  O   LIG A   1      -9.100   1.873 123.854  0.00  0.00    -0.387 OA
ATOM     10  H   LIG A   1     -10.078   1.846 123.829  0.00  0.00    +0.210 HD
ENDBRANCH   4   9
BRANCH   6  11
ATOM     11  O   LIG A   1      -8.185   5.669 125.471  0.00  0.00    -0.383 OA
ATOM     12  H   LIG A   1      -7.771   6.532 125.675  0.00  0.00    +0.210 HD
ENDBRANCH   6  11
BRANCH   1  13
ATOM     13  O   LIG A   1      -5.697   3.284 126.941  0.00  0.00    -0.453 OA
BRANCH  13  17
ATOM     14  C   LIG A   1      -2.329   5.909 129.381  0.00  0.00    +0.135 A 
ATOM     15  C   LIG A   1      -3.226   4.839 129.308  0.00  0.00    +0.109 A 
ATOM     16  C   LIG A   1      -3.854   4.432 128.041  0.00  0.00    +0.238 A 
ATOM     17  C   LIG A   1      -4.951   3.409 128.104  0.00  0.00    +0.214 A 
ATOM     18  C   LIG A   1      -5.016   2.680 129.249  0.00  0.00    +0.181 A 
ATOM     19  O   LIG A   1      -4.345   3.019 130.424  0.00  0.00    -0.451 OA
ATOM     20  C   LIG A   1      -3.567   4.144 130.458  0.00  0.00    +0.146 A 
ATOM     21  C   LIG A   1      -3.077   4.555 131.703  0.00  0.00    +0.092 A 
ATOM     22  C   LIG A   1      -2.222   5.653 131.769  0.00  0.00    +0.124 A 
ATOM     23  C   LIG A   1      -1.827   6.320 130.614  0.00  0.00    +0.091 A 
ATOM     24  O   LIG A   1      -3.473   4.930 126.993  0.00  0.00    -0.283 OA
BRANCH  18  25
ATOM     25  C   LIG A   1      -5.761   1.404 129.408  0.00  0.00    +0.025 A 
ATOM     26  C   LIG A   1      -7.010   1.365 130.057  0.00  0.00    +0.015 A 
ATOM     27  C   LIG A   1      -7.718   0.164 130.199  0.00  0.00    +0.050 A 
ATOM     28  C   LIG A   1      -7.193  -1.000 129.656  0.00  0.00    +0.158 A 
ATOM     29  C   LIG A   1      -5.951  -0.979 129.037  0.00  0.00    +0.159 A 
ATOM     30  C   LIG A   1      -5.207   0.189 128.973  0.00  0.00    +0.060 A 
BRANCH  29  31
ATOM     31  O   LIG A   1      -5.458  -2.104 128.444  0.00  0.00    -0.503 OA
ATOM     32  H   LIG A   1      -6.240  -2.550 128.062  0.00  0.00    +0.292 HD
ENDBRANCH  29  31
BRANCH  28  33
ATOM     33  O   LIG A   1      -7.856  -2.192 129.706  0.00  0.00    -0.503 OA
ATOM     34  H   LIG A   1      -7.561  -2.738 128.958  0.00  0.00    +0.292 HD
ENDBRANCH  28  33
ENDBRANCH  18  25
BRANCH  14  35
ATOM     35  O   LIG A   1      -1.900   6.598 128.280  0.00  0.00    -0.506 OA
ATOM     36  H   LIG A   1      -1.605   7.491 128.574  0.00  0.00    +0.292 HD
ENDBRANCH  14  35
BRANCH  22  37
ATOM     37  O   LIG A   1      -1.738   6.111 132.960  0.00  0.00    -0.506 OA
ATOM     38  H   LIG A   1      -0.787   5.926 133.020  0.00  0.00    +0.292 HD
ENDBRANCH  22  37
ENDBRANCH  13  17
ENDBRANCH   1  13
BRANCH   3  39
ATOM     39  C   LIG A   1      -7.749   0.990 126.389  0.00  0.00    +0.197 C 
BRANCH  39  40
ATOM     40  O   LIG A   1      -8.430  -0.033 125.661  0.00  0.00    -0.346 OA
BRANCH  40  41
ATOM     41  C   LIG A   1      -8.192  -1.358 126.115  0.00  0.00    +0.282 C 
ATOM     42  C   LIG A   1      -9.210  -2.399 125.616  0.00  0.00    +0.201 C 
ATOM     43  C   LIG A   1      -9.190  -2.418 124.087  0.00  0.00    +0.179 C 
ATOM     44  C   LIG A   1      -7.777  -2.702 123.563  0.00  0.00    +0.174 C 
ATOM     45  C   LIG A   1      -6.742  -1.789 124.243  0.00  0.00    +0.149 C 
ATOM     46  O   LIG A   1      -6.886  -1.787 125.678  0.00  0.00    -0.343 OA
ATOM     47  C   LIG A   1      -5.325  -2.264 123.929  0.00  0.00    +0.040 C 
BRANCH  44  48
ATOM     48  O   LIG A   1      -7.760  -2.530 122.143  0.00  0.00    -0.387 OA
ATOM     49  H   LIG A   1      -6.827  -2.352 121.910  0.00  0.00    +0.210 HD
ENDBRANCH  44  48
BRANCH  43  50
ATOM     50  O   LIG A   1     -10.074  -3.437 123.589  0.00  0.00    -0.386 OA
ATOM     51  H   LIG A   1     -10.034  -4.163 124.245  0.00  0.00    +0.210 HD
ENDBRANCH  43  50
BRANCH  42  52
ATOM     52  O   LIG A   1      -8.885  -3.721 126.096  0.00  0.00    -0.384 OA
ATOM     53  H   LIG A   1      -9.235  -3.784 127.008  0.00  0.00    +0.210 HD
ENDBRANCH  42  52
ENDBRANCH  40  41
ENDBRANCH  39  40
ENDBRANCH   3  39
TORSDOF 16
ENDMDL
MODEL 9
REMARK VINA RESULT:      -8.5      2.584      8.675
REMARK  Name = NuBBE_282
REMARK  17 active torsions:
REMARK  status: ('A' for Active; 'I' for Inactive)
REMARK    1  A    between atoms: O_1  and  C_2
REMARK    2  A    between atoms: C_5  and  O_6
REMARK    3  A    between atoms: O_6  and  C_7
REMARK    4  A    between atoms: C_10  and  C_18
REMARK    5  A    between atoms: C_12  and  O_17
REMARK    6  A    between atoms: C_14  and  O_16
REMARK    7  A    between atoms: C_18  and  O_19
REMARK    8  A    between atoms: O_19  and  C_20
REMARK    9  A    between atoms: C_22  and  O_34
REMARK   10  A    between atoms: C_24  and  O_33
REMARK   11  A    between atoms: C_26  and  O_32
REMARK   12  A    between atoms: C_28  and  C_31
REMARK   13  A    between atoms: C_35  and  O_37
REMARK   14  A    between atoms: C_38  and  C_46
REMARK   15  A    between atoms: C_42  and  O_43
REMARK   16  A    between atoms: C_49  and  O_53
REMARK   17  A    between atoms: C_50  and  O_51
REMARK                            x       y       z     vdW  Elec       q    Type
REMARK                         _______ _______ _______ _____ _____    ______ ____
ROOT
ATOM      1  C   LIG A   1      -4.845   3.129 127.493  0.00  0.00    +0.340 C 
ATOM      2  O   LIG A   1      -4.686   2.744 128.878  0.00  0.00    -0.331 OA
ATOM      3  C   LIG A   1      -4.273   3.773 129.787  0.00  0.00    +0.179 C 
ATOM      4  C   LIG A   1      -3.008   4.515 129.303  0.00  0.00    +0.177 C 
ATOM      5  C   LIG A   1      -3.132   4.962 127.845  0.00  0.00    +0.180 C 
ATOM      6  C   LIG A   1      -3.540   3.774 126.976  0.00  0.00    +0.214 C 
ENDROOT
BRANCH   5   7
ATOM      7  O   LIG A   1      -4.087   6.018 127.726  0.00  0.00    -0.386 OA
ATOM      8  H   LIG A   1      -4.523   6.115 128.592  0.00  0.00    +0.210 HD
ENDBRANCH   5   7
BRANCH   4   9
ATOM      9  O   LIG A   1      -2.612   5.615 130.120  0.00  0.00    -0.387 OA
ATOM     10  H   LIG A   1      -2.022   6.178 129.579  0.00  0.00    +0.210 HD
ENDBRANCH   4   9
BRANCH   6  11
ATOM     11  O   LIG A   1      -2.481   2.796 126.974  0.00  0.00    -0.383 OA
ATOM     12  H   LIG A   1      -2.486   2.354 126.101  0.00  0.00    +0.210 HD
ENDBRANCH   6  11
BRANCH   1  13
ATOM     13  O   LIG A   1      -6.063   3.853 127.276  0.00  0.00    -0.453 OA
BRANCH  13  17
ATOM     14  C   LIG A   1      -8.597   2.865 123.179  0.00  0.00    +0.135 A 
ATOM     15  C   LIG A   1      -8.400   2.729 124.557  0.00  0.00    +0.109 A 
ATOM     16  C   LIG A   1      -7.451   3.576 125.297  0.00  0.00    +0.238 A 
ATOM     17  C   LIG A   1      -7.165   3.216 126.726  0.00  0.00    +0.214 A 
ATOM     18  C   LIG A   1      -8.066   2.390 127.321  0.00  0.00    +0.181 A 
ATOM     19  O   LIG A   1      -9.026   1.657 126.622  0.00  0.00    -0.451 OA
ATOM     20  C   LIG A   1      -9.092   1.755 125.259  0.00  0.00    +0.146 A 
ATOM     21  C   LIG A   1      -9.929   0.858 124.586  0.00  0.00    +0.092 A 
ATOM     22  C   LIG A   1     -10.078   0.972 123.205  0.00  0.00    +0.124 A 
ATOM     23  C   LIG A   1      -9.436   1.984 122.500  0.00  0.00    +0.091 A 
ATOM     24  O   LIG A   1      -6.932   4.530 124.738  0.00  0.00    -0.283 OA
BRANCH  18  25
ATOM     25  C   LIG A   1      -8.196   2.181 128.786  0.00  0.00    +0.025 A 
ATOM     26  C   LIG A   1      -7.929   0.928 129.370  0.00  0.00    +0.015 A 
ATOM     27  C   LIG A   1      -8.041   0.732 130.754  0.00  0.00    +0.050 A 
ATOM     28  C   LIG A   1      -8.386   1.804 131.563  0.00  0.00    +0.158 A 
ATOM     29  C   LIG A   1      -8.677   3.037 130.997  0.00  0.00    +0.159 A 
ATOM     30  C   LIG A   1      -8.654   3.213 129.621  0.00  0.00    +0.060 A 
BRANCH  29  31
ATOM     31  O   LIG A   1      -8.953   4.112 131.791  0.00  0.00    -0.503 OA
ATOM     32  H   LIG A   1      -9.917   4.066 131.949  0.00  0.00    +0.292 HD
ENDBRANCH  29  31
BRANCH  28  33
ATOM     33  O   LIG A   1      -8.456   1.699 132.923  0.00  0.00    -0.503 OA
ATOM     34  H   LIG A   1      -8.495   0.756 133.155  0.00  0.00    +0.292 HD
ENDBRANCH  28  33
ENDBRANCH  18  25
BRANCH  14  35
ATOM     35  O   LIG A   1      -7.997   3.844 122.434  0.00  0.00    -0.506 OA
ATOM     36  H   LIG A   1      -7.036   3.638 122.377  0.00  0.00    +0.292 HD
ENDBRANCH  14  35
BRANCH  22  37
ATOM     37  O   LIG A   1     -10.861   0.107 122.497  0.00  0.00    -0.506 OA
ATOM     38  H   LIG A   1     -10.636   0.158 121.555  0.00  0.00    +0.292 HD
ENDBRANCH  22  37
ENDBRANCH  13  17
ENDBRANCH   1  13
BRANCH   3  39
ATOM     39  C   LIG A   1      -5.454   4.647 130.239  0.00  0.00    +0.197 C 
BRANCH  39  40
ATOM     40  O   LIG A   1      -5.266   5.002 131.609  0.00  0.00    -0.346 OA
BRANCH  40  41
ATOM     41  C   LIG A   1      -5.143   3.908 132.506  0.00  0.00    +0.282 C 
ATOM     42  C   LIG A   1      -3.892   3.950 133.402  0.00  0.00    +0.201 C 
ATOM     43  C   LIG A   1      -3.922   5.233 134.233  0.00  0.00    +0.179 C 
ATOM     44  C   LIG A   1      -5.216   5.326 135.050  0.00  0.00    +0.174 C 
ATOM     45  C   LIG A   1      -6.447   5.062 134.167  0.00  0.00    +0.149 C 
ATOM     46  O   LIG A   1      -6.295   3.867 133.373  0.00  0.00    -0.343 OA
ATOM     47  C   LIG A   1      -7.694   4.878 135.031  0.00  0.00    +0.040 C 
BRANCH  44  48
ATOM     48  O   LIG A   1      -5.291   6.615 135.666  0.00  0.00    -0.387 OA
ATOM     49  H   LIG A   1      -5.745   7.190 135.018  0.00  0.00    +0.210 HD
ENDBRANCH  44  48
BRANCH  43  50
ATOM     50  O   LIG A   1      -2.806   5.267 135.140  0.00  0.00    -0.386 OA
ATOM     51  H   LIG A   1      -2.712   4.352 135.475  0.00  0.00    +0.210 HD
ENDBRANCH  43  50
BRANCH  42  52
ATOM     52  O   LIG A   1      -3.855   2.822 134.302  0.00  0.00    -0.384 OA
ATOM     53  H   LIG A   1      -2.937   2.480 134.288  0.00  0.00    +0.210 HD
ENDBRANCH  42  52
ENDBRANCH  40  41
ENDBRANCH  39  40
ENDBRANCH   3  39
TORSDOF 16
ENDMDL
