MODEL 1
REMARK VINA RESULT:      -6.1      0.000      0.000
REMARK  Name = NuBBE_1480
REMARK  10 active torsions:
REMARK  status: ('A' for Active; 'I' for Inactive)
REMARK    1  A    between atoms: C_1  and  C_9
REMARK    2  A    between atoms: C_1  and  C_15
REMARK    3  A    between atoms: C_2  and  C_3
REMARK    4  A    between atoms: C_3  and  C_4
REMARK    5  A    between atoms: C_4  and  C_5
REMARK    6  A    between atoms: C_5  and  C_7
REMARK    7  A    between atoms: C_9  and  C_10
REMARK    8  A    between atoms: C_10  and  C_11
REMARK    9  A    between atoms: C_12  and  C_13
REMARK   10  A    between atoms: C_12  and  C_14
REMARK                            x       y       z     vdW  Elec       q    Type
REMARK                         _______ _______ _______ _____ _____    ______ ____
ROOT
ATOM      1  C   LIG A   1      -8.120  -2.891 127.349  0.00  0.00    -0.076 C 
ATOM      2  C   LIG A   1      -8.676  -3.466 126.265  0.00  0.00    -0.027 C 
ATOM      3  C   LIG A   1      -7.082  -1.806 127.261  0.00  0.00    +0.038 C 
ENDROOT
BRANCH   2   4
ATOM      4  C   LIG A   1      -8.418  -3.099 124.828  0.00  0.00    +0.032 C 
BRANCH   4   5
ATOM      5  C   LIG A   1      -7.177  -3.824 124.278  0.00  0.00    +0.038 C 
BRANCH   5   6
ATOM      6  C   LIG A   1      -6.076  -2.904 123.781  0.00  0.00    -0.055 C 
ATOM      7  C   LIG A   1      -6.334  -1.608 123.518  0.00  0.00    +0.012 C 
BRANCH   6   8
ATOM      8  C   LIG A   1      -4.716  -3.404 123.625  0.00  0.00    -0.005 C 
ATOM      9  C   LIG A   1      -4.332  -4.695 123.592  0.00  0.00    +0.008 C 
ENDBRANCH   6   8
ENDBRANCH   5   6
ENDBRANCH   4   5
ENDBRANCH   2   4
BRANCH   1  10
ATOM     10  C   LIG A   1      -8.465  -3.372 128.748  0.00  0.00    +0.034 C 
BRANCH  10  11
ATOM     11  C   LIG A   1      -7.773  -2.592 129.876  0.00  0.00    +0.031 C 
BRANCH  11  12
ATOM     12  C   LIG A   1      -7.080  -3.528 130.833  0.00  0.00    -0.028 C 
ATOM     13  C   LIG A   1      -5.818  -3.993 130.751  0.00  0.00    -0.080 C 
ATOM     14  C   LIG A   1      -4.843  -3.652 129.658  0.00  0.00    +0.038 C 
ATOM     15  C   LIG A   1      -5.283  -4.960 131.777  0.00  0.00    +0.038 C 
ENDBRANCH  11  12
ENDBRANCH  10  11
ENDBRANCH   1  10
TORSDOF 7
ENDMDL
MODEL 2
REMARK VINA RESULT:      -6.1      0.982      1.571
REMARK  Name = NuBBE_1480
REMARK  10 active torsions:
REMARK  status: ('A' for Active; 'I' for Inactive)
REMARK    1  A    between atoms: C_1  and  C_9
REMARK    2  A    between atoms: C_1  and  C_15
REMARK    3  A    between atoms: C_2  and  C_3
REMARK    4  A    between atoms: C_3  and  C_4
REMARK    5  A    between atoms: C_4  and  C_5
REMARK    6  A    between atoms: C_5  and  C_7
REMARK    7  A    between atoms: C_9  and  C_10
REMARK    8  A    between atoms: C_10  and  C_11
REMARK    9  A    between atoms: C_12  and  C_13
REMARK   10  A    between atoms: C_12  and  C_14
REMARK                            x       y       z     vdW  Elec       q    Type
REMARK                         _______ _______ _______ _____ _____    ______ ____
ROOT
ATOM      1  C   LIG A   1      -8.205  -2.675 126.611  0.00  0.00    -0.076 C 
ATOM      2  C   LIG A   1      -7.290  -1.686 126.583  0.00  0.00    -0.027 C 
ATOM      3  C   LIG A   1      -8.979  -3.111 125.398  0.00  0.00    +0.038 C 
ENDROOT
BRANCH   2   4
ATOM      4  C   LIG A   1      -6.848  -0.912 125.370  0.00  0.00    +0.032 C 
BRANCH   4   5
ATOM      5  C   LIG A   1      -5.505  -1.433 124.829  0.00  0.00    +0.038 C 
BRANCH   5   6
ATOM      6  C   LIG A   1      -5.628  -2.483 123.740  0.00  0.00    -0.055 C 
ATOM      7  C   LIG A   1      -6.042  -2.142 122.504  0.00  0.00    +0.012 C 
BRANCH   6   8
ATOM      8  C   LIG A   1      -5.255  -3.866 124.007  0.00  0.00    -0.005 C 
ATOM      9  C   LIG A   1      -4.171  -4.512 123.536  0.00  0.00    +0.008 C 
ENDBRANCH   6   8
ENDBRANCH   5   6
ENDBRANCH   4   5
ENDBRANCH   2   4
BRANCH   1  10
ATOM     10  C   LIG A   1      -8.563  -3.365 127.916  0.00  0.00    +0.034 C 
BRANCH  10  11
ATOM     11  C   LIG A   1      -8.066  -2.639 129.175  0.00  0.00    +0.031 C 
BRANCH  11  12
ATOM     12  C   LIG A   1      -7.296  -3.575 130.070  0.00  0.00    -0.028 C 
ATOM     13  C   LIG A   1      -5.965  -3.787 130.079  0.00  0.00    -0.080 C 
ATOM     14  C   LIG A   1      -4.978  -3.106 129.171  0.00  0.00    +0.038 C 
ATOM     15  C   LIG A   1      -5.349  -4.792 131.018  0.00  0.00    +0.038 C 
ENDBRANCH  11  12
ENDBRANCH  10  11
ENDBRANCH   1  10
TORSDOF 7
ENDMDL
MODEL 3
REMARK VINA RESULT:      -5.9      0.865      5.703
REMARK  Name = NuBBE_1480
REMARK  10 active torsions:
REMARK  status: ('A' for Active; 'I' for Inactive)
REMARK    1  A    between atoms: C_1  and  C_9
REMARK    2  A    between atoms: C_1  and  C_15
REMARK    3  A    between atoms: C_2  and  C_3
REMARK    4  A    between atoms: C_3  and  C_4
REMARK    5  A    between atoms: C_4  and  C_5
REMARK    6  A    between atoms: C_5  and  C_7
REMARK    7  A    between atoms: C_9  and  C_10
REMARK    8  A    between atoms: C_10  and  C_11
REMARK    9  A    between atoms: C_12  and  C_13
REMARK   10  A    between atoms: C_12  and  C_14
REMARK                            x       y       z     vdW  Elec       q    Type
REMARK                         _______ _______ _______ _____ _____    ______ ____
ROOT
ATOM      1  C   LIG A   1      -8.550  -2.392 126.680  0.00  0.00    -0.076 C 
ATOM      2  C   LIG A   1      -8.101  -3.090 127.742  0.00  0.00    -0.027 C 
ATOM      3  C   LIG A   1      -8.258  -0.932 126.474  0.00  0.00    +0.038 C 
ENDROOT
BRANCH   2   4
ATOM      4  C   LIG A   1      -7.209  -2.571 128.839  0.00  0.00    +0.032 C 
BRANCH   4   5
ATOM      5  C   LIG A   1      -7.104  -3.576 129.999  0.00  0.00    +0.038 C 
BRANCH   5   6
ATOM      6  C   LIG A   1      -5.685  -3.977 130.362  0.00  0.00    -0.055 C 
ATOM      7  C   LIG A   1      -5.457  -5.052 131.141  0.00  0.00    +0.012 C 
BRANCH   6   8
ATOM      8  C   LIG A   1      -4.553  -3.228 129.834  0.00  0.00    -0.005 C 
ATOM      9  C   LIG A   1      -3.553  -3.713 129.071  0.00  0.00    +0.008 C 
ENDBRANCH   6   8
ENDBRANCH   5   6
ENDBRANCH   4   5
ENDBRANCH   2   4
BRANCH   1  10
ATOM     10  C   LIG A   1      -9.459  -3.044 125.651  0.00  0.00    +0.034 C 
BRANCH  10  11
ATOM     11  C   LIG A   1      -8.835  -3.186 124.255  0.00  0.00    +0.031 C 
BRANCH  11  12
ATOM     12  C   LIG A   1      -7.414  -3.681 124.346  0.00  0.00    -0.028 C 
ATOM     13  C   LIG A   1      -6.309  -3.089 123.851  0.00  0.00    -0.080 C 
ATOM     14  C   LIG A   1      -6.293  -1.787 123.097  0.00  0.00    +0.038 C 
ATOM     15  C   LIG A   1      -4.956  -3.736 123.995  0.00  0.00    +0.038 C 
ENDBRANCH  11  12
ENDBRANCH  10  11
ENDBRANCH   1  10
TORSDOF 7
ENDMDL
MODEL 4
REMARK VINA RESULT:      -5.7      1.192      5.479
REMARK  Name = NuBBE_1480
REMARK  10 active torsions:
REMARK  status: ('A' for Active; 'I' for Inactive)
REMARK    1  A    between atoms: C_1  and  C_9
REMARK    2  A    between atoms: C_1  and  C_15
REMARK    3  A    between atoms: C_2  and  C_3
REMARK    4  A    between atoms: C_3  and  C_4
REMARK    5  A    between atoms: C_4  and  C_5
REMARK    6  A    between atoms: C_5  and  C_7
REMARK    7  A    between atoms: C_9  and  C_10
REMARK    8  A    between atoms: C_10  and  C_11
REMARK    9  A    between atoms: C_12  and  C_13
REMARK   10  A    between atoms: C_12  and  C_14
REMARK                            x       y       z     vdW  Elec       q    Type
REMARK                         _______ _______ _______ _____ _____    ______ ____
ROOT
ATOM      1  C   LIG A   1      -8.202  -2.819 127.455  0.00  0.00    -0.076 C 
ATOM      2  C   LIG A   1      -7.986  -3.543 128.571  0.00  0.00    -0.027 C 
ATOM      3  C   LIG A   1      -7.861  -1.358 127.346  0.00  0.00    +0.038 C 
ENDROOT
BRANCH   2   4
ATOM      4  C   LIG A   1      -7.333  -3.058 129.838  0.00  0.00    +0.032 C 
BRANCH   4   5
ATOM      5  C   LIG A   1      -5.979  -3.750 130.072  0.00  0.00    +0.038 C 
BRANCH   5   6
ATOM      6  C   LIG A   1      -4.782  -3.005 129.510  0.00  0.00    -0.055 C 
ATOM      7  C   LIG A   1      -3.689  -3.677 129.097  0.00  0.00    +0.012 C 
BRANCH   6   8
ATOM      8  C   LIG A   1      -4.819  -1.555 129.369  0.00  0.00    -0.005 C 
ATOM      9  C   LIG A   1      -4.278  -0.652 130.210  0.00  0.00    +0.008 C 
ENDBRANCH   6   8
ENDBRANCH   5   6
ENDBRANCH   4   5
ENDBRANCH   2   4
BRANCH   1  10
ATOM     10  C   LIG A   1      -8.886  -3.437 126.248  0.00  0.00    +0.034 C 
BRANCH  10  11
ATOM     11  C   LIG A   1      -8.379  -2.914 124.895  0.00  0.00    +0.031 C 
BRANCH  11  12
ATOM     12  C   LIG A   1      -7.167  -3.685 124.438  0.00  0.00    -0.028 C 
ATOM     13  C   LIG A   1      -5.908  -3.224 124.304  0.00  0.00    -0.080 C 
ATOM     14  C   LIG A   1      -5.471  -1.814 124.596  0.00  0.00    +0.038 C 
ATOM     15  C   LIG A   1      -4.808  -4.119 123.794  0.00  0.00    +0.038 C 
ENDBRANCH  11  12
ENDBRANCH  10  11
ENDBRANCH   1  10
TORSDOF 7
ENDMDL
MODEL 5
REMARK VINA RESULT:      -5.6      0.980      1.955
REMARK  Name = NuBBE_1480
REMARK  10 active torsions:
REMARK  status: ('A' for Active; 'I' for Inactive)
REMARK    1  A    between atoms: C_1  and  C_9
REMARK    2  A    between atoms: C_1  and  C_15
REMARK    3  A    between atoms: C_2  and  C_3
REMARK    4  A    between atoms: C_3  and  C_4
REMARK    5  A    between atoms: C_4  and  C_5
REMARK    6  A    between atoms: C_5  and  C_7
REMARK    7  A    between atoms: C_9  and  C_10
REMARK    8  A    between atoms: C_10  and  C_11
REMARK    9  A    between atoms: C_12  and  C_13
REMARK   10  A    between atoms: C_12  and  C_14
REMARK                            x       y       z     vdW  Elec       q    Type
REMARK                         _______ _______ _______ _____ _____    ______ ____
ROOT
ATOM      1  C   LIG A   1      -8.351  -2.845 127.737  0.00  0.00    -0.076 C 
ATOM      2  C   LIG A   1      -8.729  -3.597 126.684  0.00  0.00    -0.027 C 
ATOM      3  C   LIG A   1      -7.789  -1.458 127.595  0.00  0.00    +0.038 C 
ENDROOT
BRANCH   2   4
ATOM      4  C   LIG A   1      -8.718  -3.178 125.238  0.00  0.00    +0.032 C 
BRANCH   4   5
ATOM      5  C   LIG A   1      -7.615  -3.908 124.451  0.00  0.00    +0.038 C 
BRANCH   5   6
ATOM      6  C   LIG A   1      -6.386  -3.067 124.158  0.00  0.00    -0.055 C 
ATOM      7  C   LIG A   1      -5.197  -3.654 123.917  0.00  0.00    +0.012 C 
BRANCH   6   8
ATOM      8  C   LIG A   1      -6.488  -1.615 124.091  0.00  0.00    -0.005 C 
ATOM      9  C   LIG A   1      -6.671  -0.872 122.981  0.00  0.00    +0.008 C 
ENDBRANCH   6   8
ENDBRANCH   5   6
ENDBRANCH   4   5
ENDBRANCH   2   4
BRANCH   1  10
ATOM     10  C   LIG A   1      -8.404  -3.404 129.149  0.00  0.00    +0.034 C 
BRANCH  10  11
ATOM     11  C   LIG A   1      -7.296  -2.884 130.077  0.00  0.00    +0.031 C 
BRANCH  11  12
ATOM     12  C   LIG A   1      -5.976  -3.540 129.763  0.00  0.00    -0.028 C 
ATOM     13  C   LIG A   1      -4.800  -2.932 129.511  0.00  0.00    -0.080 C 
ATOM     14  C   LIG A   1      -4.585  -1.443 129.500  0.00  0.00    +0.038 C 
ATOM     15  C   LIG A   1      -3.570  -3.735 129.174  0.00  0.00    +0.038 C 
ENDBRANCH  11  12
ENDBRANCH  10  11
ENDBRANCH   1  10
TORSDOF 7
ENDMDL
MODEL 6
REMARK VINA RESULT:      -5.5      1.410      2.046
REMARK  Name = NuBBE_1480
REMARK  10 active torsions:
REMARK  status: ('A' for Active; 'I' for Inactive)
REMARK    1  A    between atoms: C_1  and  C_9
REMARK    2  A    between atoms: C_1  and  C_15
REMARK    3  A    between atoms: C_2  and  C_3
REMARK    4  A    between atoms: C_3  and  C_4
REMARK    5  A    between atoms: C_4  and  C_5
REMARK    6  A    between atoms: C_5  and  C_7
REMARK    7  A    between atoms: C_9  and  C_10
REMARK    8  A    between atoms: C_10  and  C_11
REMARK    9  A    between atoms: C_12  and  C_13
REMARK   10  A    between atoms: C_12  and  C_14
REMARK                            x       y       z     vdW  Elec       q    Type
REMARK                         _______ _______ _______ _____ _____    ______ ____
ROOT
ATOM      1  C   LIG A   1      -7.548  -2.505 126.815  0.00  0.00    -0.076 C 
ATOM      2  C   LIG A   1      -8.489  -3.252 126.206  0.00  0.00    -0.027 C 
ATOM      3  C   LIG A   1      -6.180  -2.274 126.234  0.00  0.00    +0.038 C 
ENDROOT
BRANCH   2   4
ATOM      4  C   LIG A   1      -8.371  -3.912 124.857  0.00  0.00    +0.032 C 
BRANCH   4   5
ATOM      5  C   LIG A   1      -9.230  -3.192 123.803  0.00  0.00    +0.038 C 
BRANCH   5   6
ATOM      6  C   LIG A   1      -8.593  -1.946 123.213  0.00  0.00    -0.055 C 
ATOM      7  C   LIG A   1      -9.050  -0.723 123.544  0.00  0.00    +0.012 C 
BRANCH   6   8
ATOM      8  C   LIG A   1      -7.452  -2.060 122.315  0.00  0.00    -0.005 C 
ATOM      9  C   LIG A   1      -6.150  -1.985 122.655  0.00  0.00    +0.008 C 
ENDBRANCH   6   8
ENDBRANCH   5   6
ENDBRANCH   4   5
ENDBRANCH   2   4
BRANCH   1  10
ATOM     10  C   LIG A   1      -7.800  -1.906 128.188  0.00  0.00    +0.034 C 
BRANCH  10  11
ATOM     11  C   LIG A   1      -8.202  -2.929 129.261  0.00  0.00    +0.031 C 
BRANCH  11  12
ATOM     12  C   LIG A   1      -7.029  -3.792 129.652  0.00  0.00    -0.028 C 
ATOM     13  C   LIG A   1      -6.430  -3.860 130.857  0.00  0.00    -0.080 C 
ATOM     14  C   LIG A   1      -6.836  -3.063 132.067  0.00  0.00    +0.038 C 
ATOM     15  C   LIG A   1      -5.235  -4.752 131.076  0.00  0.00    +0.038 C 
ENDBRANCH  11  12
ENDBRANCH  10  11
ENDBRANCH   1  10
TORSDOF 7
ENDMDL
MODEL 7
REMARK VINA RESULT:      -5.5      4.370      8.469
REMARK  Name = NuBBE_1480
REMARK  10 active torsions:
REMARK  status: ('A' for Active; 'I' for Inactive)
REMARK    1  A    between atoms: C_1  and  C_9
REMARK    2  A    between atoms: C_1  and  C_15
REMARK    3  A    between atoms: C_2  and  C_3
REMARK    4  A    between atoms: C_3  and  C_4
REMARK    5  A    between atoms: C_4  and  C_5
REMARK    6  A    between atoms: C_5  and  C_7
REMARK    7  A    between atoms: C_9  and  C_10
REMARK    8  A    between atoms: C_10  and  C_11
REMARK    9  A    between atoms: C_12  and  C_13
REMARK   10  A    between atoms: C_12  and  C_14
REMARK                            x       y       z     vdW  Elec       q    Type
REMARK                         _______ _______ _______ _____ _____    ______ ____
ROOT
ATOM      1  C   LIG A   1      -8.339   1.282 123.776  0.00  0.00    -0.076 C 
ATOM      2  C   LIG A   1      -7.280   0.500 123.489  0.00  0.00    -0.027 C 
ATOM      3  C   LIG A   1      -9.235   1.047 124.960  0.00  0.00    +0.038 C 
ENDROOT
BRANCH   2   4
ATOM      4  C   LIG A   1      -6.783  -0.665 124.303  0.00  0.00    +0.032 C 
BRANCH   4   5
ATOM      5  C   LIG A   1      -7.238  -2.006 123.699  0.00  0.00    +0.038 C 
BRANCH   5   6
ATOM      6  C   LIG A   1      -8.520  -2.563 124.291  0.00  0.00    -0.055 C 
ATOM      7  C   LIG A   1      -9.411  -3.204 123.511  0.00  0.00    +0.012 C 
BRANCH   6   8
ATOM      8  C   LIG A   1      -8.780  -2.448 125.720  0.00  0.00    -0.005 C 
ATOM      9  C   LIG A   1      -9.158  -3.439 126.551  0.00  0.00    +0.008 C 
ENDBRANCH   6   8
ENDBRANCH   5   6
ENDBRANCH   4   5
ENDBRANCH   2   4
BRANCH   1  10
ATOM     10  C   LIG A   1      -8.736   2.422 122.854  0.00  0.00    +0.034 C 
BRANCH  10  11
ATOM     11  C   LIG A   1      -7.553   3.238 122.310  0.00  0.00    +0.031 C 
BRANCH  11  12
ATOM     12  C   LIG A   1      -7.789   3.643 120.878  0.00  0.00    -0.028 C 
ATOM     13  C   LIG A   1      -6.904   4.204 120.031  0.00  0.00    -0.080 C 
ATOM     14  C   LIG A   1      -5.477   4.537 120.371  0.00  0.00    +0.038 C 
ATOM     15  C   LIG A   1      -7.310   4.588 118.631  0.00  0.00    +0.038 C 
ENDBRANCH  11  12
ENDBRANCH  10  11
ENDBRANCH   1  10
TORSDOF 7
ENDMDL
MODEL 8
REMARK VINA RESULT:      -5.4      1.513      5.852
REMARK  Name = NuBBE_1480
REMARK  10 active torsions:
REMARK  status: ('A' for Active; 'I' for Inactive)
REMARK    1  A    between atoms: C_1  and  C_9
REMARK    2  A    between atoms: C_1  and  C_15
REMARK    3  A    between atoms: C_2  and  C_3
REMARK    4  A    between atoms: C_3  and  C_4
REMARK    5  A    between atoms: C_4  and  C_5
REMARK    6  A    between atoms: C_5  and  C_7
REMARK    7  A    between atoms: C_9  and  C_10
REMARK    8  A    between atoms: C_10  and  C_11
REMARK    9  A    between atoms: C_12  and  C_13
REMARK   10  A    between atoms: C_12  and  C_14
REMARK                            x       y       z     vdW  Elec       q    Type
REMARK                         _______ _______ _______ _____ _____    ______ ____
ROOT
ATOM      1  C   LIG A   1      -6.524   0.164 125.680  0.00  0.00    -0.076 C 
ATOM      2  C   LIG A   1      -7.366  -0.526 126.474  0.00  0.00    -0.027 C 
ATOM      3  C   LIG A   1      -5.240   0.770 126.176  0.00  0.00    +0.038 C 
ENDROOT
BRANCH   2   4
ATOM      4  C   LIG A   1      -7.154  -0.857 127.928  0.00  0.00    +0.032 C 
BRANCH   4   5
ATOM      5  C   LIG A   1      -6.428  -2.203 128.097  0.00  0.00    +0.038 C 
BRANCH   5   6
ATOM      6  C   LIG A   1      -7.140  -3.197 128.997  0.00  0.00    -0.055 C 
ATOM      7  C   LIG A   1      -6.471  -3.830 129.980  0.00  0.00    +0.012 C 
BRANCH   6   8
ATOM      8  C   LIG A   1      -8.566  -3.445 128.834  0.00  0.00    -0.005 C 
ATOM      9  C   LIG A   1      -9.161  -4.060 127.793  0.00  0.00    +0.008 C 
ENDBRANCH   6   8
ENDBRANCH   5   6
ENDBRANCH   4   5
ENDBRANCH   2   4
BRANCH   1  10
ATOM     10  C   LIG A   1      -6.873   0.435 124.227  0.00  0.00    +0.034 C 
BRANCH  10  11
ATOM     11  C   LIG A   1      -7.214  -0.822 123.412  0.00  0.00    +0.031 C 
BRANCH  11  12
ATOM     12  C   LIG A   1      -6.077  -1.811 123.442  0.00  0.00    -0.028 C 
ATOM     13  C   LIG A   1      -6.105  -3.075 123.910  0.00  0.00    -0.080 C 
ATOM     14  C   LIG A   1      -7.312  -3.748 124.503  0.00  0.00    +0.038 C 
ATOM     15  C   LIG A   1      -4.862  -3.928 123.904  0.00  0.00    +0.038 C 
ENDBRANCH  11  12
ENDBRANCH  10  11
ENDBRANCH   1  10
TORSDOF 7
ENDMDL
MODEL 9
REMARK VINA RESULT:      -5.4      1.058      6.246
REMARK  Name = NuBBE_1480
REMARK  10 active torsions:
REMARK  status: ('A' for Active; 'I' for Inactive)
REMARK    1  A    between atoms: C_1  and  C_9
REMARK    2  A    between atoms: C_1  and  C_15
REMARK    3  A    between atoms: C_2  and  C_3
REMARK    4  A    between atoms: C_3  and  C_4
REMARK    5  A    between atoms: C_4  and  C_5
REMARK    6  A    between atoms: C_5  and  C_7
REMARK    7  A    between atoms: C_9  and  C_10
REMARK    8  A    between atoms: C_10  and  C_11
REMARK    9  A    between atoms: C_12  and  C_13
REMARK   10  A    between atoms: C_12  and  C_14
REMARK                            x       y       z     vdW  Elec       q    Type
REMARK                         _______ _______ _______ _____ _____    ______ ____
ROOT
ATOM      1  C   LIG A   1      -8.457  -2.825 127.246  0.00  0.00    -0.076 C 
ATOM      2  C   LIG A   1      -8.465  -3.599 128.349  0.00  0.00    -0.027 C 
ATOM      3  C   LIG A   1      -7.878  -1.438 127.220  0.00  0.00    +0.038 C 
ENDROOT
BRANCH   2   4
ATOM      4  C   LIG A   1      -7.863  -3.255 129.686  0.00  0.00    +0.032 C 
BRANCH   4   5
ATOM      5  C   LIG A   1      -6.561  -4.037 129.932  0.00  0.00    +0.038 C 
BRANCH   5   6
ATOM      6  C   LIG A   1      -5.840  -3.675 131.218  0.00  0.00    -0.055 C 
ATOM      7  C   LIG A   1      -4.497  -3.569 131.243  0.00  0.00    +0.012 C 
BRANCH   6   8
ATOM      8  C   LIG A   1      -6.597  -3.394 132.431  0.00  0.00    -0.005 C 
ATOM      9  C   LIG A   1      -6.560  -4.094 133.582  0.00  0.00    +0.008 C 
ENDBRANCH   6   8
ENDBRANCH   5   6
ENDBRANCH   4   5
ENDBRANCH   2   4
BRANCH   1  10
ATOM     10  C   LIG A   1      -9.117  -3.297 125.961  0.00  0.00    +0.034 C 
BRANCH  10  11
ATOM     11  C   LIG A   1      -8.424  -2.815 124.678  0.00  0.00    +0.031 C 
BRANCH  11  12
ATOM     12  C   LIG A   1      -7.230  -3.676 124.353  0.00  0.00    -0.028 C 
ATOM     13  C   LIG A   1      -5.945  -3.283 124.245  0.00  0.00    -0.080 C 
ATOM     14  C   LIG A   1      -5.455  -1.874 124.435  0.00  0.00    +0.038 C 
ATOM     15  C   LIG A   1      -4.866  -4.268 123.873  0.00  0.00    +0.038 C 
ENDBRANCH  11  12
ENDBRANCH  10  11
ENDBRANCH   1  10
TORSDOF 7
ENDMDL
