MODEL 1
REMARK VINA RESULT:      -8.2      0.000      0.000
REMARK  Name = NuBBE_2511
REMARK  3 active torsions:
REMARK  status: ('A' for Active; 'I' for Inactive)
REMARK    1  A    between atoms: C_10  and  O_11
REMARK    2  A    between atoms: C_17  and  O_18
REMARK    3  A    between atoms: C_19  and  O_20
REMARK                            x       y       z     vdW  Elec       q    Type
REMARK                         _______ _______ _______ _____ _____    ______ ____
ROOT
ATOM      1  O   LIG A   1     -12.722   7.015 131.733  0.00  0.00    -0.289 OA
ATOM      2  C   LIG A   1     -11.781   6.738 130.991  0.00  0.00    +0.199 C 
ATOM      3  C   LIG A   1     -10.468   6.192 131.491  0.00  0.00    +0.234 C 
ATOM      4  C   LIG A   1      -9.365   6.876 130.678  0.00  0.00    +0.240 C 
ATOM      5  O   LIG A   1      -9.474   6.619 129.266  0.00  0.00    -0.480 OA
ATOM      6  C   LIG A   1     -10.728   6.835 128.757  0.00  0.00    +0.136 A 
ATOM      7  C   LIG A   1     -10.823   6.951 127.367  0.00  0.00    +0.091 A 
ATOM      8  C   LIG A   1     -12.067   7.196 126.785  0.00  0.00    +0.120 A 
ATOM      9  C   LIG A   1     -13.216   7.312 127.561  0.00  0.00    +0.046 A 
ATOM     10  C   LIG A   1     -13.129   7.175 128.946  0.00  0.00    +0.019 A 
ATOM     11  C   LIG A   1     -11.884   6.927 129.534  0.00  0.00    +0.062 A 
ATOM     12  C   LIG A   1      -8.031   6.331 131.145  0.00  0.00    +0.005 A 
ATOM     13  C   LIG A   1      -6.860   7.097 131.022  0.00  0.00    +0.057 A 
ATOM     14  C   LIG A   1      -5.663   6.596 131.522  0.00  0.00    +0.159 A 
ATOM     15  C   LIG A   1      -5.618   5.338 132.117  0.00  0.00    +0.159 A 
ATOM     16  C   LIG A   1      -6.759   4.555 132.220  0.00  0.00    +0.055 A 
ATOM     17  C   LIG A   1      -7.979   5.046 131.734  0.00  0.00    -0.011 A 
ATOM     18  C   LIG A   1      -9.235   4.220 131.918  0.00  0.00    +0.196 C 
ATOM     19  O   LIG A   1     -10.406   4.777 131.312  0.00  0.00    -0.360 OA
ENDROOT
BRANCH   8  20
ATOM     20  O   LIG A   1     -12.205   7.333 125.434  0.00  0.00    -0.507 OA
ATOM     21  H   LIG A   1     -12.283   8.278 125.219  0.00  0.00    +0.292 HD
ENDBRANCH   8  20
BRANCH  14  22
ATOM     22  O   LIG A   1      -4.499   7.314 131.472  0.00  0.00    -0.503 OA
ATOM     23  H   LIG A   1      -4.423   7.707 130.586  0.00  0.00    +0.292 HD
ENDBRANCH  14  22
BRANCH  15  24
ATOM     24  O   LIG A   1      -4.442   4.865 132.625  0.00  0.00    -0.503 OA
ATOM     25  H   LIG A   1      -4.011   5.650 133.017  0.00  0.00    +0.292 HD
ENDBRANCH  15  24
TORSDOF 3
ENDMDL
MODEL 2
REMARK VINA RESULT:      -7.8      7.997      9.987
REMARK  Name = NuBBE_2511
REMARK  3 active torsions:
REMARK  status: ('A' for Active; 'I' for Inactive)
REMARK    1  A    between atoms: C_10  and  O_11
REMARK    2  A    between atoms: C_17  and  O_18
REMARK    3  A    between atoms: C_19  and  O_20
REMARK                            x       y       z     vdW  Elec       q    Type
REMARK                         _______ _______ _______ _____ _____    ______ ____
ROOT
ATOM      1  O   LIG A   1      -8.653   2.812 126.508  0.00  0.00    -0.289 OA
ATOM      2  C   LIG A   1      -8.135   2.319 125.508  0.00  0.00    +0.199 C 
ATOM      3  C   LIG A   1      -7.384   3.129 124.482  0.00  0.00    +0.234 C 
ATOM      4  C   LIG A   1      -7.765   2.569 123.109  0.00  0.00    +0.240 C 
ATOM      5  O   LIG A   1      -7.417   1.181 122.958  0.00  0.00    -0.480 OA
ATOM      6  C   LIG A   1      -7.833   0.387 123.995  0.00  0.00    +0.136 A 
ATOM      7  C   LIG A   1      -7.848  -0.990 123.758  0.00  0.00    +0.091 A 
ATOM      8  C   LIG A   1      -8.283  -1.854 124.764  0.00  0.00    +0.120 A 
ATOM      9  C   LIG A   1      -8.689  -1.369 126.003  0.00  0.00    +0.046 A 
ATOM     10  C   LIG A   1      -8.655   0.002 126.252  0.00  0.00    +0.019 A 
ATOM     11  C   LIG A   1      -8.216   0.872 125.248  0.00  0.00    +0.062 A 
ATOM     12  C   LIG A   1      -7.009   3.352 122.055  0.00  0.00    +0.005 A 
ATOM     13  C   LIG A   1      -7.516   3.475 120.751  0.00  0.00    +0.057 A 
ATOM     14  C   LIG A   1      -6.832   4.257 119.826  0.00  0.00    +0.159 A 
ATOM     15  C   LIG A   1      -5.644   4.892 120.180  0.00  0.00    +0.159 A 
ATOM     16  C   LIG A   1      -5.114   4.757 121.455  0.00  0.00    +0.055 A 
ATOM     17  C   LIG A   1      -5.794   3.984 122.407  0.00  0.00    -0.011 A 
ATOM     18  C   LIG A   1      -5.250   3.903 123.819  0.00  0.00    +0.196 C 
ATOM     19  O   LIG A   1      -5.975   3.022 124.684  0.00  0.00    -0.360 OA
ENDROOT
BRANCH   8  20
ATOM     20  O   LIG A   1      -8.331  -3.203 124.571  0.00  0.00    -0.507 OA
ATOM     21  H   LIG A   1      -9.130  -3.556 124.998  0.00  0.00    +0.292 HD
ENDBRANCH   8  20
BRANCH  14  22
ATOM     22  O   LIG A   1      -7.299   4.451 118.555  0.00  0.00    -0.503 OA
ATOM     23  H   LIG A   1      -6.772   3.900 117.950  0.00  0.00    +0.292 HD
ENDBRANCH  14  22
BRANCH  15  24
ATOM     24  O   LIG A   1      -4.993   5.676 119.271  0.00  0.00    -0.503 OA
ATOM     25  H   LIG A   1      -4.303   5.094 118.895  0.00  0.00    +0.292 HD
ENDBRANCH  15  24
TORSDOF 3
ENDMDL
MODEL 3
REMARK VINA RESULT:      -7.2      7.543      9.245
REMARK  Name = NuBBE_2511
REMARK  3 active torsions:
REMARK  status: ('A' for Active; 'I' for Inactive)
REMARK    1  A    between atoms: C_10  and  O_11
REMARK    2  A    between atoms: C_17  and  O_18
REMARK    3  A    between atoms: C_19  and  O_20
REMARK                            x       y       z     vdW  Elec       q    Type
REMARK                         _______ _______ _______ _____ _____    ______ ____
ROOT
ATOM      1  O   LIG A   1      -8.943  -2.385 123.915  0.00  0.00    -0.289 OA
ATOM      2  C   LIG A   1      -8.627  -1.629 124.831  0.00  0.00    +0.199 C 
ATOM      3  C   LIG A   1      -8.396  -0.151 124.640  0.00  0.00    +0.234 C 
ATOM      4  C   LIG A   1      -7.183   0.222 125.498  0.00  0.00    +0.240 C 
ATOM      5  O   LIG A   1      -7.388  -0.044 126.897  0.00  0.00    -0.480 OA
ATOM      6  C   LIG A   1      -7.864  -1.302 127.160  0.00  0.00    +0.136 A 
ATOM      7  C   LIG A   1      -7.751  -1.747 128.480  0.00  0.00    +0.091 A 
ATOM      8  C   LIG A   1      -8.193  -3.028 128.811  0.00  0.00    +0.120 A 
ATOM      9  C   LIG A   1      -8.759  -3.864 127.854  0.00  0.00    +0.046 A 
ATOM     10  C   LIG A   1      -8.894  -3.417 126.541  0.00  0.00    +0.019 A 
ATOM     11  C   LIG A   1      -8.454  -2.132 126.204  0.00  0.00    +0.062 A 
ATOM     12  C   LIG A   1      -6.937   1.709 125.342  0.00  0.00    +0.005 A 
ATOM     13  C   LIG A   1      -5.652   2.247 125.524  0.00  0.00    +0.057 A 
ATOM     14  C   LIG A   1      -5.446   3.605 125.307  0.00  0.00    +0.159 A 
ATOM     15  C   LIG A   1      -6.505   4.429 124.936  0.00  0.00    +0.159 A 
ATOM     16  C   LIG A   1      -7.786   3.920 124.780  0.00  0.00    +0.055 A 
ATOM     17  C   LIG A   1      -8.015   2.551 124.981  0.00  0.00    -0.011 A 
ATOM     18  C   LIG A   1      -9.398   1.988 124.735  0.00  0.00    +0.196 C 
ATOM     19  O   LIG A   1      -9.538   0.598 125.050  0.00  0.00    -0.360 OA
ENDROOT
BRANCH   8  20
ATOM     20  O   LIG A   1      -8.087  -3.510 130.083  0.00  0.00    -0.507 OA
ATOM     21  H   LIG A   1      -7.149  -3.532 130.336  0.00  0.00    +0.292 HD
ENDBRANCH   8  20
BRANCH  14  22
ATOM     22  O   LIG A   1      -4.210   4.178 125.426  0.00  0.00    -0.503 OA
ATOM     23  H   LIG A   1      -4.330   5.131 125.580  0.00  0.00    +0.292 HD
ENDBRANCH  14  22
BRANCH  15  24
ATOM     24  O   LIG A   1      -6.287   5.757 124.703  0.00  0.00    -0.503 OA
ATOM     25  H   LIG A   1      -6.792   6.216 125.403  0.00  0.00    +0.292 HD
ENDBRANCH  15  24
TORSDOF 3
ENDMDL
MODEL 4
REMARK VINA RESULT:      -7.2      1.911      2.304
REMARK  Name = NuBBE_2511
REMARK  3 active torsions:
REMARK  status: ('A' for Active; 'I' for Inactive)
REMARK    1  A    between atoms: C_10  and  O_11
REMARK    2  A    between atoms: C_17  and  O_18
REMARK    3  A    between atoms: C_19  and  O_20
REMARK                            x       y       z     vdW  Elec       q    Type
REMARK                         _______ _______ _______ _____ _____    ______ ____
ROOT
ATOM      1  O   LIG A   1     -11.417   3.770 130.347  0.00  0.00    -0.289 OA
ATOM      2  C   LIG A   1     -10.676   4.699 130.034  0.00  0.00    +0.199 C 
ATOM      3  C   LIG A   1      -9.173   4.583 130.006  0.00  0.00    +0.234 C 
ATOM      4  C   LIG A   1      -8.617   5.892 130.573  0.00  0.00    +0.240 C 
ATOM      5  O   LIG A   1      -9.013   7.044 129.806  0.00  0.00    -0.480 OA
ATOM      6  C   LIG A   1     -10.358   7.101 129.545  0.00  0.00    +0.136 A 
ATOM      7  C   LIG A   1     -10.858   8.337 129.127  0.00  0.00    +0.091 A 
ATOM      8  C   LIG A   1     -12.222   8.471 128.866  0.00  0.00    +0.120 A 
ATOM      9  C   LIG A   1     -13.090   7.392 129.001  0.00  0.00    +0.046 A 
ATOM     10  C   LIG A   1     -12.592   6.152 129.397  0.00  0.00    +0.019 A 
ATOM     11  C   LIG A   1     -11.225   6.012 129.656  0.00  0.00    +0.062 A 
ATOM     12  C   LIG A   1      -7.104   5.814 130.540  0.00  0.00    +0.005 A 
ATOM     13  C   LIG A   1      -6.326   6.555 131.446  0.00  0.00    +0.057 A 
ATOM     14  C   LIG A   1      -4.944   6.409 131.434  0.00  0.00    +0.159 A 
ATOM     15  C   LIG A   1      -4.332   5.557 130.518  0.00  0.00    +0.159 A 
ATOM     16  C   LIG A   1      -5.082   4.840 129.596  0.00  0.00    +0.055 A 
ATOM     17  C   LIG A   1      -6.479   4.963 129.599  0.00  0.00    -0.011 A 
ATOM     18  C   LIG A   1      -7.297   4.121 128.643  0.00  0.00    +0.196 C 
ATOM     19  O   LIG A   1      -8.704   4.386 128.673  0.00  0.00    -0.360 OA
ENDROOT
BRANCH   8  20
ATOM     20  O   LIG A   1     -12.757   9.663 128.473  0.00  0.00    -0.507 OA
ATOM     21  H   LIG A   1     -13.512   9.876 129.047  0.00  0.00    +0.292 HD
ENDBRANCH   8  20
BRANCH  14  22
ATOM     22  O   LIG A   1      -4.137   7.068 132.320  0.00  0.00    -0.503 OA
ATOM     23  H   LIG A   1      -4.632   7.827 132.674  0.00  0.00    +0.292 HD
ENDBRANCH  14  22
BRANCH  15  24
ATOM     24  O   LIG A   1      -2.975   5.403 130.530  0.00  0.00    -0.503 OA
ATOM     25  H   LIG A   1      -2.667   5.874 129.730  0.00  0.00    +0.292 HD
ENDBRANCH  15  24
TORSDOF 3
ENDMDL
MODEL 5
REMARK VINA RESULT:      -7.2      7.201      8.204
REMARK  Name = NuBBE_2511
REMARK  3 active torsions:
REMARK  status: ('A' for Active; 'I' for Inactive)
REMARK    1  A    between atoms: C_10  and  O_11
REMARK    2  A    between atoms: C_17  and  O_18
REMARK    3  A    between atoms: C_19  and  O_20
REMARK                            x       y       z     vdW  Elec       q    Type
REMARK                         _______ _______ _______ _____ _____    ______ ____
ROOT
ATOM      1  O   LIG A   1      -9.432   2.572 122.586  0.00  0.00    -0.289 OA
ATOM      2  C   LIG A   1      -8.233   2.744 122.794  0.00  0.00    +0.199 C 
ATOM      3  C   LIG A   1      -7.528   2.240 124.028  0.00  0.00    +0.234 C 
ATOM      4  C   LIG A   1      -6.551   3.337 124.459  0.00  0.00    +0.240 C 
ATOM      5  O   LIG A   1      -5.571   3.638 123.449  0.00  0.00    -0.480 OA
ATOM      6  C   LIG A   1      -6.104   3.854 122.205  0.00  0.00    +0.136 A 
ATOM      7  C   LIG A   1      -5.275   4.487 121.274  0.00  0.00    +0.091 A 
ATOM      8  C   LIG A   1      -5.764   4.759 119.996  0.00  0.00    +0.120 A 
ATOM      9  C   LIG A   1      -7.056   4.397 119.626  0.00  0.00    +0.046 A 
ATOM     10  C   LIG A   1      -7.878   3.746 120.544  0.00  0.00    +0.019 A 
ATOM     11  C   LIG A   1      -7.392   3.468 121.826  0.00  0.00    +0.062 A 
ATOM     12  C   LIG A   1      -5.811   2.850 125.689  0.00  0.00    +0.005 A 
ATOM     13  C   LIG A   1      -5.286   3.763 126.619  0.00  0.00    +0.057 A 
ATOM     14  C   LIG A   1      -4.673   3.283 127.771  0.00  0.00    +0.159 A 
ATOM     15  C   LIG A   1      -4.557   1.913 127.991  0.00  0.00    +0.159 A 
ATOM     16  C   LIG A   1      -5.044   0.998 127.069  0.00  0.00    +0.055 A 
ATOM     17  C   LIG A   1      -5.677   1.459 125.906  0.00  0.00    -0.011 A 
ATOM     18  C   LIG A   1      -6.274   0.456 124.941  0.00  0.00    +0.196 C 
ATOM     19  O   LIG A   1      -6.822   1.032 123.750  0.00  0.00    -0.360 OA
ENDROOT
BRANCH   8  20
ATOM     20  O   LIG A   1      -4.997   5.390 119.061  0.00  0.00    -0.507 OA
ATOM     21  H   LIG A   1      -5.569   5.946 118.505  0.00  0.00    +0.292 HD
ENDBRANCH   8  20
BRANCH  14  22
ATOM     22  O   LIG A   1      -4.183   4.122 128.734  0.00  0.00    -0.503 OA
ATOM     23  H   LIG A   1      -4.898   4.720 129.009  0.00  0.00    +0.292 HD
ENDBRANCH  14  22
BRANCH  15  24
ATOM     24  O   LIG A   1      -3.973   1.453 129.137  0.00  0.00    -0.503 OA
ATOM     25  H   LIG A   1      -4.269   2.076 129.830  0.00  0.00    +0.292 HD
ENDBRANCH  15  24
TORSDOF 3
ENDMDL
MODEL 6
REMARK VINA RESULT:      -7.2      1.262      6.499
REMARK  Name = NuBBE_2511
REMARK  3 active torsions:
REMARK  status: ('A' for Active; 'I' for Inactive)
REMARK    1  A    between atoms: C_10  and  O_11
REMARK    2  A    between atoms: C_17  and  O_18
REMARK    3  A    between atoms: C_19  and  O_20
REMARK                            x       y       z     vdW  Elec       q    Type
REMARK                         _______ _______ _______ _____ _____    ______ ____
ROOT
ATOM      1  O   LIG A   1      -8.691   3.532 132.694  0.00  0.00    -0.289 OA
ATOM      2  C   LIG A   1      -8.630   4.615 132.114  0.00  0.00    +0.199 C 
ATOM      3  C   LIG A   1      -9.828   5.288 131.492  0.00  0.00    +0.234 C 
ATOM      4  C   LIG A   1      -9.358   5.892 130.166  0.00  0.00    +0.240 C 
ATOM      5  O   LIG A   1      -8.310   6.863 130.338  0.00  0.00    -0.480 OA
ATOM      6  C   LIG A   1      -7.275   6.431 131.127  0.00  0.00    +0.136 A 
ATOM      7  C   LIG A   1      -6.086   7.162 131.049  0.00  0.00    +0.091 A 
ATOM      8  C   LIG A   1      -4.986   6.762 131.809  0.00  0.00    +0.120 A 
ATOM      9  C   LIG A   1      -5.056   5.658 132.652  0.00  0.00    +0.046 A 
ATOM     10  C   LIG A   1      -6.246   4.939 132.749  0.00  0.00    +0.019 A 
ATOM     11  C   LIG A   1      -7.353   5.338 131.992  0.00  0.00    +0.062 A 
ATOM     12  C   LIG A   1     -10.537   6.594 129.525  0.00  0.00    +0.005 A 
ATOM     13  C   LIG A   1     -10.605   6.758 128.132  0.00  0.00    +0.057 A 
ATOM     14  C   LIG A   1     -11.732   7.345 127.569  0.00  0.00    +0.159 A 
ATOM     15  C   LIG A   1     -12.774   7.791 128.379  0.00  0.00    +0.159 A 
ATOM     16  C   LIG A   1     -12.711   7.663 129.759  0.00  0.00    +0.055 A 
ATOM     17  C   LIG A   1     -11.589   7.062 130.347  0.00  0.00    -0.011 A 
ATOM     18  C   LIG A   1     -11.560   6.857 131.847  0.00  0.00    +0.196 C 
ATOM     19  O   LIG A   1     -10.335   6.311 132.347  0.00  0.00    -0.360 OA
ENDROOT
BRANCH   8  20
ATOM     20  O   LIG A   1      -3.801   7.435 131.752  0.00  0.00    -0.507 OA
ATOM     21  H   LIG A   1      -3.074   6.792 131.692  0.00  0.00    +0.292 HD
ENDBRANCH   8  20
BRANCH  14  22
ATOM     22  O   LIG A   1     -11.875   7.492 126.217  0.00  0.00    -0.503 OA
ATOM     23  H   LIG A   1     -12.772   7.825 126.040  0.00  0.00    +0.292 HD
ENDBRANCH  14  22
BRANCH  15  24
ATOM     24  O   LIG A   1     -13.887   8.346 127.815  0.00  0.00    -0.503 OA
ATOM     25  H   LIG A   1     -13.547   8.865 127.060  0.00  0.00    +0.292 HD
ENDBRANCH  15  24
TORSDOF 3
ENDMDL
MODEL 7
REMARK VINA RESULT:      -6.7      4.733      6.442
REMARK  Name = NuBBE_2511
REMARK  3 active torsions:
REMARK  status: ('A' for Active; 'I' for Inactive)
REMARK    1  A    between atoms: C_10  and  O_11
REMARK    2  A    between atoms: C_17  and  O_18
REMARK    3  A    between atoms: C_19  and  O_20
REMARK                            x       y       z     vdW  Elec       q    Type
REMARK                         _______ _______ _______ _____ _____    ______ ____
ROOT
ATOM      1  O   LIG A   1      -6.109   5.342 129.684  0.00  0.00    -0.289 OA
ATOM      2  C   LIG A   1      -7.068   4.573 129.676  0.00  0.00    +0.199 C 
ATOM      3  C   LIG A   1      -6.998   3.171 129.127  0.00  0.00    +0.234 C 
ATOM      4  C   LIG A   1      -8.307   2.924 128.372  0.00  0.00    +0.240 C 
ATOM      5  O   LIG A   1      -9.467   3.040 129.216  0.00  0.00    -0.480 OA
ATOM      6  C   LIG A   1      -9.491   4.183 129.973  0.00  0.00    +0.136 A 
ATOM      7  C   LIG A   1     -10.723   4.532 130.533  0.00  0.00    +0.091 A 
ATOM      8  C   LIG A   1     -10.824   5.696 131.296  0.00  0.00    +0.120 A 
ATOM      9  C   LIG A   1      -9.716   6.508 131.519  0.00  0.00    +0.046 A 
ATOM     10  C   LIG A   1      -8.481   6.153 130.980  0.00  0.00    +0.019 A 
ATOM     11  C   LIG A   1      -8.374   4.985 130.218  0.00  0.00    +0.062 A 
ATOM     12  C   LIG A   1      -8.275   1.512 127.823  0.00  0.00    +0.005 A 
ATOM     13  C   LIG A   1      -9.012   1.170 126.678  0.00  0.00    +0.057 A 
ATOM     14  C   LIG A   1      -8.908  -0.117 126.161  0.00  0.00    +0.159 A 
ATOM     15  C   LIG A   1      -8.100  -1.065 126.784  0.00  0.00    +0.159 A 
ATOM     16  C   LIG A   1      -7.387  -0.752 127.933  0.00  0.00    +0.055 A 
ATOM     17  C   LIG A   1      -7.468   0.543 128.464  0.00  0.00    -0.011 A 
ATOM     18  C   LIG A   1      -6.629   0.900 129.673  0.00  0.00    +0.196 C 
ATOM     19  O   LIG A   1      -6.851   2.220 130.181  0.00  0.00    -0.360 OA
ENDROOT
BRANCH   8  20
ATOM     20  O   LIG A   1     -12.009   6.084 131.847  0.00  0.00    -0.507 OA
ATOM     21  H   LIG A   1     -12.738   5.659 131.364  0.00  0.00    +0.292 HD
ENDBRANCH   8  20
BRANCH  14  22
ATOM     22  O   LIG A   1      -9.566  -0.496 125.024  0.00  0.00    -0.503 OA
ATOM     23  H   LIG A   1      -9.083  -0.140 124.259  0.00  0.00    +0.292 HD
ENDBRANCH  14  22
BRANCH  15  24
ATOM     24  O   LIG A   1      -7.986  -2.318 126.254  0.00  0.00    -0.503 OA
ATOM     25  H   LIG A   1      -8.127  -2.919 127.013  0.00  0.00    +0.292 HD
ENDBRANCH  15  24
TORSDOF 3
ENDMDL
MODEL 8
REMARK VINA RESULT:      -6.7      8.498      9.727
REMARK  Name = NuBBE_2511
REMARK  3 active torsions:
REMARK  status: ('A' for Active; 'I' for Inactive)
REMARK    1  A    between atoms: C_10  and  O_11
REMARK    2  A    between atoms: C_17  and  O_18
REMARK    3  A    between atoms: C_19  and  O_20
REMARK                            x       y       z     vdW  Elec       q    Type
REMARK                         _______ _______ _______ _____ _____    ______ ____
ROOT
ATOM      1  O   LIG A   1      -5.883   0.329 125.683  0.00  0.00    -0.289 OA
ATOM      2  C   LIG A   1      -6.575  -0.525 126.233  0.00  0.00    +0.199 C 
ATOM      3  C   LIG A   1      -6.544  -0.783 127.718  0.00  0.00    +0.234 C 
ATOM      4  C   LIG A   1      -6.618  -2.301 127.907  0.00  0.00    +0.240 C 
ATOM      5  O   LIG A   1      -7.819  -2.871 127.356  0.00  0.00    -0.480 OA
ATOM      6  C   LIG A   1      -8.084  -2.477 126.071  0.00  0.00    +0.136 A 
ATOM      7  C   LIG A   1      -9.011  -3.246 125.362  0.00  0.00    +0.091 A 
ATOM      8  C   LIG A   1      -9.309  -2.914 124.040  0.00  0.00    +0.120 A 
ATOM      9  C   LIG A   1      -8.710  -1.822 123.420  0.00  0.00    +0.046 A 
ATOM     10  C   LIG A   1      -7.801  -1.039 124.129  0.00  0.00    +0.019 A 
ATOM     11  C   LIG A   1      -7.501  -1.366 125.456  0.00  0.00    +0.062 A 
ATOM     12  C   LIG A   1      -6.608  -2.591 129.393  0.00  0.00    +0.005 A 
ATOM     13  C   LIG A   1      -6.124  -3.816 129.883  0.00  0.00    +0.057 A 
ATOM     14  C   LIG A   1      -6.065  -4.025 131.256  0.00  0.00    +0.159 A 
ATOM     15  C   LIG A   1      -6.503  -3.041 132.139  0.00  0.00    +0.159 A 
ATOM     16  C   LIG A   1      -7.011  -1.837 131.672  0.00  0.00    +0.055 A 
ATOM     17  C   LIG A   1      -7.068  -1.600 130.292  0.00  0.00    -0.011 A 
ATOM     18  C   LIG A   1      -7.551  -0.255 129.791  0.00  0.00    +0.196 C 
ATOM     19  O   LIG A   1      -7.647  -0.152 128.366  0.00  0.00    -0.360 OA
ENDROOT
BRANCH   8  20
ATOM     20  O   LIG A   1     -10.194  -3.646 123.305  0.00  0.00    -0.507 OA
ATOM     21  H   LIG A   1      -9.701  -4.260 122.735  0.00  0.00    +0.292 HD
ENDBRANCH   8  20
BRANCH  14  22
ATOM     22  O   LIG A   1      -5.563  -5.178 131.793  0.00  0.00    -0.503 OA
ATOM     23  H   LIG A   1      -4.651  -5.007 132.083  0.00  0.00    +0.292 HD
ENDBRANCH  14  22
BRANCH  15  24
ATOM     24  O   LIG A   1      -6.419  -3.247 133.486  0.00  0.00    -0.503 OA
ATOM     25  H   LIG A   1      -6.018  -4.135 133.575  0.00  0.00    +0.292 HD
ENDBRANCH  15  24
TORSDOF 3
ENDMDL
MODEL 9
REMARK VINA RESULT:      -6.6      8.851      9.908
REMARK  Name = NuBBE_2511
REMARK  3 active torsions:
REMARK  status: ('A' for Active; 'I' for Inactive)
REMARK    1  A    between atoms: C_10  and  O_11
REMARK    2  A    between atoms: C_17  and  O_18
REMARK    3  A    between atoms: C_19  and  O_20
REMARK                            x       y       z     vdW  Elec       q    Type
REMARK                         _______ _______ _______ _____ _____    ______ ____
ROOT
ATOM      1  O   LIG A   1      -8.708   0.523 126.724  0.00  0.00    -0.289 OA
ATOM      2  C   LIG A   1      -7.989  -0.472 126.659  0.00  0.00    +0.199 C 
ATOM      3  C   LIG A   1      -7.667  -1.337 127.851  0.00  0.00    +0.234 C 
ATOM      4  C   LIG A   1      -6.189  -1.720 127.734  0.00  0.00    +0.240 C 
ATOM      5  O   LIG A   1      -5.897  -2.452 126.530  0.00  0.00    -0.480 OA
ATOM      6  C   LIG A   1      -6.391  -1.869 125.392  0.00  0.00    +0.136 A 
ATOM      7  C   LIG A   1      -5.857  -2.318 124.181  0.00  0.00    +0.091 A 
ATOM      8  C   LIG A   1      -6.299  -1.750 122.986  0.00  0.00    +0.120 A 
ATOM      9  C   LIG A   1      -7.273  -0.756 122.977  0.00  0.00    +0.046 A 
ATOM     10  C   LIG A   1      -7.825  -0.321 124.181  0.00  0.00    +0.019 A 
ATOM     11  C   LIG A   1      -7.387  -0.890 125.382  0.00  0.00    +0.062 A 
ATOM     12  C   LIG A   1      -5.839  -2.608 128.911  0.00  0.00    +0.005 A 
ATOM     13  C   LIG A   1      -4.522  -2.673 129.395  0.00  0.00    +0.057 A 
ATOM     14  C   LIG A   1      -4.247  -3.445 130.518  0.00  0.00    +0.159 A 
ATOM     15  C   LIG A   1      -5.260  -4.167 131.144  0.00  0.00    +0.159 A 
ATOM     16  C   LIG A   1      -6.561  -4.138 130.661  0.00  0.00    +0.055 A 
ATOM     17  C   LIG A   1      -6.863  -3.356 129.538  0.00  0.00    -0.011 A 
ATOM     18  C   LIG A   1      -8.299  -3.267 129.063  0.00  0.00    +0.196 C 
ATOM     19  O   LIG A   1      -8.480  -2.510 127.861  0.00  0.00    -0.360 OA
ENDROOT
BRANCH   8  20
ATOM     20  O   LIG A   1      -5.793  -2.143 121.782  0.00  0.00    -0.507 OA
ATOM     21  H   LIG A   1      -5.934  -3.099 121.676  0.00  0.00    +0.292 HD
ENDBRANCH   8  20
BRANCH  14  22
ATOM     22  O   LIG A   1      -2.994  -3.513 131.062  0.00  0.00    -0.503 OA
ATOM     23  H   LIG A   1      -2.818  -4.437 131.308  0.00  0.00    +0.292 HD
ENDBRANCH  14  22
BRANCH  15  24
ATOM     24  O   LIG A   1      -4.984  -4.904 132.260  0.00  0.00    -0.503 OA
ATOM     25  H   LIG A   1      -5.609  -5.655 132.219  0.00  0.00    +0.292 HD
ENDBRANCH  15  24
TORSDOF 3
ENDMDL
