MODEL 1
REMARK VINA RESULT:      -7.9      0.000      0.000
REMARK  Name = NuBBE_1374
REMARK  11 active torsions:
REMARK  status: ('A' for Active; 'I' for Inactive)
REMARK    1  A    between atoms: O_1  and  C_2
REMARK    2  A    between atoms: O_1  and  C_17
REMARK    3  A    between atoms: C_4  and  O_6
REMARK    4  A    between atoms: C_7  and  O_9
REMARK    5  A    between atoms: C_10  and  O_16
REMARK    6  A    between atoms: C_12  and  C_15
REMARK    7  A    between atoms: C_19  and  C_32
REMARK    8  A    between atoms: C_26  and  O_27
REMARK    9  A    between atoms: C_29  and  O_31
REMARK   10  A    between atoms: C_34  and  O_35
REMARK   11  A    between atoms: C_36  and  O_39
REMARK                            x       y       z     vdW  Elec       q    Type
REMARK                         _______ _______ _______ _____ _____    ______ ____
ROOT
ATOM      1  C   LIG A   1      -8.254   3.837 129.631  0.00  0.00    +0.237 C 
ATOM      2  C   LIG A   1      -9.628   4.052 130.298  0.00  0.00    +0.240 C 
ATOM      3  O   LIG A   1      -9.557   3.720 131.701  0.00  0.00    -0.480 OA
ATOM      4  C   LIG A   1      -8.591   4.405 132.388  0.00  0.00    +0.139 A 
ATOM      5  C   LIG A   1      -7.472   4.980 131.783  0.00  0.00    +0.103 A 
ATOM      6  C   LIG A   1      -7.254   4.753 130.337  0.00  0.00    +0.203 C 
ATOM      7  O   LIG A   1      -6.284   5.272 129.790  0.00  0.00    -0.289 OA
ATOM      8  C   LIG A   1      -6.585   5.740 132.555  0.00  0.00    +0.134 A 
ATOM      9  C   LIG A   1      -6.796   5.897 133.925  0.00  0.00    +0.091 A 
ATOM     10  C   LIG A   1      -7.888   5.273 134.520  0.00  0.00    +0.124 A 
ATOM     11  C   LIG A   1      -8.781   4.520 133.764  0.00  0.00    +0.092 A 
ENDROOT
BRANCH   2  12
ATOM     12  C   LIG A   1     -10.340   5.392 130.084  0.00  0.00    -0.001 A 
ATOM     13  C   LIG A   1     -11.469   5.691 130.873  0.00  0.00    +0.056 A 
ATOM     14  C   LIG A   1     -12.156   6.886 130.683  0.00  0.00    +0.159 A 
ATOM     15  C   LIG A   1     -11.747   7.788 129.708  0.00  0.00    +0.158 A 
ATOM     16  C   LIG A   1     -10.643   7.520 128.919  0.00  0.00    +0.049 A 
ATOM     17  C   LIG A   1      -9.941   6.328 129.109  0.00  0.00    +0.011 A 
BRANCH  14  18
ATOM     18  O   LIG A   1     -13.248   7.219 131.436  0.00  0.00    -0.503 OA
ATOM     19  H   LIG A   1     -14.044   7.082 130.894  0.00  0.00    +0.292 HD
ENDBRANCH  14  18
BRANCH  15  20
ATOM     20  O   LIG A   1     -12.431   8.952 129.518  0.00  0.00    -0.503 OA
ATOM     21  H   LIG A   1     -13.354   8.738 129.761  0.00  0.00    +0.292 HD
ENDBRANCH  15  20
ENDBRANCH   2  12
BRANCH   8  22
ATOM     22  O   LIG A   1      -5.487   6.367 132.031  0.00  0.00    -0.506 OA
ATOM     23  H   LIG A   1      -5.786   6.954 131.300  0.00  0.00    +0.292 HD
ENDBRANCH   8  22
BRANCH  10  24
ATOM     24  O   LIG A   1      -8.132   5.386 135.857  0.00  0.00    -0.506 OA
ATOM     25  H   LIG A   1      -8.676   4.632 136.143  0.00  0.00    +0.292 HD
ENDBRANCH  10  24
BRANCH   1  26
ATOM     26  O   LIG A   1      -8.226   4.045 128.212  0.00  0.00    -0.334 OA
BRANCH  26  27
ATOM     27  C   LIG A   1      -7.636   2.992 127.462  0.00  0.00    +0.283 C 
ATOM     28  C   LIG A   1      -8.276   2.869 126.065  0.00  0.00    +0.201 C 
ATOM     29  C   LIG A   1      -7.947   4.101 125.220  0.00  0.00    +0.179 C 
ATOM     30  C   LIG A   1      -6.438   4.360 125.191  0.00  0.00    +0.174 C 
ATOM     31  C   LIG A   1      -5.856   4.344 126.612  0.00  0.00    +0.149 C 
ATOM     32  O   LIG A   1      -6.222   3.149 127.326  0.00  0.00    -0.343 OA
ATOM     33  C   LIG A   1      -4.331   4.393 126.584  0.00  0.00    +0.040 C 
BRANCH  28  34
ATOM     34  O   LIG A   1      -7.776   1.704 125.373  0.00  0.00    -0.384 OA
ATOM     35  H   LIG A   1      -7.322   1.145 126.035  0.00  0.00    +0.210 HD
ENDBRANCH  28  34
BRANCH  29  36
ATOM     36  O   LIG A   1      -8.394   3.909 123.866  0.00  0.00    -0.386 OA
ATOM     37  H   LIG A   1      -9.143   4.531 123.743  0.00  0.00    +0.210 HD
ENDBRANCH  29  36
BRANCH  30  38
ATOM     38  O   LIG A   1      -6.185   5.614 124.551  0.00  0.00    -0.387 OA
ATOM     39  H   LIG A   1      -5.320   5.513 124.105  0.00  0.00    +0.210 HD
ENDBRANCH  30  38
ENDBRANCH  26  27
ENDBRANCH   1  26
TORSDOF 10
ENDMDL
MODEL 2
REMARK VINA RESULT:      -7.6      2.487      7.331
REMARK  Name = NuBBE_1374
REMARK  11 active torsions:
REMARK  status: ('A' for Active; 'I' for Inactive)
REMARK    1  A    between atoms: O_1  and  C_2
REMARK    2  A    between atoms: O_1  and  C_17
REMARK    3  A    between atoms: C_4  and  O_6
REMARK    4  A    between atoms: C_7  and  O_9
REMARK    5  A    between atoms: C_10  and  O_16
REMARK    6  A    between atoms: C_12  and  C_15
REMARK    7  A    between atoms: C_19  and  C_32
REMARK    8  A    between atoms: C_26  and  O_27
REMARK    9  A    between atoms: C_29  and  O_31
REMARK   10  A    between atoms: C_34  and  O_35
REMARK   11  A    between atoms: C_36  and  O_39
REMARK                            x       y       z     vdW  Elec       q    Type
REMARK                         _______ _______ _______ _____ _____    ______ ____
ROOT
ATOM      1  C   LIG A   1      -6.610   3.651 129.651  0.00  0.00    +0.237 C 
ATOM      2  C   LIG A   1      -5.289   3.643 130.447  0.00  0.00    +0.240 C 
ATOM      3  O   LIG A   1      -4.334   2.762 129.818  0.00  0.00    -0.480 OA
ATOM      4  C   LIG A   1      -4.087   3.055 128.504  0.00  0.00    +0.139 A 
ATOM      5  C   LIG A   1      -4.968   3.770 127.691  0.00  0.00    +0.103 A 
ATOM      6  C   LIG A   1      -6.290   4.145 128.240  0.00  0.00    +0.203 C 
ATOM      7  O   LIG A   1      -7.065   4.793 127.540  0.00  0.00    -0.289 OA
ATOM      8  C   LIG A   1      -4.587   4.100 126.385  0.00  0.00    +0.134 A 
ATOM      9  C   LIG A   1      -3.352   3.692 125.884  0.00  0.00    +0.091 A 
ATOM     10  C   LIG A   1      -2.508   2.935 126.691  0.00  0.00    +0.124 A 
ATOM     11  C   LIG A   1      -2.871   2.605 127.993  0.00  0.00    +0.092 A 
ENDROOT
BRANCH   2  12
ATOM     12  C   LIG A   1      -4.646   4.987 130.805  0.00  0.00    -0.001 A 
ATOM     13  C   LIG A   1      -3.313   4.997 131.264  0.00  0.00    +0.056 A 
ATOM     14  C   LIG A   1      -2.708   6.197 131.625  0.00  0.00    +0.159 A 
ATOM     15  C   LIG A   1      -3.415   7.393 131.552  0.00  0.00    +0.158 A 
ATOM     16  C   LIG A   1      -4.723   7.412 131.106  0.00  0.00    +0.049 A 
ATOM     17  C   LIG A   1      -5.335   6.214 130.731  0.00  0.00    +0.011 A 
BRANCH  14  18
ATOM     18  O   LIG A   1      -1.415   6.252 132.063  0.00  0.00    -0.503 OA
ATOM     19  H   LIG A   1      -1.394   6.767 132.888  0.00  0.00    +0.292 HD
ENDBRANCH  14  18
BRANCH  15  20
ATOM     20  O   LIG A   1      -2.821   8.564 131.919  0.00  0.00    -0.503 OA
ATOM     21  H   LIG A   1      -3.565   9.180 132.074  0.00  0.00    +0.292 HD
ENDBRANCH  15  20
ENDBRANCH   2  12
BRANCH   8  22
ATOM     22  O   LIG A   1      -5.378   4.830 125.539  0.00  0.00    -0.506 OA
ATOM     23  H   LIG A   1      -5.072   4.674 124.617  0.00  0.00    +0.292 HD
ENDBRANCH   8  22
BRANCH  10  24
ATOM     24  O   LIG A   1      -1.295   2.501 126.245  0.00  0.00    -0.506 OA
ATOM     25  H   LIG A   1      -1.281   2.548 125.273  0.00  0.00    +0.292 HD
ENDBRANCH  10  24
BRANCH   1  26
ATOM     26  O   LIG A   1      -7.669   4.422 130.235  0.00  0.00    -0.334 OA
BRANCH  26  27
ATOM     27  C   LIG A   1      -8.923   3.758 130.311  0.00  0.00    +0.283 C 
ATOM     28  C   LIG A   1      -9.211   3.259 131.741  0.00  0.00    +0.201 C 
ATOM     29  C   LIG A   1      -9.407   4.444 132.687  0.00  0.00    +0.179 C 
ATOM     30  C   LIG A   1     -10.461   5.413 132.144  0.00  0.00    +0.174 C 
ATOM     31  C   LIG A   1     -10.173   5.763 130.677  0.00  0.00    +0.149 C 
ATOM     32  O   LIG A   1     -10.002   4.585 129.869  0.00  0.00    -0.343 OA
ATOM     33  C   LIG A   1     -11.322   6.557 130.064  0.00  0.00    +0.040 C 
BRANCH  28  34
ATOM     34  O   LIG A   1     -10.412   2.456 131.772  0.00  0.00    -0.384 OA
ATOM     35  H   LIG A   1     -10.345   1.804 131.046  0.00  0.00    +0.210 HD
ENDBRANCH  28  34
BRANCH  29  36
ATOM     36  O   LIG A   1      -9.846   3.983 133.978  0.00  0.00    -0.386 OA
ATOM     37  H   LIG A   1     -10.347   3.157 133.808  0.00  0.00    +0.210 HD
ENDBRANCH  29  36
BRANCH  30  38
ATOM     38  O   LIG A   1     -10.485   6.591 132.955  0.00  0.00    -0.387 OA
ATOM     39  H   LIG A   1     -11.426   6.737 133.180  0.00  0.00    +0.210 HD
ENDBRANCH  30  38
ENDBRANCH  26  27
ENDBRANCH   1  26
TORSDOF 10
ENDMDL
MODEL 3
REMARK VINA RESULT:      -7.5      5.776      7.469
REMARK  Name = NuBBE_1374
REMARK  11 active torsions:
REMARK  status: ('A' for Active; 'I' for Inactive)
REMARK    1  A    between atoms: O_1  and  C_2
REMARK    2  A    between atoms: O_1  and  C_17
REMARK    3  A    between atoms: C_4  and  O_6
REMARK    4  A    between atoms: C_7  and  O_9
REMARK    5  A    between atoms: C_10  and  O_16
REMARK    6  A    between atoms: C_12  and  C_15
REMARK    7  A    between atoms: C_19  and  C_32
REMARK    8  A    between atoms: C_26  and  O_27
REMARK    9  A    between atoms: C_29  and  O_31
REMARK   10  A    between atoms: C_34  and  O_35
REMARK   11  A    between atoms: C_36  and  O_39
REMARK                            x       y       z     vdW  Elec       q    Type
REMARK                         _______ _______ _______ _____ _____    ______ ____
ROOT
ATOM      1  C   LIG A   1      -7.238  -2.806 128.278  0.00  0.00    +0.237 C 
ATOM      2  C   LIG A   1      -7.987  -2.369 129.553  0.00  0.00    +0.240 C 
ATOM      3  O   LIG A   1      -7.611  -3.211 130.664  0.00  0.00    -0.480 OA
ATOM      4  C   LIG A   1      -6.264  -3.249 130.903  0.00  0.00    +0.139 A 
ATOM      5  C   LIG A   1      -5.298  -2.945 129.941  0.00  0.00    +0.103 A 
ATOM      6  C   LIG A   1      -5.742  -2.668 128.557  0.00  0.00    +0.203 C 
ATOM      7  O   LIG A   1      -4.902  -2.379 127.708  0.00  0.00    -0.289 OA
ATOM      8  C   LIG A   1      -3.946  -2.922 130.306  0.00  0.00    +0.134 A 
ATOM      9  C   LIG A   1      -3.559  -3.233 131.609  0.00  0.00    +0.091 A 
ATOM     10  C   LIG A   1      -4.532  -3.584 132.540  0.00  0.00    +0.124 A 
ATOM     11  C   LIG A   1      -5.879  -3.604 132.195  0.00  0.00    +0.092 A 
ENDROOT
BRANCH   2  12
ATOM     12  C   LIG A   1      -7.954  -0.889 129.947  0.00  0.00    -0.001 A 
ATOM     13  C   LIG A   1      -8.082  -0.549 131.309  0.00  0.00    +0.056 A 
ATOM     14  C   LIG A   1      -8.086   0.787 131.697  0.00  0.00    +0.159 A 
ATOM     15  C   LIG A   1      -7.978   1.798 130.748  0.00  0.00    +0.158 A 
ATOM     16  C   LIG A   1      -7.852   1.493 129.406  0.00  0.00    +0.049 A 
ATOM     17  C   LIG A   1      -7.837   0.155 129.007  0.00  0.00    +0.011 A 
BRANCH  14  18
ATOM     18  O   LIG A   1      -8.195   1.159 133.008  0.00  0.00    -0.503 OA
ATOM     19  H   LIG A   1      -9.063   1.579 133.134  0.00  0.00    +0.292 HD
ENDBRANCH  14  18
BRANCH  15  20
ATOM     20  O   LIG A   1      -7.994   3.106 131.133  0.00  0.00    -0.503 OA
ATOM     21  H   LIG A   1      -8.820   3.201 131.649  0.00  0.00    +0.292 HD
ENDBRANCH  15  20
ENDBRANCH   2  12
BRANCH   8  22
ATOM     22  O   LIG A   1      -2.944  -2.598 129.432  0.00  0.00    -0.506 OA
ATOM     23  H   LIG A   1      -2.476  -3.424 129.177  0.00  0.00    +0.292 HD
ENDBRANCH   8  22
BRANCH  10  24
ATOM     24  O   LIG A   1      -4.205  -3.907 133.824  0.00  0.00    -0.506 OA
ATOM     25  H   LIG A   1      -3.643  -4.702 133.816  0.00  0.00    +0.292 HD
ENDBRANCH  10  24
BRANCH   1  26
ATOM     26  O   LIG A   1      -7.603  -2.100 127.084  0.00  0.00    -0.334 OA
BRANCH  26  27
ATOM     27  C   LIG A   1      -8.119  -2.913 126.040  0.00  0.00    +0.283 C 
ATOM     28  C   LIG A   1      -9.235  -2.188 125.261  0.00  0.00    +0.201 C 
ATOM     29  C   LIG A   1      -8.660  -0.995 124.496  0.00  0.00    +0.179 C 
ATOM     30  C   LIG A   1      -7.472  -1.419 123.628  0.00  0.00    +0.174 C 
ATOM     31  C   LIG A   1      -6.466  -2.242 124.448  0.00  0.00    +0.149 C 
ATOM     32  O   LIG A   1      -7.102  -3.337 125.130  0.00  0.00    -0.343 OA
ATOM     33  C   LIG A   1      -5.388  -2.844 123.552  0.00  0.00    +0.040 C 
BRANCH  28  34
ATOM     34  O   LIG A   1      -9.853  -3.078 124.304  0.00  0.00    -0.384 OA
ATOM     35  H   LIG A   1     -10.811  -2.877 124.296  0.00  0.00    +0.210 HD
ENDBRANCH  28  34
BRANCH  29  36
ATOM     36  O   LIG A   1      -9.663  -0.426 123.635  0.00  0.00    -0.386 OA
ATOM     37  H   LIG A   1      -9.173  -0.038 122.879  0.00  0.00    +0.210 HD
ENDBRANCH  29  36
BRANCH  30  38
ATOM     38  O   LIG A   1      -6.849  -0.256 123.077  0.00  0.00    -0.387 OA
ATOM     39  H   LIG A   1      -7.255  -0.133 122.194  0.00  0.00    +0.210 HD
ENDBRANCH  30  38
ENDBRANCH  26  27
ENDBRANCH   1  26
TORSDOF 10
ENDMDL
MODEL 4
REMARK VINA RESULT:      -7.5      5.403      7.928
REMARK  Name = NuBBE_1374
REMARK  11 active torsions:
REMARK  status: ('A' for Active; 'I' for Inactive)
REMARK    1  A    between atoms: O_1  and  C_2
REMARK    2  A    between atoms: O_1  and  C_17
REMARK    3  A    between atoms: C_4  and  O_6
REMARK    4  A    between atoms: C_7  and  O_9
REMARK    5  A    between atoms: C_10  and  O_16
REMARK    6  A    between atoms: C_12  and  C_15
REMARK    7  A    between atoms: C_19  and  C_32
REMARK    8  A    between atoms: C_26  and  O_27
REMARK    9  A    between atoms: C_29  and  O_31
REMARK   10  A    between atoms: C_34  and  O_35
REMARK   11  A    between atoms: C_36  and  O_39
REMARK                            x       y       z     vdW  Elec       q    Type
REMARK                         _______ _______ _______ _____ _____    ______ ____
ROOT
ATOM      1  C   LIG A   1      -6.244   0.298 127.259  0.00  0.00    +0.237 C 
ATOM      2  C   LIG A   1      -5.906  -1.009 126.513  0.00  0.00    +0.240 C 
ATOM      3  O   LIG A   1      -5.187  -1.908 127.384  0.00  0.00    -0.480 OA
ATOM      4  C   LIG A   1      -5.840  -2.192 128.553  0.00  0.00    +0.139 A 
ATOM      5  C   LIG A   1      -6.825  -1.373 129.109  0.00  0.00    +0.103 A 
ATOM      6  C   LIG A   1      -7.112  -0.073 128.462  0.00  0.00    +0.203 C 
ATOM      7  O   LIG A   1      -7.991   0.645 128.930  0.00  0.00    -0.289 OA
ATOM      8  C   LIG A   1      -7.501  -1.794 130.260  0.00  0.00    +0.134 A 
ATOM      9  C   LIG A   1      -7.175  -3.004 130.871  0.00  0.00    +0.091 A 
ATOM     10  C   LIG A   1      -6.154  -3.782 130.332  0.00  0.00    +0.124 A 
ATOM     11  C   LIG A   1      -5.478  -3.380 129.185  0.00  0.00    +0.092 A 
ENDROOT
BRANCH   2  12
ATOM     12  C   LIG A   1      -7.033  -1.739 125.777  0.00  0.00    -0.001 A 
ATOM     13  C   LIG A   1      -7.112  -1.622 124.375  0.00  0.00    +0.056 A 
ATOM     14  C   LIG A   1      -8.140  -2.249 123.677  0.00  0.00    +0.159 A 
ATOM     15  C   LIG A   1      -9.107  -2.983 124.356  0.00  0.00    +0.158 A 
ATOM     16  C   LIG A   1      -9.055  -3.113 125.732  0.00  0.00    +0.049 A 
ATOM     17  C   LIG A   1      -8.021  -2.497 126.439  0.00  0.00    +0.011 A 
BRANCH  14  18
ATOM     18  O   LIG A   1      -8.245  -2.170 122.317  0.00  0.00    -0.503 OA
ATOM     19  H   LIG A   1      -8.404  -3.066 121.972  0.00  0.00    +0.292 HD
ENDBRANCH  14  18
BRANCH  15  20
ATOM     20  O   LIG A   1     -10.120  -3.584 123.670  0.00  0.00    -0.503 OA
ATOM     21  H   LIG A   1     -10.818  -2.902 123.611  0.00  0.00    +0.292 HD
ENDBRANCH  15  20
ENDBRANCH   2  12
BRANCH   8  22
ATOM     22  O   LIG A   1      -8.504  -1.067 130.843  0.00  0.00    -0.506 OA
ATOM     23  H   LIG A   1      -8.442  -1.180 131.818  0.00  0.00    +0.292 HD
ENDBRANCH   8  22
BRANCH  10  24
ATOM     24  O   LIG A   1      -5.789  -4.968 130.898  0.00  0.00    -0.506 OA
ATOM     25  H   LIG A   1      -6.585  -5.417 131.231  0.00  0.00    +0.292 HD
ENDBRANCH  10  24
BRANCH   1  26
ATOM     26  O   LIG A   1      -6.878   1.308 126.463  0.00  0.00    -0.334 OA
BRANCH  26  27
ATOM     27  C   LIG A   1      -6.113   1.769 125.358  0.00  0.00    +0.283 C 
ATOM     28  C   LIG A   1      -7.013   2.104 124.151  0.00  0.00    +0.201 C 
ATOM     29  C   LIG A   1      -7.897   3.311 124.467  0.00  0.00    +0.179 C 
ATOM     30  C   LIG A   1      -7.058   4.493 124.963  0.00  0.00    +0.174 C 
ATOM     31  C   LIG A   1      -6.100   4.049 126.079  0.00  0.00    +0.149 C 
ATOM     32  O   LIG A   1      -5.316   2.909 125.687  0.00  0.00    -0.343 OA
ATOM     33  C   LIG A   1      -5.118   5.160 126.436  0.00  0.00    +0.040 C 
BRANCH  28  34
ATOM     34  O   LIG A   1      -6.215   2.424 122.990  0.00  0.00    -0.384 OA
ATOM     35  H   LIG A   1      -5.326   2.043 123.134  0.00  0.00    +0.210 HD
ENDBRANCH  28  34
BRANCH  29  36
ATOM     36  O   LIG A   1      -8.607   3.731 123.288  0.00  0.00    -0.386 OA
ATOM     37  H   LIG A   1      -9.048   2.925 122.944  0.00  0.00    +0.210 HD
ENDBRANCH  29  36
BRANCH  30  38
ATOM     38  O   LIG A   1      -7.927   5.532 125.421  0.00  0.00    -0.387 OA
ATOM     39  H   LIG A   1      -8.380   5.869 124.621  0.00  0.00    +0.210 HD
ENDBRANCH  30  38
ENDBRANCH  26  27
ENDBRANCH   1  26
TORSDOF 10
ENDMDL
MODEL 5
REMARK VINA RESULT:      -7.4      3.614      9.105
REMARK  Name = NuBBE_1374
REMARK  11 active torsions:
REMARK  status: ('A' for Active; 'I' for Inactive)
REMARK    1  A    between atoms: O_1  and  C_2
REMARK    2  A    between atoms: O_1  and  C_17
REMARK    3  A    between atoms: C_4  and  O_6
REMARK    4  A    between atoms: C_7  and  O_9
REMARK    5  A    between atoms: C_10  and  O_16
REMARK    6  A    between atoms: C_12  and  C_15
REMARK    7  A    between atoms: C_19  and  C_32
REMARK    8  A    between atoms: C_26  and  O_27
REMARK    9  A    between atoms: C_29  and  O_31
REMARK   10  A    between atoms: C_34  and  O_35
REMARK   11  A    between atoms: C_36  and  O_39
REMARK                            x       y       z     vdW  Elec       q    Type
REMARK                         _______ _______ _______ _____ _____    ______ ____
ROOT
ATOM      1  C   LIG A   1      -6.936   3.395 125.465  0.00  0.00    +0.237 C 
ATOM      2  C   LIG A   1      -7.844   2.349 124.788  0.00  0.00    +0.240 C 
ATOM      3  O   LIG A   1      -8.459   2.912 123.610  0.00  0.00    -0.480 OA
ATOM      4  C   LIG A   1      -7.567   3.414 122.701  0.00  0.00    +0.139 A 
ATOM      5  C   LIG A   1      -6.270   3.812 123.029  0.00  0.00    +0.103 A 
ATOM      6  C   LIG A   1      -5.862   3.793 124.451  0.00  0.00    +0.203 C 
ATOM      7  O   LIG A   1      -4.716   4.121 124.749  0.00  0.00    -0.289 OA
ATOM      8  C   LIG A   1      -5.399   4.228 122.014  0.00  0.00    +0.134 A 
ATOM      9  C   LIG A   1      -5.829   4.277 120.689  0.00  0.00    +0.091 A 
ATOM     10  C   LIG A   1      -7.142   3.926 120.388  0.00  0.00    +0.124 A 
ATOM     11  C   LIG A   1      -8.016   3.506 121.385  0.00  0.00    +0.092 A 
ENDROOT
BRANCH   2  12
ATOM     12  C   LIG A   1      -7.265   0.961 124.497  0.00  0.00    -0.001 A 
ATOM     13  C   LIG A   1      -7.876   0.168 123.506  0.00  0.00    +0.056 A 
ATOM     14  C   LIG A   1      -7.394  -1.110 123.237  0.00  0.00    +0.159 A 
ATOM     15  C   LIG A   1      -6.316  -1.622 123.953  0.00  0.00    +0.158 A 
ATOM     16  C   LIG A   1      -5.699  -0.866 124.932  0.00  0.00    +0.049 A 
ATOM     17  C   LIG A   1      -6.169   0.421 125.201  0.00  0.00    +0.011 A 
BRANCH  14  18
ATOM     18  O   LIG A   1      -7.950  -1.906 122.275  0.00  0.00    -0.503 OA
ATOM     19  H   LIG A   1      -8.797  -2.243 122.611  0.00  0.00    +0.292 HD
ENDBRANCH  14  18
BRANCH  15  20
ATOM     20  O   LIG A   1      -5.856  -2.879 123.695  0.00  0.00    -0.503 OA
ATOM     21  H   LIG A   1      -5.405  -3.150 124.519  0.00  0.00    +0.292 HD
ENDBRANCH  15  20
ENDBRANCH   2  12
BRANCH   8  22
ATOM     22  O   LIG A   1      -4.102   4.597 122.249  0.00  0.00    -0.506 OA
ATOM     23  H   LIG A   1      -3.522   3.824 122.065  0.00  0.00    +0.292 HD
ENDBRANCH   8  22
BRANCH  10  24
ATOM     24  O   LIG A   1      -7.616   3.969 119.110  0.00  0.00    -0.506 OA
ATOM     25  H   LIG A   1      -7.017   4.513 118.570  0.00  0.00    +0.292 HD
ENDBRANCH  10  24
BRANCH   1  26
ATOM     26  O   LIG A   1      -6.342   2.978 126.702  0.00  0.00    -0.334 OA
BRANCH  26  27
ATOM     27  C   LIG A   1      -6.423   3.928 127.757  0.00  0.00    +0.283 C 
ATOM     28  C   LIG A   1      -7.879   4.134 128.218  0.00  0.00    +0.201 C 
ATOM     29  C   LIG A   1      -8.412   2.862 128.878  0.00  0.00    +0.179 C 
ATOM     30  C   LIG A   1      -7.471   2.382 129.987  0.00  0.00    +0.174 C 
ATOM     31  C   LIG A   1      -6.022   2.322 129.483  0.00  0.00    +0.149 C 
ATOM     32  O   LIG A   1      -5.615   3.562 128.878  0.00  0.00    -0.343 OA
ATOM     33  C   LIG A   1      -5.051   2.048 130.627  0.00  0.00    +0.040 C 
BRANCH  28  34
ATOM     34  O   LIG A   1      -7.964   5.208 129.181  0.00  0.00    -0.384 OA
ATOM     35  H   LIG A   1      -8.361   5.977 128.725  0.00  0.00    +0.210 HD
ENDBRANCH  28  34
BRANCH  29  36
ATOM     36  O   LIG A   1      -9.704   3.108 129.462  0.00  0.00    -0.386 OA
ATOM     37  H   LIG A   1      -9.699   2.638 130.323  0.00  0.00    +0.210 HD
ENDBRANCH  29  36
BRANCH  30  38
ATOM     38  O   LIG A   1      -7.903   1.100 130.452  0.00  0.00    -0.387 OA
ATOM     39  H   LIG A   1      -8.832   1.011 130.157  0.00  0.00    +0.210 HD
ENDBRANCH  30  38
ENDBRANCH  26  27
ENDBRANCH   1  26
TORSDOF 10
ENDMDL
MODEL 6
REMARK VINA RESULT:      -7.3      2.340      3.446
REMARK  Name = NuBBE_1374
REMARK  11 active torsions:
REMARK  status: ('A' for Active; 'I' for Inactive)
REMARK    1  A    between atoms: O_1  and  C_2
REMARK    2  A    between atoms: O_1  and  C_17
REMARK    3  A    between atoms: C_4  and  O_6
REMARK    4  A    between atoms: C_7  and  O_9
REMARK    5  A    between atoms: C_10  and  O_16
REMARK    6  A    between atoms: C_12  and  C_15
REMARK    7  A    between atoms: C_19  and  C_32
REMARK    8  A    between atoms: C_26  and  O_27
REMARK    9  A    between atoms: C_29  and  O_31
REMARK   10  A    between atoms: C_34  and  O_35
REMARK   11  A    between atoms: C_36  and  O_39
REMARK                            x       y       z     vdW  Elec       q    Type
REMARK                         _______ _______ _______ _____ _____    ______ ____
ROOT
ATOM      1  C   LIG A   1      -5.217   4.744 129.689  0.00  0.00    +0.237 C 
ATOM      2  C   LIG A   1      -5.907   4.116 130.917  0.00  0.00    +0.240 C 
ATOM      3  O   LIG A   1      -4.942   3.879 131.964  0.00  0.00    -0.480 OA
ATOM      4  C   LIG A   1      -4.243   4.994 132.340  0.00  0.00    +0.139 A 
ATOM      5  C   LIG A   1      -4.079   6.116 131.526  0.00  0.00    +0.103 A 
ATOM      6  C   LIG A   1      -4.597   6.067 130.140  0.00  0.00    +0.203 C 
ATOM      7  O   LIG A   1      -4.477   7.057 129.422  0.00  0.00    -0.289 OA
ATOM      8  C   LIG A   1      -3.425   7.246 132.033  0.00  0.00    +0.134 A 
ATOM      9  C   LIG A   1      -2.909   7.243 133.328  0.00  0.00    +0.091 A 
ATOM     10  C   LIG A   1      -3.036   6.096 134.107  0.00  0.00    +0.124 A 
ATOM     11  C   LIG A   1      -3.689   4.969 133.619  0.00  0.00    +0.092 A 
ENDROOT
BRANCH   2  12
ATOM     12  C   LIG A   1      -7.166   4.793 131.471  0.00  0.00    -0.001 A 
ATOM     13  C   LIG A   1      -7.897   4.137 132.481  0.00  0.00    +0.056 A 
ATOM     14  C   LIG A   1      -9.060   4.710 132.986  0.00  0.00    +0.159 A 
ATOM     15  C   LIG A   1      -9.521   5.925 132.489  0.00  0.00    +0.158 A 
ATOM     16  C   LIG A   1      -8.824   6.589 131.497  0.00  0.00    +0.049 A 
ATOM     17  C   LIG A   1      -7.650   6.028 130.992  0.00  0.00    +0.011 A 
BRANCH  14  18
ATOM     18  O   LIG A   1      -9.791   4.113 133.974  0.00  0.00    -0.503 OA
ATOM     19  H   LIG A   1     -10.673   3.908 133.619  0.00  0.00    +0.292 HD
ENDBRANCH  14  18
BRANCH  15  20
ATOM     20  O   LIG A   1     -10.668   6.476 132.977  0.00  0.00    -0.503 OA
ATOM     21  H   LIG A   1     -10.685   6.215 133.920  0.00  0.00    +0.292 HD
ENDBRANCH  15  20
ENDBRANCH   2  12
BRANCH   8  22
ATOM     22  O   LIG A   1      -3.258   8.397 131.312  0.00  0.00    -0.506 OA
ATOM     23  H   LIG A   1      -4.028   8.499 130.707  0.00  0.00    +0.292 HD
ENDBRANCH   8  22
BRANCH  10  24
ATOM     24  O   LIG A   1      -2.539   6.039 135.375  0.00  0.00    -0.506 OA
ATOM     25  H   LIG A   1      -3.008   5.342 135.866  0.00  0.00    +0.292 HD
ENDBRANCH  10  24
BRANCH   1  26
ATOM     26  O   LIG A   1      -6.063   4.939 128.547  0.00  0.00    -0.334 OA
BRANCH  26  27
ATOM     27  C   LIG A   1      -6.774   3.784 128.124  0.00  0.00    +0.283 C 
ATOM     28  C   LIG A   1      -7.784   4.122 127.009  0.00  0.00    +0.201 C 
ATOM     29  C   LIG A   1      -7.049   4.542 125.736  0.00  0.00    +0.179 C 
ATOM     30  C   LIG A   1      -6.006   3.495 125.332  0.00  0.00    +0.174 C 
ATOM     31  C   LIG A   1      -5.120   3.121 126.529  0.00  0.00    +0.149 C 
ATOM     32  O   LIG A   1      -5.902   2.743 127.676  0.00  0.00    -0.343 OA
ATOM     33  C   LIG A   1      -4.219   1.935 126.198  0.00  0.00    +0.040 C 
BRANCH  28  34
ATOM     34  O   LIG A   1      -8.605   2.975 126.695  0.00  0.00    -0.384 OA
ATOM     35  H   LIG A   1      -8.099   2.418 126.070  0.00  0.00    +0.210 HD
ENDBRANCH  28  34
BRANCH  29  36
ATOM     36  O   LIG A   1      -7.980   4.689 124.648  0.00  0.00    -0.386 OA
ATOM     37  H   LIG A   1      -7.442   4.630 123.830  0.00  0.00    +0.210 HD
ENDBRANCH  29  36
BRANCH  30  38
ATOM     38  O   LIG A   1      -5.217   4.004 124.253  0.00  0.00    -0.387 OA
ATOM     39  H   LIG A   1      -4.437   3.415 124.195  0.00  0.00    +0.210 HD
ENDBRANCH  30  38
ENDBRANCH  26  27
ENDBRANCH   1  26
TORSDOF 10
ENDMDL
MODEL 7
REMARK VINA RESULT:      -7.2      3.131      7.622
REMARK  Name = NuBBE_1374
REMARK  11 active torsions:
REMARK  status: ('A' for Active; 'I' for Inactive)
REMARK    1  A    between atoms: O_1  and  C_2
REMARK    2  A    between atoms: O_1  and  C_17
REMARK    3  A    between atoms: C_4  and  O_6
REMARK    4  A    between atoms: C_7  and  O_9
REMARK    5  A    between atoms: C_10  and  O_16
REMARK    6  A    between atoms: C_12  and  C_15
REMARK    7  A    between atoms: C_19  and  C_32
REMARK    8  A    between atoms: C_26  and  O_27
REMARK    9  A    between atoms: C_29  and  O_31
REMARK   10  A    between atoms: C_34  and  O_35
REMARK   11  A    between atoms: C_36  and  O_39
REMARK                            x       y       z     vdW  Elec       q    Type
REMARK                         _______ _______ _______ _____ _____    ______ ____
ROOT
ATOM      1  C   LIG A   1      -6.726   3.728 129.341  0.00  0.00    +0.237 C 
ATOM      2  C   LIG A   1      -6.094   2.350 129.623  0.00  0.00    +0.240 C 
ATOM      3  O   LIG A   1      -5.331   1.908 128.480  0.00  0.00    -0.480 OA
ATOM      4  C   LIG A   1      -4.366   2.792 128.079  0.00  0.00    +0.139 A 
ATOM      5  C   LIG A   1      -4.397   4.156 128.371  0.00  0.00    +0.103 A 
ATOM      6  C   LIG A   1      -5.585   4.706 129.062  0.00  0.00    +0.203 C 
ATOM      7  O   LIG A   1      -5.612   5.901 129.343  0.00  0.00    -0.289 OA
ATOM      8  C   LIG A   1      -3.317   4.966 127.997  0.00  0.00    +0.134 A 
ATOM      9  C   LIG A   1      -2.233   4.424 127.307  0.00  0.00    +0.091 A 
ATOM     10  C   LIG A   1      -2.245   3.072 126.978  0.00  0.00    +0.124 A 
ATOM     11  C   LIG A   1      -3.307   2.255 127.349  0.00  0.00    +0.092 A 
ENDROOT
BRANCH   2  12
ATOM     12  C   LIG A   1      -5.299   2.165 130.920  0.00  0.00    -0.001 A 
ATOM     13  C   LIG A   1      -4.677   0.923 131.160  0.00  0.00    +0.056 A 
ATOM     14  C   LIG A   1      -3.972   0.712 132.342  0.00  0.00    +0.159 A 
ATOM     15  C   LIG A   1      -3.887   1.715 133.301  0.00  0.00    +0.158 A 
ATOM     16  C   LIG A   1      -4.490   2.942 133.093  0.00  0.00    +0.049 A 
ATOM     17  C   LIG A   1      -5.190   3.167 131.906  0.00  0.00    +0.011 A 
BRANCH  14  18
ATOM     18  O   LIG A   1      -3.343  -0.472 132.607  0.00  0.00    -0.503 OA
ATOM     19  H   LIG A   1      -3.733  -0.850 133.414  0.00  0.00    +0.292 HD
ENDBRANCH  14  18
BRANCH  15  20
ATOM     20  O   LIG A   1      -3.206   1.499 134.462  0.00  0.00    -0.503 OA
ATOM     21  H   LIG A   1      -3.380   0.561 134.680  0.00  0.00    +0.292 HD
ENDBRANCH  15  20
ENDBRANCH   2  12
BRANCH   8  22
ATOM     22  O   LIG A   1      -3.254   6.303 128.280  0.00  0.00    -0.506 OA
ATOM     23  H   LIG A   1      -2.312   6.544 128.432  0.00  0.00    +0.292 HD
ENDBRANCH   8  22
BRANCH  10  24
ATOM     24  O   LIG A   1      -1.215   2.497 126.294  0.00  0.00    -0.506 OA
ATOM     25  H   LIG A   1      -0.448   3.095 126.316  0.00  0.00    +0.292 HD
ENDBRANCH  10  24
BRANCH   1  26
ATOM     26  O   LIG A   1      -7.587   4.227 130.374  0.00  0.00    -0.334 OA
BRANCH  26  27
ATOM     27  C   LIG A   1      -8.877   3.633 130.420  0.00  0.00    +0.283 C 
ATOM     28  C   LIG A   1      -9.228   3.159 131.844  0.00  0.00    +0.201 C 
ATOM     29  C   LIG A   1      -9.384   4.358 132.779  0.00  0.00    +0.179 C 
ATOM     30  C   LIG A   1     -10.369   5.380 132.204  0.00  0.00    +0.174 C 
ATOM     31  C   LIG A   1     -10.024   5.706 130.744  0.00  0.00    +0.149 C 
ATOM     32  O   LIG A   1      -9.897   4.515 129.946  0.00  0.00    -0.343 OA
ATOM     33  C   LIG A   1     -11.112   6.558 130.097  0.00  0.00    +0.040 C 
BRANCH  28  34
ATOM     34  O   LIG A   1     -10.472   2.423 131.847  0.00  0.00    -0.384 OA
ATOM     35  H   LIG A   1     -10.526   1.946 132.699  0.00  0.00    +0.210 HD
ENDBRANCH  28  34
BRANCH  29  36
ATOM     36  O   LIG A   1      -9.881   3.929 134.060  0.00  0.00    -0.386 OA
ATOM     37  H   LIG A   1     -10.593   4.563 134.294  0.00  0.00    +0.210 HD
ENDBRANCH  29  36
BRANCH  30  38
ATOM     38  O   LIG A   1     -10.349   6.562 133.009  0.00  0.00    -0.387 OA
ATOM     39  H   LIG A   1     -11.030   6.423 133.699  0.00  0.00    +0.210 HD
ENDBRANCH  30  38
ENDBRANCH  26  27
ENDBRANCH   1  26
TORSDOF 10
ENDMDL
MODEL 8
REMARK VINA RESULT:      -7.1      3.213      6.940
REMARK  Name = NuBBE_1374
REMARK  11 active torsions:
REMARK  status: ('A' for Active; 'I' for Inactive)
REMARK    1  A    between atoms: O_1  and  C_2
REMARK    2  A    between atoms: O_1  and  C_17
REMARK    3  A    between atoms: C_4  and  O_6
REMARK    4  A    between atoms: C_7  and  O_9
REMARK    5  A    between atoms: C_10  and  O_16
REMARK    6  A    between atoms: C_12  and  C_15
REMARK    7  A    between atoms: C_19  and  C_32
REMARK    8  A    between atoms: C_26  and  O_27
REMARK    9  A    between atoms: C_29  and  O_31
REMARK   10  A    between atoms: C_34  and  O_35
REMARK   11  A    between atoms: C_36  and  O_39
REMARK                            x       y       z     vdW  Elec       q    Type
REMARK                         _______ _______ _______ _____ _____    ______ ____
ROOT
ATOM      1  C   LIG A   1      -5.682   6.478 131.740  0.00  0.00    +0.237 C 
ATOM      2  C   LIG A   1      -4.770   6.930 130.582  0.00  0.00    +0.240 C 
ATOM      3  O   LIG A   1      -3.794   7.880 131.059  0.00  0.00    -0.480 OA
ATOM      4  C   LIG A   1      -3.033   7.421 132.101  0.00  0.00    +0.139 A 
ATOM      5  C   LIG A   1      -3.431   6.390 132.954  0.00  0.00    +0.103 A 
ATOM      6  C   LIG A   1      -4.790   5.826 132.797  0.00  0.00    +0.203 C 
ATOM      7  O   LIG A   1      -5.141   4.904 133.528  0.00  0.00    -0.289 OA
ATOM      8  C   LIG A   1      -2.545   5.928 133.935  0.00  0.00    +0.134 A 
ATOM      9  C   LIG A   1      -1.288   6.512 134.085  0.00  0.00    +0.091 A 
ATOM     10  C   LIG A   1      -0.930   7.574 133.260  0.00  0.00    +0.124 A 
ATOM     11  C   LIG A   1      -1.797   8.039 132.277  0.00  0.00    +0.092 A 
ENDROOT
BRANCH   2  12
ATOM     12  C   LIG A   1      -4.114   5.856 129.709  0.00  0.00    -0.001 A 
ATOM     13  C   LIG A   1      -4.426   4.503 129.953  0.00  0.00    +0.056 A 
ATOM     14  C   LIG A   1      -3.825   3.500 129.198  0.00  0.00    +0.159 A 
ATOM     15  C   LIG A   1      -2.901   3.820 128.209  0.00  0.00    +0.158 A 
ATOM     16  C   LIG A   1      -2.575   5.139 127.950  0.00  0.00    +0.049 A 
ATOM     17  C   LIG A   1      -3.181   6.152 128.694  0.00  0.00    +0.011 A 
BRANCH  14  18
ATOM     18  O   LIG A   1      -4.110   2.178 129.394  0.00  0.00    -0.503 OA
ATOM     19  H   LIG A   1      -5.012   2.010 129.069  0.00  0.00    +0.292 HD
ENDBRANCH  14  18
BRANCH  15  20
ATOM     20  O   LIG A   1      -2.306   2.834 127.480  0.00  0.00    -0.503 OA
ATOM     21  H   LIG A   1      -3.040   2.409 126.993  0.00  0.00    +0.292 HD
ENDBRANCH  15  20
ENDBRANCH   2  12
BRANCH   8  22
ATOM     22  O   LIG A   1      -2.844   4.897 134.784  0.00  0.00    -0.506 OA
ATOM     23  H   LIG A   1      -2.009   4.427 135.007  0.00  0.00    +0.292 HD
ENDBRANCH   8  22
BRANCH  10  24
ATOM     24  O   LIG A   1       0.283   8.187 133.374  0.00  0.00    -0.506 OA
ATOM     25  H   LIG A   1       0.214   9.091 133.021  0.00  0.00    +0.292 HD
ENDBRANCH  10  24
BRANCH   1  26
ATOM     26  O   LIG A   1      -6.755   5.602 131.366  0.00  0.00    -0.334 OA
BRANCH  26  27
ATOM     27  C   LIG A   1      -8.009   5.899 131.964  0.00  0.00    +0.283 C 
ATOM     28  C   LIG A   1      -9.011   6.448 130.929  0.00  0.00    +0.201 C 
ATOM     29  C   LIG A   1      -9.377   5.363 129.917  0.00  0.00    +0.179 C 
ATOM     30  C   LIG A   1      -9.850   4.089 130.623  0.00  0.00    +0.174 C 
ATOM     31  C   LIG A   1      -8.860   3.677 131.723  0.00  0.00    +0.149 C 
ATOM     32  O   LIG A   1      -8.578   4.764 132.622  0.00  0.00    -0.343 OA
ATOM     33  C   LIG A   1      -9.419   2.537 132.569  0.00  0.00    +0.040 C 
BRANCH  28  34
ATOM     34  O   LIG A   1     -10.226   6.888 131.575  0.00  0.00    -0.384 OA
ATOM     35  H   LIG A   1     -10.896   7.022 130.875  0.00  0.00    +0.210 HD
ENDBRANCH  28  34
BRANCH  29  36
ATOM     36  O   LIG A   1     -10.438   5.819 129.059  0.00  0.00    -0.386 OA
ATOM     37  H   LIG A   1     -11.247   5.817 129.614  0.00  0.00    +0.210 HD
ENDBRANCH  29  36
BRANCH  30  38
ATOM     38  O   LIG A   1     -10.006   3.043 129.660  0.00  0.00    -0.387 OA
ATOM     39  H   LIG A   1      -9.824   2.211 130.142  0.00  0.00    +0.210 HD
ENDBRANCH  30  38
ENDBRANCH  26  27
ENDBRANCH   1  26
TORSDOF 10
ENDMDL
MODEL 9
REMARK VINA RESULT:      -7.0      2.679      6.736
REMARK  Name = NuBBE_1374
REMARK  11 active torsions:
REMARK  status: ('A' for Active; 'I' for Inactive)
REMARK    1  A    between atoms: O_1  and  C_2
REMARK    2  A    between atoms: O_1  and  C_17
REMARK    3  A    between atoms: C_4  and  O_6
REMARK    4  A    between atoms: C_7  and  O_9
REMARK    5  A    between atoms: C_10  and  O_16
REMARK    6  A    between atoms: C_12  and  C_15
REMARK    7  A    between atoms: C_19  and  C_32
REMARK    8  A    between atoms: C_26  and  O_27
REMARK    9  A    between atoms: C_29  and  O_31
REMARK   10  A    between atoms: C_34  and  O_35
REMARK   11  A    between atoms: C_36  and  O_39
REMARK                            x       y       z     vdW  Elec       q    Type
REMARK                         _______ _______ _______ _____ _____    ______ ____
ROOT
ATOM      1  C   LIG A   1      -8.168   3.507 129.374  0.00  0.00    +0.237 C 
ATOM      2  C   LIG A   1      -7.352   2.983 128.175  0.00  0.00    +0.240 C 
ATOM      3  O   LIG A   1      -6.253   2.169 128.637  0.00  0.00    -0.480 OA
ATOM      4  C   LIG A   1      -6.631   1.125 129.437  0.00  0.00    +0.139 A 
ATOM      5  C   LIG A   1      -7.831   1.091 130.150  0.00  0.00    +0.103 A 
ATOM      6  C   LIG A   1      -8.699   2.289 130.132  0.00  0.00    +0.203 C 
ATOM      7  O   LIG A   1      -9.767   2.262 130.739  0.00  0.00    -0.289 OA
ATOM      8  C   LIG A   1      -8.173  -0.061 130.869  0.00  0.00    +0.134 A 
ATOM      9  C   LIG A   1      -7.310  -1.156 130.903  0.00  0.00    +0.091 A 
ATOM     10  C   LIG A   1      -6.095  -1.084 130.228  0.00  0.00    +0.124 A 
ATOM     11  C   LIG A   1      -5.745   0.051 129.504  0.00  0.00    +0.092 A 
ENDROOT
BRANCH   2  12
ATOM     12  C   LIG A   1      -8.101   2.297 127.028  0.00  0.00    -0.001 A 
ATOM     13  C   LIG A   1      -8.243   2.986 125.806  0.00  0.00    +0.056 A 
ATOM     14  C   LIG A   1      -8.943   2.404 124.754  0.00  0.00    +0.159 A 
ATOM     15  C   LIG A   1      -9.521   1.147 124.900  0.00  0.00    +0.158 A 
ATOM     16  C   LIG A   1      -9.398   0.450 126.088  0.00  0.00    +0.049 A 
ATOM     17  C   LIG A   1      -8.688   1.021 127.146  0.00  0.00    +0.011 A 
BRANCH  14  18
ATOM     18  O   LIG A   1      -9.093   3.032 123.549  0.00  0.00    -0.503 OA
ATOM     19  H   LIG A   1      -8.387   3.696 123.462  0.00  0.00    +0.292 HD
ENDBRANCH  14  18
BRANCH  15  20
ATOM     20  O   LIG A   1     -10.216   0.587 123.870  0.00  0.00    -0.503 OA
ATOM     21  H   LIG A   1     -10.681   1.337 123.449  0.00  0.00    +0.292 HD
ENDBRANCH  15  20
ENDBRANCH   2  12
BRANCH   8  22
ATOM     22  O   LIG A   1      -9.346  -0.187 131.562  0.00  0.00    -0.506 OA
ATOM     23  H   LIG A   1      -9.499   0.644 132.066  0.00  0.00    +0.292 HD
ENDBRANCH   8  22
BRANCH  10  24
ATOM     24  O   LIG A   1      -5.211  -2.123 130.239  0.00  0.00    -0.506 OA
ATOM     25  H   LIG A   1      -5.268  -2.576 131.098  0.00  0.00    +0.292 HD
ENDBRANCH  10  24
BRANCH   1  26
ATOM     26  O   LIG A   1      -9.234   4.406 129.041  0.00  0.00    -0.334 OA
BRANCH  26  27
ATOM     27  C   LIG A   1      -8.966   5.777 129.304  0.00  0.00    +0.283 C 
ATOM     28  C   LIG A   1     -10.136   6.675 128.854  0.00  0.00    +0.201 C 
ATOM     29  C   LIG A   1     -11.371   6.409 129.716  0.00  0.00    +0.179 C 
ATOM     30  C   LIG A   1     -11.038   6.523 131.206  0.00  0.00    +0.174 C 
ATOM     31  C   LIG A   1      -9.788   5.699 131.548  0.00  0.00    +0.149 C 
ATOM     32  O   LIG A   1      -8.683   6.019 130.684  0.00  0.00    -0.343 OA
ATOM     33  C   LIG A   1      -9.325   5.968 132.977  0.00  0.00    +0.040 C 
BRANCH  28  34
ATOM     34  O   LIG A   1      -9.789   8.072 128.987  0.00  0.00    -0.384 OA
ATOM     35  H   LIG A   1      -9.138   8.142 129.713  0.00  0.00    +0.210 HD
ENDBRANCH  28  34
BRANCH  29  36
ATOM     36  O   LIG A   1     -12.404   7.364 129.414  0.00  0.00    -0.386 OA
ATOM     37  H   LIG A   1     -12.536   7.881 130.237  0.00  0.00    +0.210 HD
ENDBRANCH  29  36
BRANCH  30  38
ATOM     38  O   LIG A   1     -12.161   6.090 131.977  0.00  0.00    -0.387 OA
ATOM     39  H   LIG A   1     -11.953   6.328 132.904  0.00  0.00    +0.210 HD
ENDBRANCH  30  38
ENDBRANCH  26  27
ENDBRANCH   1  26
TORSDOF 10
ENDMDL
