MODEL 1
REMARK VINA RESULT:      -6.7      0.000      0.000
REMARK  Name = NuBBE_937
REMARK  4 active torsions:
REMARK  status: ('A' for Active; 'I' for Inactive)
REMARK    1  A    between atoms: O_1  and  C_2
REMARK    2  A    between atoms: O_1  and  C_3
REMARK    3  A    between atoms: C_12  and  O_13
REMARK    4  A    between atoms: O_13  and  C_14
REMARK                            x       y       z     vdW  Elec       q    Type
REMARK                         _______ _______ _______ _____ _____    ______ ____
ROOT
ATOM      1  C   LIG A   1      -9.208   5.978 132.301  0.00  0.00    +0.142 A 
ATOM      2  C   LIG A   1     -10.213   6.511 131.447  0.00  0.00    +0.046 A 
ATOM      3  C   LIG A   1      -9.828   7.285 130.319  0.00  0.00    +0.120 A 
ATOM      4  N   LIG A   1      -8.540   7.546 130.042  0.00  0.00    -0.208 NA
ATOM      5  C   LIG A   1      -7.632   7.008 130.857  0.00  0.00    +0.231 A 
ATOM      6  C   LIG A   1      -7.859   6.219 131.979  0.00  0.00    +0.082 A 
ATOM      7  C   LIG A   1      -6.566   5.871 132.461  0.00  0.00    +0.055 A 
ATOM      8  C   LIG A   1      -5.656   6.479 131.630  0.00  0.00    +0.198 A 
ATOM      9  O   LIG A   1      -6.295   7.171 130.657  0.00  0.00    -0.445 OA
ATOM     10  C   LIG A   1     -10.850   7.789 129.493  0.00  0.00    +0.146 A 
ATOM     11  C   LIG A   1     -12.205   7.578 129.789  0.00  0.00    +0.048 A 
ATOM     12  C   LIG A   1     -12.575   6.829 130.892  0.00  0.00    +0.004 A 
ATOM     13  C   LIG A   1     -11.586   6.296 131.709  0.00  0.00    +0.014 A 
ENDROOT
BRANCH   1  14
ATOM     14  O   LIG A   1      -9.648   5.172 133.343  0.00  0.00    -0.494 OA
ATOM     15  C   LIG A   1      -9.258   3.806 133.277  0.00  0.00    +0.277 C 
ENDBRANCH   1  14
BRANCH  10  16
ATOM     16  O   LIG A   1     -10.689   8.560 128.359  0.00  0.00    -0.493 OA
ATOM     17  C   LIG A   1     -10.864   7.909 127.106  0.00  0.00    +0.277 C 
ENDBRANCH  10  16
TORSDOF 2
ENDMDL
MODEL 2
REMARK VINA RESULT:      -6.4      1.852      4.844
REMARK  Name = NuBBE_937
REMARK  4 active torsions:
REMARK  status: ('A' for Active; 'I' for Inactive)
REMARK    1  A    between atoms: O_1  and  C_2
REMARK    2  A    between atoms: O_1  and  C_3
REMARK    3  A    between atoms: C_12  and  O_13
REMARK    4  A    between atoms: O_13  and  C_14
REMARK                            x       y       z     vdW  Elec       q    Type
REMARK                         _______ _______ _______ _____ _____    ______ ____
ROOT
ATOM      1  C   LIG A   1     -11.817   6.615 130.494  0.00  0.00    +0.142 A 
ATOM      2  C   LIG A   1     -10.503   6.330 130.956  0.00  0.00    +0.046 A 
ATOM      3  C   LIG A   1      -9.448   6.194 130.013  0.00  0.00    +0.120 A 
ATOM      4  N   LIG A   1      -9.656   6.309 128.692  0.00  0.00    -0.208 NA
ATOM      5  C   LIG A   1     -10.899   6.598 128.306  0.00  0.00    +0.231 A 
ATOM      6  C   LIG A   1     -12.019   6.778 129.111  0.00  0.00    +0.082 A 
ATOM      7  C   LIG A   1     -13.075   7.109 128.216  0.00  0.00    +0.055 A 
ATOM      8  C   LIG A   1     -12.543   7.087 126.948  0.00  0.00    +0.198 A 
ATOM      9  O   LIG A   1     -11.226   6.775 126.995  0.00  0.00    -0.445 OA
ATOM     10  C   LIG A   1      -8.159   5.919 130.510  0.00  0.00    +0.146 A 
ATOM     11  C   LIG A   1      -7.923   5.739 131.881  0.00  0.00    +0.048 A 
ATOM     12  C   LIG A   1      -8.955   5.866 132.795  0.00  0.00    +0.004 A 
ATOM     13  C   LIG A   1     -10.231   6.165 132.334  0.00  0.00    +0.014 A 
ENDROOT
BRANCH   1  14
ATOM     14  O   LIG A   1     -12.786   6.807 131.469  0.00  0.00    -0.494 OA
ATOM     15  C   LIG A   1     -13.140   8.158 131.736  0.00  0.00    +0.277 C 
ENDBRANCH   1  14
BRANCH  10  16
ATOM     16  O   LIG A   1      -7.009   5.749 129.766  0.00  0.00    -0.493 OA
ATOM     17  C   LIG A   1      -6.626   4.412 129.465  0.00  0.00    +0.277 C 
ENDBRANCH  10  16
TORSDOF 2
ENDMDL
MODEL 3
REMARK VINA RESULT:      -6.4      1.289      1.592
REMARK  Name = NuBBE_937
REMARK  4 active torsions:
REMARK  status: ('A' for Active; 'I' for Inactive)
REMARK    1  A    between atoms: O_1  and  C_2
REMARK    2  A    between atoms: O_1  and  C_3
REMARK    3  A    between atoms: C_12  and  O_13
REMARK    4  A    between atoms: O_13  and  C_14
REMARK                            x       y       z     vdW  Elec       q    Type
REMARK                         _______ _______ _______ _____ _____    ______ ____
ROOT
ATOM      1  C   LIG A   1      -7.741   5.799 132.848  0.00  0.00    +0.142 A 
ATOM      2  C   LIG A   1      -8.844   6.196 132.044  0.00  0.00    +0.046 A 
ATOM      3  C   LIG A   1      -8.607   6.935 130.853  0.00  0.00    +0.120 A 
ATOM      4  N   LIG A   1      -7.369   7.287 130.470  0.00  0.00    -0.208 NA
ATOM      5  C   LIG A   1      -6.364   6.875 131.243  0.00  0.00    +0.231 A 
ATOM      6  C   LIG A   1      -6.444   6.133 132.417  0.00  0.00    +0.082 A 
ATOM      7  C   LIG A   1      -5.095   5.923 132.820  0.00  0.00    +0.055 A 
ATOM      8  C   LIG A   1      -4.301   6.558 131.896  0.00  0.00    +0.198 A 
ATOM      9  O   LIG A   1      -5.063   7.138 130.938  0.00  0.00    -0.445 OA
ATOM     10  C   LIG A   1      -9.724   7.304 130.079  0.00  0.00    +0.146 A 
ATOM     11  C   LIG A   1     -11.031   6.997 130.484  0.00  0.00    +0.048 A 
ATOM     12  C   LIG A   1     -11.258   6.283 131.647  0.00  0.00    +0.004 A 
ATOM     13  C   LIG A   1     -10.172   5.881 132.415  0.00  0.00    +0.014 A 
ENDROOT
BRANCH   1  14
ATOM     14  O   LIG A   1      -8.035   5.018 133.958  0.00  0.00    -0.494 OA
ATOM     15  C   LIG A   1      -7.760   5.609 135.222  0.00  0.00    +0.277 C 
ENDBRANCH   1  14
BRANCH  10  16
ATOM     16  O   LIG A   1      -9.708   8.020 128.899  0.00  0.00    -0.493 OA
ATOM     17  C   LIG A   1     -10.968   8.407 128.363  0.00  0.00    +0.277 C 
ENDBRANCH  10  16
TORSDOF 2
ENDMDL
MODEL 4
REMARK VINA RESULT:      -6.2      1.446      4.748
REMARK  Name = NuBBE_937
REMARK  4 active torsions:
REMARK  status: ('A' for Active; 'I' for Inactive)
REMARK    1  A    between atoms: O_1  and  C_2
REMARK    2  A    between atoms: O_1  and  C_3
REMARK    3  A    between atoms: C_12  and  O_13
REMARK    4  A    between atoms: O_13  and  C_14
REMARK                            x       y       z     vdW  Elec       q    Type
REMARK                         _______ _______ _______ _____ _____    ______ ____
ROOT
ATOM      1  C   LIG A   1      -8.461   5.785 132.758  0.00  0.00    +0.142 A 
ATOM      2  C   LIG A   1      -7.117   6.102 132.421  0.00  0.00    +0.046 A 
ATOM      3  C   LIG A   1      -6.853   6.851 131.242  0.00  0.00    +0.120 A 
ATOM      4  N   LIG A   1      -7.836   7.255 130.422  0.00  0.00    -0.208 NA
ATOM      5  C   LIG A   1      -9.082   6.955 130.789  0.00  0.00    +0.231 A 
ATOM      6  C   LIG A   1      -9.490   6.251 131.917  0.00  0.00    +0.082 A 
ATOM      7  C   LIG A   1     -10.912   6.245 131.863  0.00  0.00    +0.055 A 
ATOM      8  C   LIG A   1     -11.268   6.912 130.715  0.00  0.00    +0.198 A 
ATOM      9  O   LIG A   1     -10.164   7.343 130.059  0.00  0.00    -0.445 OA
ATOM     10  C   LIG A   1      -5.510   7.151 130.946  0.00  0.00    +0.146 A 
ATOM     11  C   LIG A   1      -4.459   6.693 131.755  0.00  0.00    +0.048 A 
ATOM     12  C   LIG A   1      -4.720   5.959 132.899  0.00  0.00    +0.004 A 
ATOM     13  C   LIG A   1      -6.039   5.673 133.230  0.00  0.00    +0.014 A 
ENDROOT
BRANCH   1  14
ATOM     14  O   LIG A   1      -8.656   5.115 133.958  0.00  0.00    -0.494 OA
ATOM     15  C   LIG A   1      -9.093   3.766 133.852  0.00  0.00    +0.277 C 
ENDBRANCH   1  14
BRANCH  10  16
ATOM     16  O   LIG A   1      -5.045   7.859 129.856  0.00  0.00    -0.493 OA
ATOM     17  C   LIG A   1      -3.693   7.637 129.470  0.00  0.00    +0.277 C 
ENDBRANCH  10  16
TORSDOF 2
ENDMDL
MODEL 5
REMARK VINA RESULT:      -6.0      1.967      2.071
REMARK  Name = NuBBE_937
REMARK  4 active torsions:
REMARK  status: ('A' for Active; 'I' for Inactive)
REMARK    1  A    between atoms: O_1  and  C_2
REMARK    2  A    between atoms: O_1  and  C_3
REMARK    3  A    between atoms: C_12  and  O_13
REMARK    4  A    between atoms: O_13  and  C_14
REMARK                            x       y       z     vdW  Elec       q    Type
REMARK                         _______ _______ _______ _____ _____    ______ ____
ROOT
ATOM      1  C   LIG A   1      -9.702   5.408 131.234  0.00  0.00    +0.142 A 
ATOM      2  C   LIG A   1     -10.722   6.238 130.694  0.00  0.00    +0.046 A 
ATOM      3  C   LIG A   1     -10.694   6.564 129.311  0.00  0.00    +0.120 A 
ATOM      4  N   LIG A   1      -9.721   6.126 128.497  0.00  0.00    -0.208 NA
ATOM      5  C   LIG A   1      -8.797   5.334 129.042  0.00  0.00    +0.231 A 
ATOM      6  C   LIG A   1      -8.709   4.917 130.365  0.00  0.00    +0.082 A 
ATOM      7  C   LIG A   1      -7.577   4.056 130.413  0.00  0.00    +0.055 A 
ATOM      8  C   LIG A   1      -7.048   4.025 129.144  0.00  0.00    +0.198 A 
ATOM      9  O   LIG A   1      -7.781   4.799 128.309  0.00  0.00    -0.445 OA
ATOM     10  C   LIG A   1     -11.726   7.382 128.811  0.00  0.00    +0.146 A 
ATOM     11  C   LIG A   1     -12.725   7.898 129.650  0.00  0.00    +0.048 A 
ATOM     12  C   LIG A   1     -12.745   7.583 130.998  0.00  0.00    +0.004 A 
ATOM     13  C   LIG A   1     -11.755   6.754 131.511  0.00  0.00    +0.014 A 
ENDROOT
BRANCH   1  14
ATOM     14  O   LIG A   1      -9.826   5.068 132.574  0.00  0.00    -0.494 OA
ATOM     15  C   LIG A   1      -8.841   5.608 133.446  0.00  0.00    +0.277 C 
ENDBRANCH   1  14
BRANCH  10  16
ATOM     16  O   LIG A   1     -11.879   7.813 127.509  0.00  0.00    -0.493 OA
ATOM     17  C   LIG A   1     -12.668   7.000 126.648  0.00  0.00    +0.277 C 
ENDBRANCH  10  16
TORSDOF 2
ENDMDL
MODEL 6
REMARK VINA RESULT:      -5.8      9.259     10.635
REMARK  Name = NuBBE_937
REMARK  4 active torsions:
REMARK  status: ('A' for Active; 'I' for Inactive)
REMARK    1  A    between atoms: O_1  and  C_2
REMARK    2  A    between atoms: O_1  and  C_3
REMARK    3  A    between atoms: C_12  and  O_13
REMARK    4  A    between atoms: O_13  and  C_14
REMARK                            x       y       z     vdW  Elec       q    Type
REMARK                         _______ _______ _______ _____ _____    ______ ____
ROOT
ATOM      1  C   LIG A   1      -8.723  -1.812 125.165  0.00  0.00    +0.142 A 
ATOM      2  C   LIG A   1      -8.442  -2.336 126.456  0.00  0.00    +0.046 A 
ATOM      3  C   LIG A   1      -7.455  -1.707 127.262  0.00  0.00    +0.120 A 
ATOM      4  N   LIG A   1      -6.762  -0.640 126.834  0.00  0.00    -0.208 NA
ATOM      5  C   LIG A   1      -7.074  -0.170 125.625  0.00  0.00    +0.231 A 
ATOM      6  C   LIG A   1      -8.025  -0.666 124.740  0.00  0.00    +0.082 A 
ATOM      7  C   LIG A   1      -7.994   0.215 123.623  0.00  0.00    +0.055 A 
ATOM      8  C   LIG A   1      -7.029   1.158 123.888  0.00  0.00    +0.198 A 
ATOM      9  O   LIG A   1      -6.466   0.929 125.098  0.00  0.00    -0.445 OA
ATOM     10  C   LIG A   1      -7.209  -2.250 128.538  0.00  0.00    +0.146 A 
ATOM     11  C   LIG A   1      -7.879  -3.397 128.989  0.00  0.00    +0.048 A 
ATOM     12  C   LIG A   1      -8.835  -4.010 128.198  0.00  0.00    +0.004 A 
ATOM     13  C   LIG A   1      -9.117  -3.478 126.946  0.00  0.00    +0.014 A 
ENDROOT
BRANCH   1  14
ATOM     14  O   LIG A   1      -9.748  -2.428 124.458  0.00  0.00    -0.494 OA
ATOM     15  C   LIG A   1      -9.350  -3.192 123.327  0.00  0.00    +0.277 C 
ENDBRANCH   1  14
BRANCH  10  16
ATOM     16  O   LIG A   1      -6.296  -1.792 129.466  0.00  0.00    -0.493 OA
ATOM     17  C   LIG A   1      -5.035  -2.449 129.510  0.00  0.00    +0.277 C 
ENDBRANCH  10  16
TORSDOF 2
ENDMDL
MODEL 7
REMARK VINA RESULT:      -5.6      8.813      9.530
REMARK  Name = NuBBE_937
REMARK  4 active torsions:
REMARK  status: ('A' for Active; 'I' for Inactive)
REMARK    1  A    between atoms: O_1  and  C_2
REMARK    2  A    between atoms: O_1  and  C_3
REMARK    3  A    between atoms: C_12  and  O_13
REMARK    4  A    between atoms: O_13  and  C_14
REMARK                            x       y       z     vdW  Elec       q    Type
REMARK                         _______ _______ _______ _____ _____    ______ ____
ROOT
ATOM      1  C   LIG A   1      -8.098  -2.015 126.537  0.00  0.00    +0.142 A 
ATOM      2  C   LIG A   1      -8.108  -0.630 126.856  0.00  0.00    +0.046 A 
ATOM      3  C   LIG A   1      -8.610   0.300 125.905  0.00  0.00    +0.120 A 
ATOM      4  N   LIG A   1      -9.062  -0.088 124.702  0.00  0.00    -0.208 NA
ATOM      5  C   LIG A   1      -9.055  -1.398 124.455  0.00  0.00    +0.231 A 
ATOM      6  C   LIG A   1      -8.615  -2.419 125.291  0.00  0.00    +0.082 A 
ATOM      7  C   LIG A   1      -8.863  -3.624 124.575  0.00  0.00    +0.055 A 
ATOM      8  C   LIG A   1      -9.405  -3.262 123.365  0.00  0.00    +0.198 A 
ATOM      9  O   LIG A   1      -9.522  -1.915 123.284  0.00  0.00    -0.445 OA
ATOM     10  C   LIG A   1      -8.610   1.662 126.260  0.00  0.00    +0.146 A 
ATOM     11  C   LIG A   1      -8.093   2.101 127.488  0.00  0.00    +0.048 A 
ATOM     12  C   LIG A   1      -7.599   1.193 128.409  0.00  0.00    +0.004 A 
ATOM     13  C   LIG A   1      -7.614  -0.160 128.095  0.00  0.00    +0.014 A 
ENDROOT
BRANCH   1  14
ATOM     14  O   LIG A   1      -7.662  -2.876 127.535  0.00  0.00    -0.494 OA
ATOM     15  C   LIG A   1      -8.673  -3.645 128.176  0.00  0.00    +0.277 C 
ENDBRANCH   1  14
BRANCH  10  16
ATOM     16  O   LIG A   1      -9.050   2.716 125.485  0.00  0.00    -0.493 OA
ATOM     17  C   LIG A   1      -8.101   3.732 125.178  0.00  0.00    +0.277 C 
ENDBRANCH  10  16
TORSDOF 2
ENDMDL
MODEL 8
REMARK VINA RESULT:      -5.5      9.412     10.239
REMARK  Name = NuBBE_937
REMARK  4 active torsions:
REMARK  status: ('A' for Active; 'I' for Inactive)
REMARK    1  A    between atoms: O_1  and  C_2
REMARK    2  A    between atoms: O_1  and  C_3
REMARK    3  A    between atoms: C_12  and  O_13
REMARK    4  A    between atoms: O_13  and  C_14
REMARK                            x       y       z     vdW  Elec       q    Type
REMARK                         _______ _______ _______ _____ _____    ______ ____
ROOT
ATOM      1  C   LIG A   1      -6.803  -1.592 125.583  0.00  0.00    +0.142 A 
ATOM      2  C   LIG A   1      -6.527  -0.207 125.421  0.00  0.00    +0.046 A 
ATOM      3  C   LIG A   1      -7.279   0.547 124.481  0.00  0.00    +0.120 A 
ATOM      4  N   LIG A   1      -8.236  -0.012 123.724  0.00  0.00    -0.208 NA
ATOM      5  C   LIG A   1      -8.476  -1.309 123.925  0.00  0.00    +0.231 A 
ATOM      6  C   LIG A   1      -7.838  -2.162 124.818  0.00  0.00    +0.082 A 
ATOM      7  C   LIG A   1      -8.494  -3.417 124.672  0.00  0.00    +0.055 A 
ATOM      8  C   LIG A   1      -9.453  -3.252 123.701  0.00  0.00    +0.198 A 
ATOM      9  O   LIG A   1      -9.447  -1.978 123.243  0.00  0.00    -0.445 OA
ATOM     10  C   LIG A   1      -6.982   1.918 124.354  0.00  0.00    +0.146 A 
ATOM     11  C   LIG A   1      -5.950   2.516 125.093  0.00  0.00    +0.048 A 
ATOM     12  C   LIG A   1      -5.216   1.776 126.003  0.00  0.00    +0.004 A 
ATOM     13  C   LIG A   1      -5.508   0.428 126.168  0.00  0.00    +0.014 A 
ENDROOT
BRANCH   1  14
ATOM     14  O   LIG A   1      -6.083  -2.255 126.568  0.00  0.00    -0.494 OA
ATOM     15  C   LIG A   1      -6.772  -2.489 127.790  0.00  0.00    +0.277 C 
ENDBRANCH   1  14
BRANCH  10  16
ATOM     16  O   LIG A   1      -7.590   2.818 123.503  0.00  0.00    -0.493 OA
ATOM     17  C   LIG A   1      -6.872   3.187 122.332  0.00  0.00    +0.277 C 
ENDBRANCH  10  16
TORSDOF 2
ENDMDL
MODEL 9
REMARK VINA RESULT:      -5.4      9.118      9.807
REMARK  Name = NuBBE_937
REMARK  4 active torsions:
REMARK  status: ('A' for Active; 'I' for Inactive)
REMARK    1  A    between atoms: O_1  and  C_2
REMARK    2  A    between atoms: O_1  and  C_3
REMARK    3  A    between atoms: C_12  and  O_13
REMARK    4  A    between atoms: O_13  and  C_14
REMARK                            x       y       z     vdW  Elec       q    Type
REMARK                         _______ _______ _______ _____ _____    ______ ____
ROOT
ATOM      1  C   LIG A   1      -8.530  -1.092 124.573  0.00  0.00    +0.142 A 
ATOM      2  C   LIG A   1      -8.569   0.170 123.920  0.00  0.00    +0.046 A 
ATOM      3  C   LIG A   1      -7.502   1.088 124.115  0.00  0.00    +0.120 A 
ATOM      4  N   LIG A   1      -6.461   0.808 124.915  0.00  0.00    -0.208 NA
ATOM      5  C   LIG A   1      -6.456  -0.395 125.490  0.00  0.00    +0.231 A 
ATOM      6  C   LIG A   1      -7.414  -1.397 125.375  0.00  0.00    +0.082 A 
ATOM      7  C   LIG A   1      -6.913  -2.485 126.143  0.00  0.00    +0.055 A 
ATOM      8  C   LIG A   1      -5.718  -2.073 126.683  0.00  0.00    +0.198 A 
ATOM      9  O   LIG A   1      -5.435  -0.808 126.293  0.00  0.00    -0.445 OA
ATOM     10  C   LIG A   1      -7.573   2.324 123.445  0.00  0.00    +0.146 A 
ATOM     11  C   LIG A   1      -8.676   2.665 122.647  0.00  0.00    +0.048 A 
ATOM     12  C   LIG A   1      -9.715   1.770 122.465  0.00  0.00    +0.004 A 
ATOM     13  C   LIG A   1      -9.657   0.532 123.091  0.00  0.00    +0.014 A 
ENDROOT
BRANCH   1  14
ATOM     14  O   LIG A   1      -9.566  -1.971 124.284  0.00  0.00    -0.494 OA
ATOM     15  C   LIG A   1      -9.234  -3.066 123.440  0.00  0.00    +0.277 C 
ENDBRANCH   1  14
BRANCH  10  16
ATOM     16  O   LIG A   1      -6.648   3.347 123.504  0.00  0.00    -0.493 OA
ATOM     17  C   LIG A   1      -6.018   3.718 122.283  0.00  0.00    +0.277 C 
ENDBRANCH  10  16
TORSDOF 2
ENDMDL
