MODEL 1
REMARK VINA RESULT:      -8.1      0.000      0.000
REMARK  Name = NuBBE_2008
REMARK  5 active torsions:
REMARK  status: ('A' for Active; 'I' for Inactive)
REMARK    1  A    between atoms: O_1  and  C_2
REMARK    2  A    between atoms: C_7  and  C_8
REMARK    3  A    between atoms: C_16  and  O_17
REMARK    4  A    between atoms: C_18  and  C_19
REMARK    5  A    between atoms: C_20  and  O_21
REMARK                            x       y       z     vdW  Elec       q    Type
REMARK                         _______ _______ _______ _____ _____    ______ ____
ROOT
ATOM      1  C   LIG A   1     -13.485   7.919 128.674  0.00  0.00    +0.211 C 
ATOM      2  O   LIG A   1     -13.350   6.966 129.747  0.00  0.00    -0.483 OA
ATOM      3  C   LIG A   1     -12.527   7.585 127.536  0.00  0.00    +0.129 C 
ATOM      4  C   LIG A   1     -11.119   7.530 128.052  0.00  0.00    +0.174 C 
ATOM      5  C   LIG A   1     -10.933   7.072 129.440  0.00  0.00    +0.101 A 
ATOM      6  C   LIG A   1     -12.068   6.800 130.201  0.00  0.00    +0.139 A 
ATOM      7  C   LIG A   1     -11.933   6.306 131.498  0.00  0.00    +0.092 A 
ATOM      8  C   LIG A   1     -10.660   6.113 132.035  0.00  0.00    +0.127 A 
ATOM      9  C   LIG A   1      -9.504   6.380 131.290  0.00  0.00    +0.033 A 
ATOM     10  C   LIG A   1      -8.131   6.196 131.876  0.00  0.00    +0.051 C 
ATOM     11  C   LIG A   1      -9.656   6.874 129.985  0.00  0.00    +0.137 A 
ATOM     12  O   LIG A   1     -10.146   7.785 127.347  0.00  0.00    -0.292 OA
ENDROOT
BRANCH   1  18
ATOM     13  C   LIG A   1     -13.515  11.906 130.369  0.00  0.00    +0.117 A 
ATOM     14  C   LIG A   1     -13.137  10.817 131.142  0.00  0.00    +0.046 A 
ATOM     15  C   LIG A   1     -13.133   9.542 130.571  0.00  0.00    +0.011 A 
ATOM     16  C   LIG A   1     -13.887  11.738 129.042  0.00  0.00    +0.046 A 
ATOM     17  C   LIG A   1     -13.885  10.461 128.471  0.00  0.00    +0.011 A 
ATOM     18  C   LIG A   1     -13.500   9.342 129.225  0.00  0.00    -0.007 A 
BRANCH  13  19
ATOM     19  O   LIG A   1     -13.539  13.169 130.881  0.00  0.00    -0.507 OA
ATOM     20  H   LIG A   1     -12.698  13.606 130.668  0.00  0.00    +0.292 HD
ENDBRANCH  13  19
ENDBRANCH   1  18
BRANCH   8  21
ATOM     21  O   LIG A   1     -10.530   5.653 133.317  0.00  0.00    -0.506 OA
ATOM     22  H   LIG A   1     -10.647   6.391 133.936  0.00  0.00    +0.292 HD
ENDBRANCH   8  21
BRANCH  11  23
ATOM     23  O   LIG A   1      -8.515   7.144 129.268  0.00  0.00    -0.506 OA
ATOM     24  H   LIG A   1      -8.039   7.885 129.705  0.00  0.00    +0.292 HD
ENDBRANCH  11  23
TORSDOF 4
ENDMDL
MODEL 2
REMARK VINA RESULT:      -7.9      9.384     11.186
REMARK  Name = NuBBE_2008
REMARK  5 active torsions:
REMARK  status: ('A' for Active; 'I' for Inactive)
REMARK    1  A    between atoms: O_1  and  C_2
REMARK    2  A    between atoms: C_7  and  C_8
REMARK    3  A    between atoms: C_16  and  O_17
REMARK    4  A    between atoms: C_18  and  C_19
REMARK    5  A    between atoms: C_20  and  O_21
REMARK                            x       y       z     vdW  Elec       q    Type
REMARK                         _______ _______ _______ _____ _____    ______ ____
ROOT
ATOM      1  C   LIG A   1      -9.016   2.514 123.844  0.00  0.00    +0.211 C 
ATOM      2  O   LIG A   1      -8.183   2.006 124.905  0.00  0.00    -0.483 OA
ATOM      3  C   LIG A   1     -10.122   1.521 123.507  0.00  0.00    +0.129 C 
ATOM      4  C   LIG A   1      -9.523   0.191 123.150  0.00  0.00    +0.174 C 
ATOM      5  C   LIG A   1      -8.267  -0.179 123.825  0.00  0.00    +0.101 A 
ATOM      6  C   LIG A   1      -7.680   0.751 124.681  0.00  0.00    +0.139 A 
ATOM      7  C   LIG A   1      -6.525   0.416 125.384  0.00  0.00    +0.092 A 
ATOM      8  C   LIG A   1      -5.948  -0.843 125.208  0.00  0.00    +0.127 A 
ATOM      9  C   LIG A   1      -6.519  -1.795 124.353  0.00  0.00    +0.033 A 
ATOM     10  C   LIG A   1      -5.885  -3.142 124.142  0.00  0.00    +0.051 C 
ATOM     11  C   LIG A   1      -7.684  -1.444 123.653  0.00  0.00    +0.137 A 
ATOM     12  O   LIG A   1     -10.072  -0.598 122.385  0.00  0.00    -0.292 OA
ENDROOT
BRANCH   1  18
ATOM     13  C   LIG A   1      -6.472   4.110 120.720  0.00  0.00    +0.117 A 
ATOM     14  C   LIG A   1      -5.953   3.835 121.978  0.00  0.00    +0.046 A 
ATOM     15  C   LIG A   1      -6.793   3.317 122.967  0.00  0.00    +0.011 A 
ATOM     16  C   LIG A   1      -7.813   3.878 120.443  0.00  0.00    +0.046 A 
ATOM     17  C   LIG A   1      -8.654   3.362 121.433  0.00  0.00    +0.011 A 
ATOM     18  C   LIG A   1      -8.156   3.066 122.711  0.00  0.00    -0.007 A 
BRANCH  13  19
ATOM     19  O   LIG A   1      -5.695   4.618 119.723  0.00  0.00    -0.507 OA
ATOM     20  H   LIG A   1      -5.239   5.408 120.057  0.00  0.00    +0.292 HD
ENDBRANCH  13  19
ENDBRANCH   1  18
BRANCH   8  21
ATOM     21  O   LIG A   1      -4.800  -1.161 125.879  0.00  0.00    -0.506 OA
ATOM     22  H   LIG A   1      -4.439  -1.989 125.526  0.00  0.00    +0.292 HD
ENDBRANCH   8  21
BRANCH  11  23
ATOM     23  O   LIG A   1      -8.228  -2.380 122.808  0.00  0.00    -0.506 OA
ATOM     24  H   LIG A   1      -8.143  -3.266 123.226  0.00  0.00    +0.292 HD
ENDBRANCH  11  23
TORSDOF 4
ENDMDL
MODEL 3
REMARK VINA RESULT:      -7.6      9.286     12.095
REMARK  Name = NuBBE_2008
REMARK  5 active torsions:
REMARK  status: ('A' for Active; 'I' for Inactive)
REMARK    1  A    between atoms: O_1  and  C_2
REMARK    2  A    between atoms: C_7  and  C_8
REMARK    3  A    between atoms: C_16  and  O_17
REMARK    4  A    between atoms: C_18  and  C_19
REMARK    5  A    between atoms: C_20  and  O_21
REMARK                            x       y       z     vdW  Elec       q    Type
REMARK                         _______ _______ _______ _____ _____    ______ ____
ROOT
ATOM      1  C   LIG A   1      -7.702   1.850 124.883  0.00  0.00    +0.211 C 
ATOM      2  O   LIG A   1      -8.422   2.451 123.788  0.00  0.00    -0.483 OA
ATOM      3  C   LIG A   1      -6.786   2.871 125.548  0.00  0.00    +0.129 C 
ATOM      4  C   LIG A   1      -5.853   3.461 124.531  0.00  0.00    +0.174 C 
ATOM      5  C   LIG A   1      -6.361   3.591 123.154  0.00  0.00    +0.101 A 
ATOM      6  C   LIG A   1      -7.630   3.090 122.871  0.00  0.00    +0.139 A 
ATOM      7  C   LIG A   1      -8.170   3.248 121.595  0.00  0.00    +0.092 A 
ATOM      8  C   LIG A   1      -7.425   3.885 120.602  0.00  0.00    +0.127 A 
ATOM      9  C   LIG A   1      -6.146   4.396 120.863  0.00  0.00    +0.033 A 
ATOM     10  C   LIG A   1      -5.331   5.060 119.788  0.00  0.00    +0.051 C 
ATOM     11  C   LIG A   1      -5.617   4.232 122.153  0.00  0.00    +0.137 A 
ATOM     12  O   LIG A   1      -4.738   3.885 124.823  0.00  0.00    -0.292 OA
ENDROOT
BRANCH   1  18
ATOM     13  C   LIG A   1      -5.934  -1.948 123.778  0.00  0.00    +0.117 A 
ATOM     14  C   LIG A   1      -5.523  -1.290 124.929  0.00  0.00    +0.046 A 
ATOM     15  C   LIG A   1      -6.111  -0.069 125.265  0.00  0.00    +0.011 A 
ATOM     16  C   LIG A   1      -6.917  -1.402 122.963  0.00  0.00    +0.046 A 
ATOM     17  C   LIG A   1      -7.504  -0.179 123.299  0.00  0.00    +0.011 A 
ATOM     18  C   LIG A   1      -7.116   0.506 124.460  0.00  0.00    -0.007 A 
BRANCH  13  19
ATOM     19  O   LIG A   1      -5.389  -3.141 123.405  0.00  0.00    -0.507 OA
ATOM     20  H   LIG A   1      -5.114  -3.079 122.476  0.00  0.00    +0.292 HD
ENDBRANCH  13  19
ENDBRANCH   1  18
BRANCH   8  21
ATOM     21  O   LIG A   1      -7.946   4.016 119.345  0.00  0.00    -0.506 OA
ATOM     22  H   LIG A   1      -8.915   4.040 119.399  0.00  0.00    +0.292 HD
ENDBRANCH   8  21
BRANCH  11  23
ATOM     23  O   LIG A   1      -4.358   4.726 122.393  0.00  0.00    -0.506 OA
ATOM     24  H   LIG A   1      -4.315   5.650 122.060  0.00  0.00    +0.292 HD
ENDBRANCH  11  23
TORSDOF 4
ENDMDL
MODEL 4
REMARK VINA RESULT:      -7.4      2.741      7.127
REMARK  Name = NuBBE_2008
REMARK  5 active torsions:
REMARK  status: ('A' for Active; 'I' for Inactive)
REMARK    1  A    between atoms: O_1  and  C_2
REMARK    2  A    between atoms: C_7  and  C_8
REMARK    3  A    between atoms: C_16  and  O_17
REMARK    4  A    between atoms: C_18  and  C_19
REMARK    5  A    between atoms: C_20  and  O_21
REMARK                            x       y       z     vdW  Elec       q    Type
REMARK                         _______ _______ _______ _____ _____    ______ ____
ROOT
ATOM      1  C   LIG A   1      -8.159   5.018 133.109  0.00  0.00    +0.211 C 
ATOM      2  O   LIG A   1      -9.470   5.557 133.367  0.00  0.00    -0.483 OA
ATOM      3  C   LIG A   1      -7.245   6.085 132.518  0.00  0.00    +0.129 C 
ATOM      4  C   LIG A   1      -7.862   6.656 131.275  0.00  0.00    +0.174 C 
ATOM      5  C   LIG A   1      -9.334   6.719 131.228  0.00  0.00    +0.101 A 
ATOM      6  C   LIG A   1     -10.051   6.178 132.293  0.00  0.00    +0.139 A 
ATOM      7  C   LIG A   1     -11.441   6.273 132.314  0.00  0.00    +0.092 A 
ATOM      8  C   LIG A   1     -12.109   6.887 131.254  0.00  0.00    +0.127 A 
ATOM      9  C   LIG A   1     -11.410   7.438 130.171  0.00  0.00    +0.033 A 
ATOM     10  C   LIG A   1     -12.129   8.078 129.016  0.00  0.00    +0.051 C 
ATOM     11  C   LIG A   1     -10.010   7.338 130.165  0.00  0.00    +0.137 A 
ATOM     12  O   LIG A   1      -7.192   7.118 130.355  0.00  0.00    -0.292 OA
ENDROOT
BRANCH   1  18
ATOM     13  C   LIG A   1      -8.566   1.156 131.185  0.00  0.00    +0.117 A 
ATOM     14  C   LIG A   1      -9.476   1.559 132.152  0.00  0.00    +0.046 A 
ATOM     15  C   LIG A   1      -9.325   2.811 132.754  0.00  0.00    +0.011 A 
ATOM     16  C   LIG A   1      -7.512   1.982 130.817  0.00  0.00    +0.046 A 
ATOM     17  C   LIG A   1      -7.359   3.234 131.422  0.00  0.00    +0.011 A 
ATOM     18  C   LIG A   1      -8.268   3.672 132.397  0.00  0.00    -0.007 A 
BRANCH  13  19
ATOM     19  O   LIG A   1      -8.668  -0.055 130.569  0.00  0.00    -0.507 OA
ATOM     20  H   LIG A   1      -9.609  -0.254 130.431  0.00  0.00    +0.292 HD
ENDBRANCH  13  19
ENDBRANCH   1  18
BRANCH   8  21
ATOM     21  O   LIG A   1     -13.475   6.956 131.264  0.00  0.00    -0.506 OA
ATOM     22  H   LIG A   1     -13.842   6.060 131.197  0.00  0.00    +0.292 HD
ENDBRANCH   8  21
BRANCH  11  23
ATOM     23  O   LIG A   1      -9.336   7.870 129.093  0.00  0.00    -0.506 OA
ATOM     24  H   LIG A   1      -9.818   7.630 128.270  0.00  0.00    +0.292 HD
ENDBRANCH  11  23
TORSDOF 4
ENDMDL
MODEL 5
REMARK VINA RESULT:      -7.3      8.954     11.074
REMARK  Name = NuBBE_2008
REMARK  5 active torsions:
REMARK  status: ('A' for Active; 'I' for Inactive)
REMARK    1  A    between atoms: O_1  and  C_2
REMARK    2  A    between atoms: C_7  and  C_8
REMARK    3  A    between atoms: C_16  and  O_17
REMARK    4  A    between atoms: C_18  and  C_19
REMARK    5  A    between atoms: C_20  and  O_21
REMARK                            x       y       z     vdW  Elec       q    Type
REMARK                         _______ _______ _______ _____ _____    ______ ____
ROOT
ATOM      1  C   LIG A   1      -7.318   2.368 125.585  0.00  0.00    +0.211 C 
ATOM      2  O   LIG A   1      -6.325   1.345 125.799  0.00  0.00    -0.483 OA
ATOM      3  C   LIG A   1      -8.621   2.008 126.288  0.00  0.00    +0.129 C 
ATOM      4  C   LIG A   1      -9.101   0.666 125.819  0.00  0.00    +0.174 C 
ATOM      5  C   LIG A   1      -8.072  -0.320 125.446  0.00  0.00    +0.101 A 
ATOM      6  C   LIG A   1      -6.737   0.079 125.477  0.00  0.00    +0.139 A 
ATOM      7  C   LIG A   1      -5.730  -0.842 125.191  0.00  0.00    +0.092 A 
ATOM      8  C   LIG A   1      -6.068  -2.153 124.850  0.00  0.00    +0.127 A 
ATOM      9  C   LIG A   1      -7.403  -2.577 124.811  0.00  0.00    +0.033 A 
ATOM     10  C   LIG A   1      -7.770  -3.982 124.419  0.00  0.00    +0.051 C 
ATOM     11  C   LIG A   1      -8.405  -1.639 125.105  0.00  0.00    +0.137 A 
ATOM     12  O   LIG A   1     -10.290   0.357 125.802  0.00  0.00    -0.292 OA
ENDROOT
BRANCH   1  18
ATOM     13  C   LIG A   1      -7.321   3.544 121.414  0.00  0.00    +0.117 A 
ATOM     14  C   LIG A   1      -6.144   3.565 122.149  0.00  0.00    +0.046 A 
ATOM     15  C   LIG A   1      -6.168   3.177 123.491  0.00  0.00    +0.011 A 
ATOM     16  C   LIG A   1      -8.515   3.147 122.002  0.00  0.00    +0.046 A 
ATOM     17  C   LIG A   1      -8.540   2.761 123.345  0.00  0.00    +0.011 A 
ATOM     18  C   LIG A   1      -7.365   2.763 124.112  0.00  0.00    -0.007 A 
BRANCH  13  19
ATOM     19  O   LIG A   1      -7.350   3.915 120.103  0.00  0.00    -0.507 OA
ATOM     20  H   LIG A   1      -8.242   4.235 119.891  0.00  0.00    +0.292 HD
ENDBRANCH  13  19
ENDBRANCH   1  18
BRANCH   8  21
ATOM     21  O   LIG A   1      -5.080  -3.047 124.544  0.00  0.00    -0.506 OA
ATOM     22  H   LIG A   1      -4.399  -3.023 125.234  0.00  0.00    +0.292 HD
ENDBRANCH   8  21
BRANCH  11  23
ATOM     23  O   LIG A   1      -9.711  -2.063 125.051  0.00  0.00    -0.506 OA
ATOM     24  H   LIG A   1      -9.748  -3.000 125.346  0.00  0.00    +0.292 HD
ENDBRANCH  11  23
TORSDOF 4
ENDMDL
MODEL 6
REMARK VINA RESULT:      -7.0      9.922     12.440
REMARK  Name = NuBBE_2008
REMARK  5 active torsions:
REMARK  status: ('A' for Active; 'I' for Inactive)
REMARK    1  A    between atoms: O_1  and  C_2
REMARK    2  A    between atoms: C_7  and  C_8
REMARK    3  A    between atoms: C_16  and  O_17
REMARK    4  A    between atoms: C_18  and  C_19
REMARK    5  A    between atoms: C_20  and  O_21
REMARK                            x       y       z     vdW  Elec       q    Type
REMARK                         _______ _______ _______ _____ _____    ______ ____
ROOT
ATOM      1  C   LIG A   1      -6.675  -3.006 125.103  0.00  0.00    +0.211 C 
ATOM      2  O   LIG A   1      -6.017  -1.858 124.534  0.00  0.00    -0.483 OA
ATOM      3  C   LIG A   1      -7.723  -3.556 124.142  0.00  0.00    +0.129 C 
ATOM      4  C   LIG A   1      -8.704  -2.478 123.785  0.00  0.00    +0.174 C 
ATOM      5  C   LIG A   1      -8.193  -1.097 123.737  0.00  0.00    +0.101 A 
ATOM      6  C   LIG A   1      -6.866  -0.874 124.099  0.00  0.00    +0.139 A 
ATOM      7  C   LIG A   1      -6.327   0.409 124.008  0.00  0.00    +0.092 A 
ATOM      8  C   LIG A   1      -7.129   1.467 123.578  0.00  0.00    +0.127 A 
ATOM      9  C   LIG A   1      -8.466   1.267 123.208  0.00  0.00    +0.033 A 
ATOM     10  C   LIG A   1      -9.339   2.410 122.769  0.00  0.00    +0.051 C 
ATOM     11  C   LIG A   1      -8.994  -0.030 123.303  0.00  0.00    +0.137 A 
ATOM     12  O   LIG A   1      -9.869  -2.719 123.477  0.00  0.00    -0.292 OA
ENDROOT
BRANCH   1  18
ATOM     13  C   LIG A   1      -7.696  -2.153 129.227  0.00  0.00    +0.117 A 
ATOM     14  C   LIG A   1      -6.557  -1.603 128.656  0.00  0.00    +0.046 A 
ATOM     15  C   LIG A   1      -6.252  -1.890 127.324  0.00  0.00    +0.011 A 
ATOM     16  C   LIG A   1      -8.527  -2.984 128.486  0.00  0.00    +0.046 A 
ATOM     17  C   LIG A   1      -8.220  -3.274 127.154  0.00  0.00    +0.011 A 
ATOM     18  C   LIG A   1      -7.080  -2.726 126.547  0.00  0.00    -0.007 A 
BRANCH  13  19
ATOM     19  O   LIG A   1      -8.036  -1.905 130.523  0.00  0.00    -0.507 OA
ATOM     20  H   LIG A   1      -8.235  -0.959 130.616  0.00  0.00    +0.292 HD
ENDBRANCH  13  19
ENDBRANCH   1  18
BRANCH   8  21
ATOM     21  O   LIG A   1      -6.606   2.729 123.514  0.00  0.00    -0.506 OA
ATOM     22  H   LIG A   1      -5.653   2.674 123.343  0.00  0.00    +0.292 HD
ENDBRANCH   8  21
BRANCH  11  23
ATOM     23  O   LIG A   1     -10.309  -0.212 122.950  0.00  0.00    -0.506 OA
ATOM     24  H   LIG A   1     -10.864  -0.130 123.758  0.00  0.00    +0.292 HD
ENDBRANCH  11  23
TORSDOF 4
ENDMDL
MODEL 7
REMARK VINA RESULT:      -6.9      9.034     11.968
REMARK  Name = NuBBE_2008
REMARK  5 active torsions:
REMARK  status: ('A' for Active; 'I' for Inactive)
REMARK    1  A    between atoms: O_1  and  C_2
REMARK    2  A    between atoms: C_7  and  C_8
REMARK    3  A    between atoms: C_16  and  O_17
REMARK    4  A    between atoms: C_18  and  C_19
REMARK    5  A    between atoms: C_20  and  O_21
REMARK                            x       y       z     vdW  Elec       q    Type
REMARK                         _______ _______ _______ _____ _____    ______ ____
ROOT
ATOM      1  C   LIG A   1      -8.751  -0.466 124.026  0.00  0.00    +0.211 C 
ATOM      2  O   LIG A   1      -8.563   0.761 123.293  0.00  0.00    -0.483 OA
ATOM      3  C   LIG A   1      -9.337  -0.183 125.405  0.00  0.00    +0.129 C 
ATOM      4  C   LIG A   1      -8.453   0.775 126.149  0.00  0.00    +0.174 C 
ATOM      5  C   LIG A   1      -7.725   1.774 125.347  0.00  0.00    +0.101 A 
ATOM      6  C   LIG A   1      -7.841   1.716 123.960  0.00  0.00    +0.139 A 
ATOM      7  C   LIG A   1      -7.217   2.680 123.170  0.00  0.00    +0.092 A 
ATOM      8  C   LIG A   1      -6.460   3.685 123.773  0.00  0.00    +0.127 A 
ATOM      9  C   LIG A   1      -6.328   3.764 125.166  0.00  0.00    +0.033 A 
ATOM     10  C   LIG A   1      -5.491   4.831 125.817  0.00  0.00    +0.051 C 
ATOM     11  C   LIG A   1      -6.964   2.788 125.949  0.00  0.00    +0.137 A 
ATOM     12  O   LIG A   1      -8.376   0.788 127.375  0.00  0.00    -0.292 OA
ENDROOT
BRANCH   1  18
ATOM     13  C   LIG A   1      -5.228  -2.951 123.596  0.00  0.00    +0.117 A 
ATOM     14  C   LIG A   1      -5.752  -2.279 122.500  0.00  0.00    +0.046 A 
ATOM     15  C   LIG A   1      -6.887  -1.481 122.666  0.00  0.00    +0.011 A 
ATOM     16  C   LIG A   1      -5.821  -2.837 124.846  0.00  0.00    +0.046 A 
ATOM     17  C   LIG A   1      -6.958  -2.041 125.011  0.00  0.00    +0.011 A 
ATOM     18  C   LIG A   1      -7.507  -1.343 123.925  0.00  0.00    -0.007 A 
BRANCH  13  19
ATOM     19  O   LIG A   1      -4.124  -3.743 123.485  0.00  0.00    -0.507 OA
ATOM     20  H   LIG A   1      -3.464  -3.281 122.944  0.00  0.00    +0.292 HD
ENDBRANCH  13  19
ENDBRANCH   1  18
BRANCH   8  21
ATOM     21  O   LIG A   1      -5.828   4.614 122.995  0.00  0.00    -0.506 OA
ATOM     22  H   LIG A   1      -5.074   4.984 123.482  0.00  0.00    +0.292 HD
ENDBRANCH   8  21
BRANCH  11  23
ATOM     23  O   LIG A   1      -6.817   2.868 127.312  0.00  0.00    -0.506 OA
ATOM     24  H   LIG A   1      -6.463   3.757 127.537  0.00  0.00    +0.292 HD
ENDBRANCH  11  23
TORSDOF 4
ENDMDL
MODEL 8
REMARK VINA RESULT:      -6.9      8.866     11.631
REMARK  Name = NuBBE_2008
REMARK  5 active torsions:
REMARK  status: ('A' for Active; 'I' for Inactive)
REMARK    1  A    between atoms: O_1  and  C_2
REMARK    2  A    between atoms: C_7  and  C_8
REMARK    3  A    between atoms: C_16  and  O_17
REMARK    4  A    between atoms: C_18  and  C_19
REMARK    5  A    between atoms: C_20  and  O_21
REMARK                            x       y       z     vdW  Elec       q    Type
REMARK                         _______ _______ _______ _____ _____    ______ ____
ROOT
ATOM      1  C   LIG A   1      -7.239  -1.896 124.321  0.00  0.00    +0.211 C 
ATOM      2  O   LIG A   1      -6.256  -0.842 124.342  0.00  0.00    -0.483 OA
ATOM      3  C   LIG A   1      -8.392  -1.539 123.391  0.00  0.00    +0.129 C 
ATOM      4  C   LIG A   1      -8.996  -0.229 123.806  0.00  0.00    +0.174 C 
ATOM      5  C   LIG A   1      -8.090   0.765 124.407  0.00  0.00    +0.101 A 
ATOM      6  C   LIG A   1      -6.762   0.400 124.622  0.00  0.00    +0.139 A 
ATOM      7  C   LIG A   1      -5.860   1.333 125.131  0.00  0.00    +0.092 A 
ATOM      8  C   LIG A   1      -6.298   2.619 125.447  0.00  0.00    +0.127 A 
ATOM      9  C   LIG A   1      -7.628   3.009 125.240  0.00  0.00    +0.033 A 
ATOM     10  C   LIG A   1      -8.108   4.388 125.602  0.00  0.00    +0.051 C 
ATOM     11  C   LIG A   1      -8.525   2.061 124.724  0.00  0.00    +0.137 A 
ATOM     12  O   LIG A   1     -10.175   0.050 123.602  0.00  0.00    -0.292 OA
ENDROOT
BRANCH   1  18
ATOM     13  C   LIG A   1      -8.013  -3.157 128.394  0.00  0.00    +0.117 A 
ATOM     14  C   LIG A   1      -6.878  -2.416 128.091  0.00  0.00    +0.046 A 
ATOM     15  C   LIG A   1      -6.653  -2.019 126.771  0.00  0.00    +0.011 A 
ATOM     16  C   LIG A   1      -8.917  -3.504 127.400  0.00  0.00    +0.046 A 
ATOM     17  C   LIG A   1      -8.691  -3.109 126.078  0.00  0.00    +0.011 A 
ATOM     18  C   LIG A   1      -7.558  -2.353 125.742  0.00  0.00    -0.007 A 
BRANCH  13  19
ATOM     19  O   LIG A   1      -8.275  -3.570 129.666  0.00  0.00    -0.507 OA
ATOM     20  H   LIG A   1      -7.661  -4.287 129.892  0.00  0.00    +0.292 HD
ENDBRANCH  13  19
ENDBRANCH   1  18
BRANCH   8  21
ATOM     21  O   LIG A   1      -5.417   3.524 125.971  0.00  0.00    -0.506 OA
ATOM     22  H   LIG A   1      -5.851   4.022 126.681  0.00  0.00    +0.292 HD
ENDBRANCH   8  21
BRANCH  11  23
ATOM     23  O   LIG A   1      -9.828   2.451 124.537  0.00  0.00    -0.506 OA
ATOM     24  H   LIG A   1     -10.333   1.690 124.172  0.00  0.00    +0.292 HD
ENDBRANCH  11  23
TORSDOF 4
ENDMDL
MODEL 9
REMARK VINA RESULT:      -6.9      9.197     11.646
REMARK  Name = NuBBE_2008
REMARK  5 active torsions:
REMARK  status: ('A' for Active; 'I' for Inactive)
REMARK    1  A    between atoms: O_1  and  C_2
REMARK    2  A    between atoms: C_7  and  C_8
REMARK    3  A    between atoms: C_16  and  O_17
REMARK    4  A    between atoms: C_18  and  C_19
REMARK    5  A    between atoms: C_20  and  O_21
REMARK                            x       y       z     vdW  Elec       q    Type
REMARK                         _______ _______ _______ _____ _____    ______ ____
ROOT
ATOM      1  C   LIG A   1      -6.779  -2.400 129.170  0.00  0.00    +0.211 C 
ATOM      2  O   LIG A   1      -6.052  -2.243 127.936  0.00  0.00    -0.483 OA
ATOM      3  C   LIG A   1      -7.688  -3.622 129.107  0.00  0.00    +0.129 C 
ATOM      4  C   LIG A   1      -8.614  -3.510 127.931  0.00  0.00    +0.174 C 
ATOM      5  C   LIG A   1      -8.103  -2.807 126.742  0.00  0.00    +0.101 A 
ATOM      6  C   LIG A   1      -6.837  -2.228 126.813  0.00  0.00    +0.139 A 
ATOM      7  C   LIG A   1      -6.293  -1.607 125.689  0.00  0.00    +0.092 A 
ATOM      8  C   LIG A   1      -7.032  -1.547 124.507  0.00  0.00    +0.127 A 
ATOM      9  C   LIG A   1      -8.307  -2.121 124.411  0.00  0.00    +0.033 A 
ATOM     10  C   LIG A   1      -9.114  -2.035 123.145  0.00  0.00    +0.051 C 
ATOM     11  C   LIG A   1      -8.840  -2.745 125.550  0.00  0.00    +0.137 A 
ATOM     12  O   LIG A   1      -9.727  -4.032 127.913  0.00  0.00    -0.292 OA
ENDROOT
BRANCH   1  18
ATOM     13  C   LIG A   1      -8.553   1.318 130.513  0.00  0.00    +0.117 A 
ATOM     14  C   LIG A   1      -8.735   0.150 131.240  0.00  0.00    +0.046 A 
ATOM     15  C   LIG A   1      -8.149  -1.035 130.788  0.00  0.00    +0.011 A 
ATOM     16  C   LIG A   1      -7.800   1.316 129.346  0.00  0.00    +0.046 A 
ATOM     17  C   LIG A   1      -7.216   0.129 128.892  0.00  0.00    +0.011 A 
ATOM     18  C   LIG A   1      -7.375  -1.066 129.610  0.00  0.00    -0.007 A 
BRANCH  13  19
ATOM     19  O   LIG A   1      -9.105   2.499 130.911  0.00  0.00    -0.507 OA
ATOM     20  H   LIG A   1      -8.727   3.215 130.374  0.00  0.00    +0.292 HD
ENDBRANCH  13  19
ENDBRANCH   1  18
BRANCH   8  21
ATOM     21  O   LIG A   1      -6.507  -0.915 123.414  0.00  0.00    -0.506 OA
ATOM     22  H   LIG A   1      -7.203  -0.788 122.750  0.00  0.00    +0.292 HD
ENDBRANCH   8  21
BRANCH  11  23
ATOM     23  O   LIG A   1     -10.095  -3.293 125.448  0.00  0.00    -0.506 OA
ATOM     24  H   LIG A   1     -10.752  -2.632 125.761  0.00  0.00    +0.292 HD
ENDBRANCH  11  23
TORSDOF 4
ENDMDL
