MODEL 1
REMARK VINA RESULT:      -5.6      0.000      0.000
REMARK  Name = NuBBE_2026
REMARK  3 active torsions:
REMARK  status: ('A' for Active; 'I' for Inactive)
REMARK    1  A    between atoms: C_1  and  C_2
REMARK    2  A    between atoms: C_3  and  C_4
REMARK    3  A    between atoms: C_3  and  C_5
REMARK                            x       y       z     vdW  Elec       q    Type
REMARK                         _______ _______ _______ _____ _____    ______ ____
ROOT
ATOM      1  C   LIG A   1     -10.267   8.804 128.469  0.00  0.00    +0.019 C 
ATOM      2  C   LIG A   1     -11.418   7.827 128.504  0.00  0.00    +0.032 C 
ATOM      3  C   LIG A   1     -12.748   8.299 129.154  0.00  0.00    -0.020 C 
ATOM      4  C   LIG A   1     -13.384   9.540 128.495  0.00  0.00    +0.012 C 
ATOM      5  C   LIG A   1     -12.656   8.604 130.662  0.00  0.00    +0.012 C 
ATOM      6  C   LIG A   1     -11.118   6.483 129.210  0.00  0.00    +0.015 C 
ATOM      7  C   LIG A   1     -12.527   5.899 129.456  0.00  0.00    +0.005 C 
ATOM      8  C   LIG A   1     -13.464   6.959 128.823  0.00  0.00    +0.003 C 
ATOM      9  C   LIG A   1     -13.333   6.825 127.285  0.00  0.00    +0.079 C 
ATOM     10  C   LIG A   1     -11.934   7.392 127.131  0.00  0.00    +0.140 C 
ATOM     11  O   LIG A   1     -11.320   7.456 126.077  0.00  0.00    -0.297 OA
ENDROOT
TORSDOF 0
ENDMDL
MODEL 2
REMARK VINA RESULT:      -5.6      1.948      3.313
REMARK  Name = NuBBE_2026
REMARK  3 active torsions:
REMARK  status: ('A' for Active; 'I' for Inactive)
REMARK    1  A    between atoms: C_1  and  C_2
REMARK    2  A    between atoms: C_3  and  C_4
REMARK    3  A    between atoms: C_3  and  C_5
REMARK                            x       y       z     vdW  Elec       q    Type
REMARK                         _______ _______ _______ _____ _____    ______ ____
ROOT
ATOM      1  C   LIG A   1     -11.997   5.298 129.633  0.00  0.00    +0.019 C 
ATOM      2  C   LIG A   1     -11.850   6.783 129.400  0.00  0.00    +0.032 C 
ATOM      3  C   LIG A   1     -12.383   7.361 128.060  0.00  0.00    -0.020 C 
ATOM      4  C   LIG A   1     -13.887   7.132 127.811  0.00  0.00    +0.012 C 
ATOM      5  C   LIG A   1     -11.649   6.855 126.803  0.00  0.00    +0.012 C 
ATOM      6  C   LIG A   1     -10.402   7.321 129.486  0.00  0.00    +0.015 C 
ATOM      7  C   LIG A   1     -10.509   8.709 128.815  0.00  0.00    +0.005 C 
ATOM      8  C   LIG A   1     -12.015   8.817 128.464  0.00  0.00    +0.003 C 
ATOM      9  C   LIG A   1     -12.778   9.050 129.791  0.00  0.00    +0.079 C 
ATOM     10  C   LIG A   1     -12.610   7.667 130.391  0.00  0.00    +0.140 C 
ATOM     11  O   LIG A   1     -12.998   7.336 131.502  0.00  0.00    -0.297 OA
ENDROOT
TORSDOF 0
ENDMDL
MODEL 3
REMARK VINA RESULT:      -5.3     10.209     11.464
REMARK  Name = NuBBE_2026
REMARK  3 active torsions:
REMARK  status: ('A' for Active; 'I' for Inactive)
REMARK    1  A    between atoms: C_1  and  C_2
REMARK    2  A    between atoms: C_3  and  C_4
REMARK    3  A    between atoms: C_3  and  C_5
REMARK                            x       y       z     vdW  Elec       q    Type
REMARK                         _______ _______ _______ _____ _____    ______ ____
ROOT
ATOM      1  C   LIG A   1      -7.356   0.077 123.905  0.00  0.00    +0.019 C 
ATOM      2  C   LIG A   1      -8.040  -1.238 124.195  0.00  0.00    +0.032 C 
ATOM      3  C   LIG A   1      -7.162  -2.414 124.704  0.00  0.00    -0.020 C 
ATOM      4  C   LIG A   1      -6.408  -2.134 126.019  0.00  0.00    +0.012 C 
ATOM      5  C   LIG A   1      -6.110  -2.916 123.695  0.00  0.00    +0.012 C 
ATOM      6  C   LIG A   1      -8.822  -1.847 123.007  0.00  0.00    +0.015 C 
ATOM      7  C   LIG A   1      -9.037  -3.311 123.449  0.00  0.00    +0.005 C 
ATOM      8  C   LIG A   1      -8.391  -3.354 124.857  0.00  0.00    +0.003 C 
ATOM      9  C   LIG A   1      -9.337  -2.593 125.818  0.00  0.00    +0.079 C 
ATOM     10  C   LIG A   1      -9.087  -1.186 125.311  0.00  0.00    +0.140 C 
ATOM     11  O   LIG A   1      -9.658  -0.185 125.717  0.00  0.00    -0.297 OA
ENDROOT
TORSDOF 0
ENDMDL
MODEL 4
REMARK VINA RESULT:      -5.2     10.513     11.881
REMARK  Name = NuBBE_2026
REMARK  3 active torsions:
REMARK  status: ('A' for Active; 'I' for Inactive)
REMARK    1  A    between atoms: C_1  and  C_2
REMARK    2  A    between atoms: C_3  and  C_4
REMARK    3  A    between atoms: C_3  and  C_5
REMARK                            x       y       z     vdW  Elec       q    Type
REMARK                         _______ _______ _______ _____ _____    ______ ____
ROOT
ATOM      1  C   LIG A   1      -8.829  -3.387 123.868  0.00  0.00    +0.019 C 
ATOM      2  C   LIG A   1      -7.861  -2.446 124.543  0.00  0.00    +0.032 C 
ATOM      3  C   LIG A   1      -6.432  -2.326 123.944  0.00  0.00    -0.020 C 
ATOM      4  C   LIG A   1      -6.384  -1.857 122.476  0.00  0.00    +0.012 C 
ATOM      5  C   LIG A   1      -5.592  -3.617 124.019  0.00  0.00    +0.012 C 
ATOM      6  C   LIG A   1      -7.611  -2.726 126.044  0.00  0.00    +0.015 C 
ATOM      7  C   LIG A   1      -6.325  -1.921 126.337  0.00  0.00    +0.005 C 
ATOM      8  C   LIG A   1      -6.017  -1.242 124.978  0.00  0.00    +0.003 C 
ATOM      9  C   LIG A   1      -7.058  -0.111 124.785  0.00  0.00    +0.079 C 
ATOM     10  C   LIG A   1      -8.278  -0.973 124.528  0.00  0.00    +0.140 C 
ATOM     11  O   LIG A   1      -9.412  -0.548 124.365  0.00  0.00    -0.297 OA
ENDROOT
TORSDOF 0
ENDMDL
MODEL 5
REMARK VINA RESULT:      -5.2     10.601     11.814
REMARK  Name = NuBBE_2026
REMARK  3 active torsions:
REMARK  status: ('A' for Active; 'I' for Inactive)
REMARK    1  A    between atoms: C_1  and  C_2
REMARK    2  A    between atoms: C_3  and  C_4
REMARK    3  A    between atoms: C_3  and  C_5
REMARK                            x       y       z     vdW  Elec       q    Type
REMARK                         _______ _______ _______ _____ _____    ______ ____
ROOT
ATOM      1  C   LIG A   1      -8.727  -0.710 125.514  0.00  0.00    +0.019 C 
ATOM      2  C   LIG A   1      -7.629  -1.446 124.786  0.00  0.00    +0.032 C 
ATOM      3  C   LIG A   1      -7.949  -2.862 124.233  0.00  0.00    -0.020 C 
ATOM      4  C   LIG A   1      -9.111  -2.910 123.220  0.00  0.00    +0.012 C 
ATOM      5  C   LIG A   1      -8.263  -3.919 125.310  0.00  0.00    +0.012 C 
ATOM      6  C   LIG A   1      -6.327  -1.651 125.598  0.00  0.00    +0.015 C 
ATOM      7  C   LIG A   1      -5.590  -2.747 124.796  0.00  0.00    +0.005 C 
ATOM      8  C   LIG A   1      -6.538  -3.007 123.598  0.00  0.00    +0.003 C 
ATOM      9  C   LIG A   1      -6.418  -1.789 122.648  0.00  0.00    +0.079 C 
ATOM     10  C   LIG A   1      -7.137  -0.766 123.506  0.00  0.00    +0.140 C 
ATOM     11  O   LIG A   1      -7.269   0.416 123.222  0.00  0.00    -0.297 OA
ENDROOT
TORSDOF 0
ENDMDL
MODEL 6
REMARK VINA RESULT:      -5.2     10.169     11.322
REMARK  Name = NuBBE_2026
REMARK  3 active torsions:
REMARK  status: ('A' for Active; 'I' for Inactive)
REMARK    1  A    between atoms: C_1  and  C_2
REMARK    2  A    between atoms: C_3  and  C_4
REMARK    3  A    between atoms: C_3  and  C_5
REMARK                            x       y       z     vdW  Elec       q    Type
REMARK                         _______ _______ _______ _____ _____    ______ ____
ROOT
ATOM      1  C   LIG A   1      -8.703   0.129 125.276  0.00  0.00    +0.019 C 
ATOM      2  C   LIG A   1      -8.244  -1.123 124.569  0.00  0.00    +0.032 C 
ATOM      3  C   LIG A   1      -8.172  -2.437 125.396  0.00  0.00    -0.020 C 
ATOM      4  C   LIG A   1      -9.510  -2.879 126.022  0.00  0.00    +0.012 C 
ATOM      5  C   LIG A   1      -7.138  -2.423 126.539  0.00  0.00    +0.012 C 
ATOM      6  C   LIG A   1      -6.850  -1.028 123.904  0.00  0.00    +0.015 C 
ATOM      7  C   LIG A   1      -6.487  -2.508 123.648  0.00  0.00    +0.005 C 
ATOM      8  C   LIG A   1      -7.736  -3.271 124.159  0.00  0.00    +0.003 C 
ATOM      9  C   LIG A   1      -8.866  -3.042 123.125  0.00  0.00    +0.079 C 
ATOM     10  C   LIG A   1      -9.147  -1.581 123.421  0.00  0.00    +0.140 C 
ATOM     11  O   LIG A   1      -9.948  -0.887 122.813  0.00  0.00    -0.297 OA
ENDROOT
TORSDOF 0
ENDMDL
MODEL 7
REMARK VINA RESULT:      -5.1     10.935     12.229
REMARK  Name = NuBBE_2026
REMARK  3 active torsions:
REMARK  status: ('A' for Active; 'I' for Inactive)
REMARK    1  A    between atoms: C_1  and  C_2
REMARK    2  A    between atoms: C_3  and  C_4
REMARK    3  A    between atoms: C_3  and  C_5
REMARK                            x       y       z     vdW  Elec       q    Type
REMARK                         _______ _______ _______ _____ _____    ______ ____
ROOT
ATOM      1  C   LIG A   1      -5.690  -0.860 125.450  0.00  0.00    +0.019 C 
ATOM      2  C   LIG A   1      -6.852  -1.676 124.939  0.00  0.00    +0.032 C 
ATOM      3  C   LIG A   1      -6.590  -2.643 123.751  0.00  0.00    -0.020 C 
ATOM      4  C   LIG A   1      -5.520  -3.720 124.019  0.00  0.00    +0.012 C 
ATOM      5  C   LIG A   1      -6.195  -1.951 122.432  0.00  0.00    +0.012 C 
ATOM      6  C   LIG A   1      -8.081  -0.855 124.484  0.00  0.00    +0.015 C 
ATOM      7  C   LIG A   1      -8.893  -1.876 123.656  0.00  0.00    +0.005 C 
ATOM      8  C   LIG A   1      -8.052  -3.173 123.772  0.00  0.00    +0.003 C 
ATOM      9  C   LIG A   1      -8.242  -3.713 125.211  0.00  0.00    +0.079 C 
ATOM     10  C   LIG A   1      -7.445  -2.658 125.953  0.00  0.00    +0.140 C 
ATOM     11  O   LIG A   1      -7.328  -2.596 127.168  0.00  0.00    -0.297 OA
ENDROOT
TORSDOF 0
ENDMDL
MODEL 8
REMARK VINA RESULT:      -5.0     10.331     11.589
REMARK  Name = NuBBE_2026
REMARK  3 active torsions:
REMARK  status: ('A' for Active; 'I' for Inactive)
REMARK    1  A    between atoms: C_1  and  C_2
REMARK    2  A    between atoms: C_3  and  C_4
REMARK    3  A    between atoms: C_3  and  C_5
REMARK                            x       y       z     vdW  Elec       q    Type
REMARK                         _______ _______ _______ _____ _____    ______ ____
ROOT
ATOM      1  C   LIG A   1      -9.129  -0.159 124.600  0.00  0.00    +0.019 C 
ATOM      2  C   LIG A   1      -8.426  -1.452 124.937  0.00  0.00    +0.032 C 
ATOM      3  C   LIG A   1      -8.215  -2.482 123.793  0.00  0.00    -0.020 C 
ATOM      4  C   LIG A   1      -7.394  -1.958 122.597  0.00  0.00    +0.012 C 
ATOM      5  C   LIG A   1      -9.514  -3.070 123.208  0.00  0.00    +0.012 C 
ATOM      6  C   LIG A   1      -9.083  -2.282 126.065  0.00  0.00    +0.015 C 
ATOM      7  C   LIG A   1      -8.428  -3.671 125.899  0.00  0.00    +0.005 C 
ATOM      8  C   LIG A   1      -7.441  -3.458 124.723  0.00  0.00    +0.003 C 
ATOM      9  C   LIG A   1      -6.259  -2.616 125.264  0.00  0.00    +0.079 C 
ATOM     10  C   LIG A   1      -6.982  -1.291 125.419  0.00  0.00    +0.140 C 
ATOM     11  O   LIG A   1      -6.486  -0.276 125.883  0.00  0.00    -0.297 OA
ENDROOT
TORSDOF 0
ENDMDL
MODEL 9
REMARK VINA RESULT:      -4.9     10.329     11.381
REMARK  Name = NuBBE_2026
REMARK  3 active torsions:
REMARK  status: ('A' for Active; 'I' for Inactive)
REMARK    1  A    between atoms: C_1  and  C_2
REMARK    2  A    between atoms: C_3  and  C_4
REMARK    3  A    between atoms: C_3  and  C_5
REMARK                            x       y       z     vdW  Elec       q    Type
REMARK                         _______ _______ _______ _____ _____    ______ ____
ROOT
ATOM      1  C   LIG A   1      -6.104  -0.885 124.993  0.00  0.00    +0.019 C 
ATOM      2  C   LIG A   1      -7.197  -1.883 125.288  0.00  0.00    +0.032 C 
ATOM      3  C   LIG A   1      -8.652  -1.501 124.897  0.00  0.00    -0.020 C 
ATOM      4  C   LIG A   1      -8.862  -1.211 123.398  0.00  0.00    +0.012 C 
ATOM      5  C   LIG A   1      -9.228  -0.293 125.662  0.00  0.00    +0.012 C 
ATOM      6  C   LIG A   1      -7.313  -2.311 126.771  0.00  0.00    +0.015 C 
ATOM      7  C   LIG A   1      -8.711  -2.965 126.834  0.00  0.00    +0.005 C 
ATOM      8  C   LIG A   1      -9.211  -2.873 125.370  0.00  0.00    +0.003 C 
ATOM      9  C   LIG A   1      -8.413  -3.915 124.547  0.00  0.00    +0.079 C 
ATOM     10  C   LIG A   1      -7.066  -3.217 124.550  0.00  0.00    +0.140 C 
ATOM     11  O   LIG A   1      -6.043  -3.674 124.062  0.00  0.00    -0.297 OA
ENDROOT
TORSDOF 0
ENDMDL
