MODEL 1
REMARK VINA RESULT:      -7.7      0.000      0.000
REMARK  Name = NuBBE_2344
REMARK  7 active torsions:
REMARK  status: ('A' for Active; 'I' for Inactive)
REMARK    1  A    between atoms: C_1  and  O_2
REMARK    2  A    between atoms: O_2  and  C_3
REMARK    3  A    between atoms: C_10  and  C_11
REMARK    4  A    between atoms: C_16  and  O_17
REMARK    5  A    between atoms: C_18  and  O_19
REMARK    6  A    between atoms: O_19  and  C_20
REMARK    7  A    between atoms: C_23  and  C_25
REMARK                            x       y       z     vdW  Elec       q    Type
REMARK                         _______ _______ _______ _____ _____    ______ ____
ROOT
ATOM      1  C   LIG A   1      -7.813   2.184 124.131  0.00  0.00    +0.211 C 
ATOM      2  O   LIG A   1      -8.932   1.257 124.086  0.00  0.00    -0.483 OA
ATOM      3  C   LIG A   1      -8.357   0.013 124.101  0.00  0.00    +0.129 A 
ATOM      4  C   LIG A   1      -9.038  -1.160 123.863  0.00  0.00    +0.095 A 
ATOM      5  C   LIG A   1      -8.298  -2.338 123.894  0.00  0.00    +0.162 A 
ATOM      6  C   LIG A   1      -6.912  -2.348 124.157  0.00  0.00    +0.162 A 
ATOM      7  C   LIG A   1      -6.253  -1.142 124.405  0.00  0.00    +0.057 A 
ATOM      8  C   LIG A   1      -6.998   0.028 124.382  0.00  0.00    +0.005 A 
ATOM      9  C   LIG A   1      -6.567   1.425 124.666  0.00  0.00    +0.065 C 
ATOM     10  C   LIG A   1      -6.353   1.631 126.164  0.00  0.00    +0.016 C 
ENDROOT
BRANCH   1  18
ATOM     11  C   LIG A   1      -6.172   3.831 121.061  0.00  0.00    +0.166 A 
ATOM     12  C   LIG A   1      -7.285   4.029 120.260  0.00  0.00    +0.207 A 
ATOM     13  O   LIG A   1      -7.331   4.579 119.014  0.00  0.00    -0.449 OA
ATOM     14  C   LIG A   1      -8.736   4.505 118.713  0.00  0.00    +0.467 C 
ATOM     15  O   LIG A   1      -9.513   3.924 119.774  0.00  0.00    -0.453 OA
ATOM     16  C   LIG A   1      -8.540   3.655 120.688  0.00  0.00    +0.170 A 
ATOM     17  C   LIG A   1      -8.765   3.071 121.917  0.00  0.00    +0.057 A 
ATOM     18  C   LIG A   1      -7.665   2.824 122.754  0.00  0.00    +0.000 A 
ATOM     19  C   LIG A   1      -6.381   3.226 122.312  0.00  0.00    +0.057 A 
BRANCH  11  21
ATOM     20  C   LIG A   1      -4.213   5.013 121.702  0.00  0.00    +0.277 C 
ATOM     21  O   LIG A   1      -4.873   4.146 120.789  0.00  0.00    -0.491 OA
ENDBRANCH  11  21
ENDBRANCH   1  18
BRANCH   5  22
ATOM     22  O   LIG A   1      -8.955  -3.517 123.657  0.00  0.00    -0.503 OA
ATOM     23  H   LIG A   1      -9.519  -3.340 122.879  0.00  0.00    +0.292 HD
ENDBRANCH   5  22
BRANCH   6  24
ATOM     24  O   LIG A   1      -6.334  -3.593 124.156  0.00  0.00    -0.491 OA
ATOM     25  C   LIG A   1      -4.946  -3.646 123.838  0.00  0.00    +0.277 C 
ENDBRANCH   6  24
TORSDOF 4
ENDMDL
MODEL 2
REMARK VINA RESULT:      -7.2      0.529      2.222
REMARK  Name = NuBBE_2344
REMARK  7 active torsions:
REMARK  status: ('A' for Active; 'I' for Inactive)
REMARK    1  A    between atoms: C_1  and  O_2
REMARK    2  A    between atoms: O_2  and  C_3
REMARK    3  A    between atoms: C_10  and  C_11
REMARK    4  A    between atoms: C_16  and  O_17
REMARK    5  A    between atoms: C_18  and  O_19
REMARK    6  A    between atoms: O_19  and  C_20
REMARK    7  A    between atoms: C_23  and  C_25
REMARK                            x       y       z     vdW  Elec       q    Type
REMARK                         _______ _______ _______ _____ _____    ______ ____
ROOT
ATOM      1  C   LIG A   1      -7.712   2.271 124.210  0.00  0.00    +0.211 C 
ATOM      2  O   LIG A   1      -8.856   1.384 124.066  0.00  0.00    -0.483 OA
ATOM      3  C   LIG A   1      -8.320   0.123 124.057  0.00  0.00    +0.129 A 
ATOM      4  C   LIG A   1      -9.023  -1.016 123.732  0.00  0.00    +0.095 A 
ATOM      5  C   LIG A   1      -8.323  -2.218 123.751  0.00  0.00    +0.162 A 
ATOM      6  C   LIG A   1      -6.954  -2.285 124.085  0.00  0.00    +0.162 A 
ATOM      7  C   LIG A   1      -6.272  -1.113 124.419  0.00  0.00    +0.057 A 
ATOM      8  C   LIG A   1      -6.979   0.081 124.409  0.00  0.00    +0.005 A 
ATOM      9  C   LIG A   1      -6.521   1.450 124.776  0.00  0.00    +0.065 C 
ATOM     10  C   LIG A   1      -6.382   1.585 126.291  0.00  0.00    +0.016 C 
ENDROOT
BRANCH   1  18
ATOM     11  C   LIG A   1      -8.389   3.692 120.696  0.00  0.00    +0.166 A 
ATOM     12  C   LIG A   1      -7.135   4.189 120.381  0.00  0.00    +0.207 A 
ATOM     13  O   LIG A   1      -6.751   4.830 119.242  0.00  0.00    -0.449 OA
ATOM     14  C   LIG A   1      -5.363   5.097 119.511  0.00  0.00    +0.467 C 
ATOM     15  O   LIG A   1      -4.929   4.611 120.792  0.00  0.00    -0.453 OA
ATOM     16  C   LIG A   1      -6.085   4.067 121.266  0.00  0.00    +0.170 A 
ATOM     17  C   LIG A   1      -6.213   3.457 122.496  0.00  0.00    +0.057 A 
ATOM     18  C   LIG A   1      -7.471   2.963 122.872  0.00  0.00    +0.000 A 
ATOM     19  C   LIG A   1      -8.540   3.078 121.951  0.00  0.00    +0.057 A 
BRANCH  11  21
ATOM     20  C   LIG A   1      -9.491   4.526 118.762  0.00  0.00    +0.277 C 
ATOM     21  O   LIG A   1      -9.522   3.726 119.937  0.00  0.00    -0.491 OA
ENDBRANCH  11  21
ENDBRANCH   1  18
BRANCH   5  22
ATOM     22  O   LIG A   1      -9.002  -3.364 123.427  0.00  0.00    -0.503 OA
ATOM     23  H   LIG A   1      -9.898  -3.065 123.176  0.00  0.00    +0.292 HD
ENDBRANCH   5  22
BRANCH   6  24
ATOM     24  O   LIG A   1      -6.415  -3.548 124.059  0.00  0.00    -0.491 OA
ATOM     25  C   LIG A   1      -4.994  -3.628 123.995  0.00  0.00    +0.277 C 
ENDBRANCH   6  24
TORSDOF 4
ENDMDL
MODEL 3
REMARK VINA RESULT:      -7.1      2.817      7.656
REMARK  Name = NuBBE_2344
REMARK  7 active torsions:
REMARK  status: ('A' for Active; 'I' for Inactive)
REMARK    1  A    between atoms: C_1  and  O_2
REMARK    2  A    between atoms: O_2  and  C_3
REMARK    3  A    between atoms: C_10  and  C_11
REMARK    4  A    between atoms: C_16  and  O_17
REMARK    5  A    between atoms: C_18  and  O_19
REMARK    6  A    between atoms: O_19  and  C_20
REMARK    7  A    between atoms: C_23  and  C_25
REMARK                            x       y       z     vdW  Elec       q    Type
REMARK                         _______ _______ _______ _____ _____    ______ ____
ROOT
ATOM      1  C   LIG A   1      -9.409   0.916 125.045  0.00  0.00    +0.211 C 
ATOM      2  O   LIG A   1      -9.351   2.230 125.666  0.00  0.00    -0.483 OA
ATOM      3  C   LIG A   1      -8.364   2.894 124.987  0.00  0.00    +0.129 A 
ATOM      4  C   LIG A   1      -7.830   4.102 125.378  0.00  0.00    +0.095 A 
ATOM      5  C   LIG A   1      -6.816   4.631 124.587  0.00  0.00    +0.162 A 
ATOM      6  C   LIG A   1      -6.343   3.974 123.432  0.00  0.00    +0.162 A 
ATOM      7  C   LIG A   1      -6.912   2.755 123.056  0.00  0.00    +0.057 A 
ATOM      8  C   LIG A   1      -7.930   2.238 123.844  0.00  0.00    +0.005 A 
ATOM      9  C   LIG A   1      -8.741   1.004 123.645  0.00  0.00    +0.065 C 
ATOM     10  C   LIG A   1      -9.757   1.201 122.521  0.00  0.00    +0.016 C 
ENDROOT
BRANCH   1  18
ATOM     11  C   LIG A   1      -8.374  -2.468 126.564  0.00  0.00    +0.166 A 
ATOM     12  C   LIG A   1      -7.754  -2.040 127.726  0.00  0.00    +0.207 A 
ATOM     13  O   LIG A   1      -7.166  -2.804 128.689  0.00  0.00    -0.449 OA
ATOM     14  C   LIG A   1      -6.708  -1.803 129.616  0.00  0.00    +0.467 C 
ATOM     15  O   LIG A   1      -7.030  -0.462 129.210  0.00  0.00    -0.453 OA
ATOM     16  C   LIG A   1      -7.672  -0.699 128.031  0.00  0.00    +0.170 A 
ATOM     17  C   LIG A   1      -8.191   0.285 127.215  0.00  0.00    +0.057 A 
ATOM     18  C   LIG A   1      -8.804  -0.097 126.012  0.00  0.00    +0.000 A 
ATOM     19  C   LIG A   1      -8.898  -1.478 125.714  0.00  0.00    +0.057 A 
BRANCH  11  21
ATOM     20  C   LIG A   1      -8.183  -4.017 124.772  0.00  0.00    +0.277 C 
ATOM     21  O   LIG A   1      -8.543  -3.747 126.121  0.00  0.00    -0.491 OA
ENDBRANCH  11  21
ENDBRANCH   1  18
BRANCH   5  22
ATOM     22  O   LIG A   1      -6.268   5.832 124.960  0.00  0.00    -0.503 OA
ATOM     23  H   LIG A   1      -5.359   5.816 124.602  0.00  0.00    +0.292 HD
ENDBRANCH   5  22
BRANCH   6  24
ATOM     24  O   LIG A   1      -5.341   4.632 122.762  0.00  0.00    -0.491 OA
ATOM     25  C   LIG A   1      -5.217   4.348 121.372  0.00  0.00    +0.277 C 
ENDBRANCH   6  24
TORSDOF 4
ENDMDL
MODEL 4
REMARK VINA RESULT:      -6.9      2.654      6.620
REMARK  Name = NuBBE_2344
REMARK  7 active torsions:
REMARK  status: ('A' for Active; 'I' for Inactive)
REMARK    1  A    between atoms: C_1  and  O_2
REMARK    2  A    between atoms: O_2  and  C_3
REMARK    3  A    between atoms: C_10  and  C_11
REMARK    4  A    between atoms: C_16  and  O_17
REMARK    5  A    between atoms: C_18  and  O_19
REMARK    6  A    between atoms: O_19  and  C_20
REMARK    7  A    between atoms: C_23  and  C_25
REMARK                            x       y       z     vdW  Elec       q    Type
REMARK                         _______ _______ _______ _____ _____    ______ ____
ROOT
ATOM      1  C   LIG A   1      -7.759   2.124 123.584  0.00  0.00    +0.211 C 
ATOM      2  O   LIG A   1      -8.299   2.827 124.738  0.00  0.00    -0.483 OA
ATOM      3  C   LIG A   1      -7.205   3.365 125.363  0.00  0.00    +0.129 A 
ATOM      4  C   LIG A   1      -7.230   3.941 126.614  0.00  0.00    +0.095 A 
ATOM      5  C   LIG A   1      -6.025   4.421 127.113  0.00  0.00    +0.162 A 
ATOM      6  C   LIG A   1      -4.819   4.330 126.385  0.00  0.00    +0.162 A 
ATOM      7  C   LIG A   1      -4.829   3.750 125.115  0.00  0.00    +0.057 A 
ATOM      8  C   LIG A   1      -6.037   3.283 124.618  0.00  0.00    +0.005 A 
ATOM      9  C   LIG A   1      -6.340   2.683 123.289  0.00  0.00    +0.065 C 
ATOM     10  C   LIG A   1      -6.346   3.755 122.200  0.00  0.00    +0.016 C 
ENDROOT
BRANCH   1  18
ATOM     11  C   LIG A   1      -6.940  -1.635 123.427  0.00  0.00    +0.166 A 
ATOM     12  C   LIG A   1      -7.926  -2.140 124.259  0.00  0.00    +0.207 A 
ATOM     13  O   LIG A   1      -8.142  -3.440 124.605  0.00  0.00    -0.449 OA
ATOM     14  C   LIG A   1      -9.281  -3.325 125.477  0.00  0.00    +0.467 C 
ATOM     15  O   LIG A   1      -9.739  -1.971 125.637  0.00  0.00    -0.453 OA
ATOM     16  C   LIG A   1      -8.845  -1.304 124.854  0.00  0.00    +0.170 A 
ATOM     17  C   LIG A   1      -8.841   0.062 124.666  0.00  0.00    +0.057 A 
ATOM     18  C   LIG A   1      -7.844   0.625 123.855  0.00  0.00    +0.000 A 
ATOM     19  C   LIG A   1      -6.914  -0.243 123.234  0.00  0.00    +0.057 A 
BRANCH  11  21
ATOM     20  C   LIG A   1      -4.978  -2.971 123.553  0.00  0.00    +0.277 C 
ATOM     21  O   LIG A   1      -5.966  -2.322 122.763  0.00  0.00    -0.491 OA
ENDBRANCH  11  21
ENDBRANCH   1  18
BRANCH   5  22
ATOM     22  O   LIG A   1      -6.026   4.995 128.359  0.00  0.00    -0.503 OA
ATOM     23  H   LIG A   1      -6.660   4.465 128.880  0.00  0.00    +0.292 HD
ENDBRANCH   5  22
BRANCH   6  24
ATOM     24  O   LIG A   1      -3.721   4.855 127.020  0.00  0.00    -0.491 OA
ATOM     25  C   LIG A   1      -2.594   3.993 127.151  0.00  0.00    +0.277 C 
ENDBRANCH   6  24
TORSDOF 4
ENDMDL
MODEL 5
REMARK VINA RESULT:      -6.8      7.502      9.280
REMARK  Name = NuBBE_2344
REMARK  7 active torsions:
REMARK  status: ('A' for Active; 'I' for Inactive)
REMARK    1  A    between atoms: C_1  and  O_2
REMARK    2  A    between atoms: O_2  and  C_3
REMARK    3  A    between atoms: C_10  and  C_11
REMARK    4  A    between atoms: C_16  and  O_17
REMARK    5  A    between atoms: C_18  and  O_19
REMARK    6  A    between atoms: O_19  and  C_20
REMARK    7  A    between atoms: C_23  and  C_25
REMARK                            x       y       z     vdW  Elec       q    Type
REMARK                         _______ _______ _______ _____ _____    ______ ____
ROOT
ATOM      1  C   LIG A   1      -9.194   5.927 131.925  0.00  0.00    +0.211 C 
ATOM      2  O   LIG A   1      -9.977   4.835 132.483  0.00  0.00    -0.483 OA
ATOM      3  C   LIG A   1      -9.296   3.700 132.128  0.00  0.00    +0.129 A 
ATOM      4  C   LIG A   1      -9.789   2.422 132.272  0.00  0.00    +0.095 A 
ATOM      5  C   LIG A   1      -8.977   1.379 131.841  0.00  0.00    +0.162 A 
ATOM      6  C   LIG A   1      -7.701   1.602 131.280  0.00  0.00    +0.162 A 
ATOM      7  C   LIG A   1      -7.226   2.909 131.158  0.00  0.00    +0.057 A 
ATOM      8  C   LIG A   1      -8.037   3.945 131.599  0.00  0.00    +0.005 A 
ATOM      9  C   LIG A   1      -7.758   5.407 131.641  0.00  0.00    +0.065 C 
ATOM     10  C   LIG A   1      -6.781   5.739 132.768  0.00  0.00    +0.016 C 
ENDROOT
BRANCH   1  18
ATOM     11  C   LIG A   1     -11.894   7.768 129.888  0.00  0.00    +0.166 A 
ATOM     12  C   LIG A   1     -11.426   7.553 128.602  0.00  0.00    +0.207 A 
ATOM     13  O   LIG A   1     -11.972   7.984 127.430  0.00  0.00    -0.449 OA
ATOM     14  C   LIG A   1     -11.045   7.458 126.464  0.00  0.00    +0.467 C 
ATOM     15  O   LIG A   1      -9.967   6.715 127.058  0.00  0.00    -0.453 OA
ATOM     16  C   LIG A   1     -10.277   6.826 128.381  0.00  0.00    +0.170 A 
ATOM     17  C   LIG A   1      -9.532   6.278 129.404  0.00  0.00    +0.057 A 
ATOM     18  C   LIG A   1      -9.950   6.493 130.727  0.00  0.00    +0.000 A 
ATOM     19  C   LIG A   1     -11.141   7.227 130.944  0.00  0.00    +0.057 A 
BRANCH  11  21
ATOM     20  C   LIG A   1     -13.041   9.847 129.989  0.00  0.00    +0.277 C 
ATOM     21  O   LIG A   1     -13.007   8.455 130.275  0.00  0.00    -0.491 OA
ENDBRANCH  11  21
ENDBRANCH   1  18
BRANCH   5  22
ATOM     22  O   LIG A   1      -9.449   0.098 131.971  0.00  0.00    -0.503 OA
ATOM     23  H   LIG A   1      -9.357  -0.109 132.921  0.00  0.00    +0.292 HD
ENDBRANCH   5  22
BRANCH   6  24
ATOM     24  O   LIG A   1      -7.027   0.465 130.910  0.00  0.00    -0.491 OA
ATOM     25  C   LIG A   1      -6.721   0.333 129.524  0.00  0.00    +0.277 C 
ENDBRANCH   6  24
TORSDOF 4
ENDMDL
MODEL 6
REMARK VINA RESULT:      -6.7      4.041      8.407
REMARK  Name = NuBBE_2344
REMARK  7 active torsions:
REMARK  status: ('A' for Active; 'I' for Inactive)
REMARK    1  A    between atoms: C_1  and  O_2
REMARK    2  A    between atoms: O_2  and  C_3
REMARK    3  A    between atoms: C_10  and  C_11
REMARK    4  A    between atoms: C_16  and  O_17
REMARK    5  A    between atoms: C_18  and  O_19
REMARK    6  A    between atoms: O_19  and  C_20
REMARK    7  A    between atoms: C_23  and  C_25
REMARK                            x       y       z     vdW  Elec       q    Type
REMARK                         _______ _______ _______ _____ _____    ______ ____
ROOT
ATOM      1  C   LIG A   1      -7.407  -2.478 126.006  0.00  0.00    +0.211 C 
ATOM      2  O   LIG A   1      -8.670  -1.756 125.987  0.00  0.00    -0.483 OA
ATOM      3  C   LIG A   1      -8.363  -0.529 125.458  0.00  0.00    +0.129 A 
ATOM      4  C   LIG A   1      -9.220   0.548 125.448  0.00  0.00    +0.095 A 
ATOM      5  C   LIG A   1      -8.744   1.730 124.891  0.00  0.00    +0.162 A 
ATOM      6  C   LIG A   1      -7.443   1.838 124.355  0.00  0.00    +0.162 A 
ATOM      7  C   LIG A   1      -6.601   0.724 124.372  0.00  0.00    +0.057 A 
ATOM      8  C   LIG A   1      -7.086  -0.455 124.919  0.00  0.00    +0.005 A 
ATOM      9  C   LIG A   1      -6.433  -1.790 125.011  0.00  0.00    +0.065 C 
ATOM     10  C   LIG A   1      -6.409  -2.475 123.645  0.00  0.00    +0.016 C 
ENDROOT
BRANCH   1  18
ATOM     11  C   LIG A   1      -5.034  -2.557 129.038  0.00  0.00    +0.166 A 
ATOM     12  C   LIG A   1      -5.945  -2.751 130.063  0.00  0.00    +0.207 A 
ATOM     13  O   LIG A   1      -5.692  -2.854 131.398  0.00  0.00    -0.449 OA
ATOM     14  C   LIG A   1      -7.016  -3.038 131.932  0.00  0.00    +0.467 C 
ATOM     15  O   LIG A   1      -8.039  -3.053 130.923  0.00  0.00    -0.453 OA
ATOM     16  C   LIG A   1      -7.293  -2.866 129.798  0.00  0.00    +0.170 A 
ATOM     17  C   LIG A   1      -7.811  -2.794 128.522  0.00  0.00    +0.057 A 
ATOM     18  C   LIG A   1      -6.930  -2.570 127.452  0.00  0.00    +0.000 A 
ATOM     19  C   LIG A   1      -5.546  -2.470 127.732  0.00  0.00    +0.057 A 
BRANCH  11  21
ATOM     20  C   LIG A   1      -2.917  -3.630 129.175  0.00  0.00    +0.277 C 
ATOM     21  O   LIG A   1      -3.679  -2.429 129.129  0.00  0.00    -0.491 OA
ENDBRANCH  11  21
ENDBRANCH   1  18
BRANCH   5  22
ATOM     22  O   LIG A   1      -9.580   2.817 124.874  0.00  0.00    -0.503 OA
ATOM     23  H   LIG A   1      -9.333   3.338 125.662  0.00  0.00    +0.292 HD
ENDBRANCH   5  22
BRANCH   6  24
ATOM     24  O   LIG A   1      -7.131   3.072 123.841  0.00  0.00    -0.491 OA
ATOM     25  C   LIG A   1      -7.002   3.153 122.424  0.00  0.00    +0.277 C 
ENDBRANCH   6  24
TORSDOF 4
ENDMDL
MODEL 7
REMARK VINA RESULT:      -6.6      7.812      9.771
REMARK  Name = NuBBE_2344
REMARK  7 active torsions:
REMARK  status: ('A' for Active; 'I' for Inactive)
REMARK    1  A    between atoms: C_1  and  O_2
REMARK    2  A    between atoms: O_2  and  C_3
REMARK    3  A    between atoms: C_10  and  C_11
REMARK    4  A    between atoms: C_16  and  O_17
REMARK    5  A    between atoms: C_18  and  O_19
REMARK    6  A    between atoms: O_19  and  C_20
REMARK    7  A    between atoms: C_23  and  C_25
REMARK                            x       y       z     vdW  Elec       q    Type
REMARK                         _______ _______ _______ _____ _____    ______ ____
ROOT
ATOM      1  C   LIG A   1      -7.612   5.976 132.039  0.00  0.00    +0.211 C 
ATOM      2  O   LIG A   1      -7.900   5.023 133.100  0.00  0.00    -0.483 OA
ATOM      3  C   LIG A   1      -7.555   3.804 132.578  0.00  0.00    +0.129 A 
ATOM      4  C   LIG A   1      -7.855   2.595 133.165  0.00  0.00    +0.095 A 
ATOM      5  C   LIG A   1      -7.450   1.448 132.493  0.00  0.00    +0.162 A 
ATOM      6  C   LIG A   1      -6.760   1.501 131.263  0.00  0.00    +0.162 A 
ATOM      7  C   LIG A   1      -6.462   2.743 130.699  0.00  0.00    +0.057 A 
ATOM      8  C   LIG A   1      -6.860   3.884 131.380  0.00  0.00    +0.005 A 
ATOM      9  C   LIG A   1      -6.622   5.315 131.041  0.00  0.00    +0.065 C 
ATOM     10  C   LIG A   1      -5.169   5.701 131.313  0.00  0.00    +0.016 C 
ENDROOT
BRANCH   1  18
ATOM     11  C   LIG A   1     -10.117   7.611 129.614  0.00  0.00    +0.166 A 
ATOM     12  C   LIG A   1     -11.303   7.391 130.294  0.00  0.00    +0.207 A 
ATOM     13  O   LIG A   1     -12.563   7.745 129.915  0.00  0.00    -0.449 OA
ATOM     14  C   LIG A   1     -13.350   7.247 131.012  0.00  0.00    +0.467 C 
ATOM     15  O   LIG A   1     -12.562   6.613 132.034  0.00  0.00    -0.453 OA
ATOM     16  C   LIG A   1     -11.310   6.742 131.510  0.00  0.00    +0.170 A 
ATOM     17  C   LIG A   1     -10.161   6.278 132.115  0.00  0.00    +0.057 A 
ATOM     18  C   LIG A   1      -8.937   6.452 131.451  0.00  0.00    +0.000 A 
ATOM     19  C   LIG A   1      -8.937   7.134 130.210  0.00  0.00    +0.057 A 
BRANCH  11  21
ATOM     20  C   LIG A   1     -10.564   7.650 127.280  0.00  0.00    +0.277 C 
ATOM     21  O   LIG A   1      -9.938   8.236 128.415  0.00  0.00    -0.491 OA
ENDBRANCH  11  21
ENDBRANCH   1  18
BRANCH   5  22
ATOM     22  O   LIG A   1      -7.742   0.233 133.058  0.00  0.00    -0.503 OA
ATOM     23  H   LIG A   1      -8.392   0.430 133.760  0.00  0.00    +0.292 HD
ENDBRANCH   5  22
BRANCH   6  24
ATOM     24  O   LIG A   1      -6.429   0.278 130.733  0.00  0.00    -0.491 OA
ATOM     25  C   LIG A   1      -5.098   0.140 130.244  0.00  0.00    +0.277 C 
ENDBRANCH   6  24
TORSDOF 4
ENDMDL
MODEL 8
REMARK VINA RESULT:      -6.6      4.468      8.241
REMARK  Name = NuBBE_2344
REMARK  7 active torsions:
REMARK  status: ('A' for Active; 'I' for Inactive)
REMARK    1  A    between atoms: C_1  and  O_2
REMARK    2  A    between atoms: O_2  and  C_3
REMARK    3  A    between atoms: C_10  and  C_11
REMARK    4  A    between atoms: C_16  and  O_17
REMARK    5  A    between atoms: C_18  and  O_19
REMARK    6  A    between atoms: O_19  and  C_20
REMARK    7  A    between atoms: C_23  and  C_25
REMARK                            x       y       z     vdW  Elec       q    Type
REMARK                         _______ _______ _______ _____ _____    ______ ____
ROOT
ATOM      1  C   LIG A   1      -6.258  -1.478 127.427  0.00  0.00    +0.211 C 
ATOM      2  O   LIG A   1      -6.803  -2.726 126.914  0.00  0.00    -0.483 OA
ATOM      3  C   LIG A   1      -7.597  -2.353 125.861  0.00  0.00    +0.129 A 
ATOM      4  C   LIG A   1      -8.471  -3.197 125.212  0.00  0.00    +0.095 A 
ATOM      5  C   LIG A   1      -9.221  -2.653 124.175  0.00  0.00    +0.162 A 
ATOM      6  C   LIG A   1      -9.104  -1.300 123.791  0.00  0.00    +0.162 A 
ATOM      7  C   LIG A   1      -8.201  -0.474 124.462  0.00  0.00    +0.057 A 
ATOM      8  C   LIG A   1      -7.448  -1.025 125.489  0.00  0.00    +0.005 A 
ATOM      9  C   LIG A   1      -6.384  -0.395 126.320  0.00  0.00    +0.065 C 
ATOM     10  C   LIG A   1      -5.097  -0.226 125.514  0.00  0.00    +0.016 C 
ENDROOT
BRANCH   1  18
ATOM     11  C   LIG A   1      -7.629  -1.948 130.994  0.00  0.00    +0.166 A 
ATOM     12  C   LIG A   1      -8.204  -0.706 131.206  0.00  0.00    +0.207 A 
ATOM     13  O   LIG A   1      -8.851  -0.264 132.321  0.00  0.00    -0.449 OA
ATOM     14  C   LIG A   1      -9.206   1.078 131.939  0.00  0.00    +0.467 C 
ATOM     15  O   LIG A   1      -8.781   1.421 130.609  0.00  0.00    -0.453 OA
ATOM     16  C   LIG A   1      -8.168   0.265 130.229  0.00  0.00    +0.170 A 
ATOM     17  C   LIG A   1      -7.568   0.068 129.003  0.00  0.00    +0.057 A 
ATOM     18  C   LIG A   1      -6.946  -1.165 128.752  0.00  0.00    +0.000 A 
ATOM     19  C   LIG A   1      -7.002  -2.163 129.754  0.00  0.00    +0.057 A 
BRANCH  11  21
ATOM     20  C   LIG A   1      -6.497  -3.059 132.764  0.00  0.00    +0.277 C 
ATOM     21  O   LIG A   1      -7.583  -3.011 131.848  0.00  0.00    -0.491 OA
ENDBRANCH  11  21
ENDBRANCH   1  18
BRANCH   5  22
ATOM     22  O   LIG A   1     -10.100  -3.474 123.517  0.00  0.00    -0.503 OA
ATOM     23  H   LIG A   1     -10.969  -3.037 123.607  0.00  0.00    +0.292 HD
ENDBRANCH   5  22
BRANCH   6  24
ATOM     24  O   LIG A   1      -9.912  -0.925 122.747  0.00  0.00    -0.491 OA
ATOM     25  C   LIG A   1     -10.103   0.476 122.566  0.00  0.00    +0.277 C 
ENDBRANCH   6  24
TORSDOF 4
ENDMDL
MODEL 9
REMARK VINA RESULT:      -6.5      4.128      8.451
REMARK  Name = NuBBE_2344
REMARK  7 active torsions:
REMARK  status: ('A' for Active; 'I' for Inactive)
REMARK    1  A    between atoms: C_1  and  O_2
REMARK    2  A    between atoms: O_2  and  C_3
REMARK    3  A    between atoms: C_10  and  C_11
REMARK    4  A    between atoms: C_16  and  O_17
REMARK    5  A    between atoms: C_18  and  O_19
REMARK    6  A    between atoms: O_19  and  C_20
REMARK    7  A    between atoms: C_23  and  C_25
REMARK                            x       y       z     vdW  Elec       q    Type
REMARK                         _______ _______ _______ _____ _____    ______ ____
ROOT
ATOM      1  C   LIG A   1      -7.360  -2.522 126.478  0.00  0.00    +0.211 C 
ATOM      2  O   LIG A   1      -8.639  -1.828 126.476  0.00  0.00    -0.483 OA
ATOM      3  C   LIG A   1      -8.439  -0.731 125.680  0.00  0.00    +0.129 A 
ATOM      4  C   LIG A   1      -9.326   0.316 125.565  0.00  0.00    +0.095 A 
ATOM      5  C   LIG A   1      -8.960   1.365 124.729  0.00  0.00    +0.162 A 
ATOM      6  C   LIG A   1      -7.739   1.373 124.022  0.00  0.00    +0.162 A 
ATOM      7  C   LIG A   1      -6.866   0.291 124.152  0.00  0.00    +0.057 A 
ATOM      8  C   LIG A   1      -7.241  -0.757 124.980  0.00  0.00    +0.005 A 
ATOM      9  C   LIG A   1      -6.538  -2.042 125.251  0.00  0.00    +0.065 C 
ATOM     10  C   LIG A   1      -6.660  -2.987 124.057  0.00  0.00    +0.016 C 
ENDROOT
BRANCH   1  18
ATOM     11  C   LIG A   1      -6.987  -1.797 130.242  0.00  0.00    +0.166 A 
ATOM     12  C   LIG A   1      -5.613  -1.899 130.381  0.00  0.00    +0.207 A 
ATOM     13  O   LIG A   1      -4.874  -1.750 131.516  0.00  0.00    -0.449 OA
ATOM     14  C   LIG A   1      -3.540  -1.975 131.027  0.00  0.00    +0.467 C 
ATOM     15  O   LIG A   1      -3.490  -2.247 129.616  0.00  0.00    -0.453 OA
ATOM     16  C   LIG A   1      -4.812  -2.184 129.296  0.00  0.00    +0.170 A 
ATOM     17  C   LIG A   1      -5.318  -2.384 128.028  0.00  0.00    +0.057 A 
ATOM     18  C   LIG A   1      -6.707  -2.319 127.842  0.00  0.00    +0.000 A 
ATOM     19  C   LIG A   1      -7.521  -2.009 128.959  0.00  0.00    +0.057 A 
BRANCH  11  21
ATOM     20  C   LIG A   1      -8.344  -0.169 131.318  0.00  0.00    +0.277 C 
ATOM     21  O   LIG A   1      -7.913  -1.519 131.205  0.00  0.00    -0.491 OA
ENDBRANCH  11  21
ENDBRANCH   1  18
BRANCH   5  22
ATOM     22  O   LIG A   1      -9.827   2.420 124.602  0.00  0.00    -0.503 OA
ATOM     23  H   LIG A   1      -9.258   3.195 124.426  0.00  0.00    +0.292 HD
ENDBRANCH   5  22
BRANCH   6  24
ATOM     24  O   LIG A   1      -7.533   2.481 123.237  0.00  0.00    -0.491 OA
ATOM     25  C   LIG A   1      -6.433   3.313 123.594  0.00  0.00    +0.277 C 
ENDBRANCH   6  24
TORSDOF 4
ENDMDL
