MODEL 1
REMARK VINA RESULT:      -6.0      0.000      0.000
REMARK  Name = NuBBE_971
REMARK  3 active torsions:
REMARK  status: ('A' for Active; 'I' for Inactive)
REMARK    1  A    between atoms: C_2  and  C_6
REMARK    2  A    between atoms: N_3  and  C_4
REMARK    3  A    between atoms: C_7  and  C_8
REMARK                            x       y       z     vdW  Elec       q    Type
REMARK                         _______ _______ _______ _____ _____    ______ ____
ROOT
ATOM      1  C   LIG A   1     -10.362   6.385 131.308  0.00  0.00    +0.068 C 
ATOM      2  C   LIG A   1     -11.685   6.608 131.274  0.00  0.00    +0.013 C 
ENDROOT
BRANCH   2   3
ATOM      3  C   LIG A   1     -12.368   7.232 130.131  0.00  0.00    -0.025 A 
ATOM      4  C   LIG A   1     -12.845   6.422 129.093  0.00  0.00    +0.008 A 
ATOM      5  C   LIG A   1     -13.490   6.987 127.988  0.00  0.00    +0.001 A 
ATOM      6  C   LIG A   1     -13.655   8.369 127.906  0.00  0.00    +0.000 A 
ATOM      7  C   LIG A   1     -13.167   9.186 128.921  0.00  0.00    +0.001 A 
ATOM      8  C   LIG A   1     -12.520   8.622 130.022  0.00  0.00    +0.008 A 
ENDBRANCH   2   3
BRANCH   1  10
ATOM      9  O   LIG A   1      -9.124   6.360 133.344  0.00  0.00    -0.271 OA
ATOM     10  C   LIG A   1      -9.728   5.738 132.483  0.00  0.00    +0.237 C 
ATOM     11  N   LIG A   1      -9.903   4.375 132.484  0.00  0.00    -0.315 N 
ATOM     12  C   LIG A   1      -9.364   3.558 133.539  0.00  0.00    +0.128 C 
ATOM     13  H   LIG A   1     -10.388   3.921 131.724  0.00  0.00    +0.149 HD
ENDBRANCH   1  10
TORSDOF 2
ENDMDL
MODEL 2
REMARK VINA RESULT:      -5.8      9.424     10.256
REMARK  Name = NuBBE_971
REMARK  3 active torsions:
REMARK  status: ('A' for Active; 'I' for Inactive)
REMARK    1  A    between atoms: C_2  and  C_6
REMARK    2  A    between atoms: N_3  and  C_4
REMARK    3  A    between atoms: C_7  and  C_8
REMARK                            x       y       z     vdW  Elec       q    Type
REMARK                         _______ _______ _______ _____ _____    ______ ____
ROOT
ATOM      1  C   LIG A   1      -9.369   1.953 122.797  0.00  0.00    +0.068 C 
ATOM      2  C   LIG A   1      -8.484   2.955 122.678  0.00  0.00    +0.013 C 
ENDROOT
BRANCH   2   3
ATOM      3  C   LIG A   1      -8.042   3.491 121.383  0.00  0.00    -0.025 A 
ATOM      4  C   LIG A   1      -6.679   3.740 121.172  0.00  0.00    +0.008 A 
ATOM      5  C   LIG A   1      -6.231   4.260 119.954  0.00  0.00    +0.001 A 
ATOM      6  C   LIG A   1      -7.141   4.546 118.938  0.00  0.00    +0.000 A 
ATOM      7  C   LIG A   1      -8.499   4.324 119.142  0.00  0.00    +0.001 A 
ATOM      8  C   LIG A   1      -8.948   3.808 120.360  0.00  0.00    +0.008 A 
ENDBRANCH   2   3
BRANCH   1  10
ATOM      9  O   LIG A   1     -10.921   1.067 124.373  0.00  0.00    -0.271 OA
ATOM     10  C   LIG A   1      -9.790   1.462 124.132  0.00  0.00    +0.237 C 
ATOM     11  N   LIG A   1      -8.767   1.502 125.048  0.00  0.00    -0.315 N 
ATOM     12  C   LIG A   1      -8.968   1.068 126.405  0.00  0.00    +0.128 C 
ATOM     13  H   LIG A   1      -7.862   1.869 124.789  0.00  0.00    +0.149 HD
ENDBRANCH   1  10
TORSDOF 2
ENDMDL
MODEL 3
REMARK VINA RESULT:      -5.3      2.787      5.868
REMARK  Name = NuBBE_971
REMARK  3 active torsions:
REMARK  status: ('A' for Active; 'I' for Inactive)
REMARK    1  A    between atoms: C_2  and  C_6
REMARK    2  A    between atoms: N_3  and  C_4
REMARK    3  A    between atoms: C_7  and  C_8
REMARK                            x       y       z     vdW  Elec       q    Type
REMARK                         _______ _______ _______ _____ _____    ______ ____
ROOT
ATOM      1  C   LIG A   1     -10.878   6.542 131.636  0.00  0.00    +0.068 C 
ATOM      2  C   LIG A   1      -9.719   6.679 130.972  0.00  0.00    +0.013 C 
ENDROOT
BRANCH   2   3
ATOM      3  C   LIG A   1      -8.405   6.440 131.587  0.00  0.00    -0.025 A 
ATOM      4  C   LIG A   1      -8.336   5.798 132.830  0.00  0.00    +0.008 A 
ATOM      5  C   LIG A   1      -7.102   5.567 133.444  0.00  0.00    +0.001 A 
ATOM      6  C   LIG A   1      -5.924   5.984 132.827  0.00  0.00    +0.000 A 
ATOM      7  C   LIG A   1      -5.979   6.641 131.602  0.00  0.00    +0.001 A 
ATOM      8  C   LIG A   1      -7.213   6.876 130.990  0.00  0.00    +0.008 A 
ENDBRANCH   2   3
BRANCH   1  10
ATOM      9  O   LIG A   1     -13.187   7.121 131.555  0.00  0.00    -0.271 OA
ATOM     10  C   LIG A   1     -12.176   6.782 130.959  0.00  0.00    +0.237 C 
ATOM     11  N   LIG A   1     -12.101   6.582 129.602  0.00  0.00    -0.315 N 
ATOM     12  C   LIG A   1     -13.254   6.763 128.760  0.00  0.00    +0.128 C 
ATOM     13  H   LIG A   1     -11.239   6.272 129.177  0.00  0.00    +0.149 HD
ENDBRANCH   1  10
TORSDOF 2
ENDMDL
MODEL 4
REMARK VINA RESULT:      -5.3      1.598      2.073
REMARK  Name = NuBBE_971
REMARK  3 active torsions:
REMARK  status: ('A' for Active; 'I' for Inactive)
REMARK    1  A    between atoms: C_2  and  C_6
REMARK    2  A    between atoms: N_3  and  C_4
REMARK    3  A    between atoms: C_7  and  C_8
REMARK                            x       y       z     vdW  Elec       q    Type
REMARK                         _______ _______ _______ _____ _____    ______ ____
ROOT
ATOM      1  C   LIG A   1     -10.244   5.280 130.124  0.00  0.00    +0.068 C 
ATOM      2  C   LIG A   1     -11.498   5.670 130.400  0.00  0.00    +0.013 C 
ENDROOT
BRANCH   2   3
ATOM      3  C   LIG A   1     -12.190   6.741 129.668  0.00  0.00    -0.025 A 
ATOM      4  C   LIG A   1     -12.051   8.066 130.100  0.00  0.00    +0.008 A 
ATOM      5  C   LIG A   1     -12.705   9.105 129.430  0.00  0.00    +0.001 A 
ATOM      6  C   LIG A   1     -13.511   8.828 128.327  0.00  0.00    +0.000 A 
ATOM      7  C   LIG A   1     -13.674   7.514 127.900  0.00  0.00    +0.001 A 
ATOM      8  C   LIG A   1     -13.024   6.476 128.572  0.00  0.00    +0.008 A 
ENDBRANCH   2   3
BRANCH   1  10
ATOM      9  O   LIG A   1      -8.427   4.202 131.226  0.00  0.00    -0.271 OA
ATOM     10  C   LIG A   1      -9.601   4.182 130.887  0.00  0.00    +0.237 C 
ATOM     11  N   LIG A   1     -10.476   3.159 131.164  0.00  0.00    -0.315 N 
ATOM     12  C   LIG A   1     -10.050   1.996 131.896  0.00  0.00    +0.128 C 
ATOM     13  H   LIG A   1     -11.427   3.194 130.827  0.00  0.00    +0.149 HD
ENDBRANCH   1  10
TORSDOF 2
ENDMDL
MODEL 5
REMARK VINA RESULT:      -5.2      2.384      2.604
REMARK  Name = NuBBE_971
REMARK  3 active torsions:
REMARK  status: ('A' for Active; 'I' for Inactive)
REMARK    1  A    between atoms: C_2  and  C_6
REMARK    2  A    between atoms: N_3  and  C_4
REMARK    3  A    between atoms: C_7  and  C_8
REMARK                            x       y       z     vdW  Elec       q    Type
REMARK                         _______ _______ _______ _____ _____    ______ ____
ROOT
ATOM      1  C   LIG A   1      -8.498   6.920 130.821  0.00  0.00    +0.068 C 
ATOM      2  C   LIG A   1      -9.831   6.813 130.925  0.00  0.00    +0.013 C 
ENDROOT
BRANCH   2   3
ATOM      3  C   LIG A   1     -10.766   7.419 129.965  0.00  0.00    -0.025 A 
ATOM      4  C   LIG A   1     -12.126   7.502 130.292  0.00  0.00    +0.008 A 
ATOM      5  C   LIG A   1     -13.040   8.063 129.395  0.00  0.00    +0.001 A 
ATOM      6  C   LIG A   1     -12.605   8.538 128.158  0.00  0.00    +0.000 A 
ATOM      7  C   LIG A   1     -11.261   8.442 127.813  0.00  0.00    +0.001 A 
ATOM      8  C   LIG A   1     -10.349   7.878 128.707  0.00  0.00    +0.008 A 
ENDBRANCH   2   3
BRANCH   1  10
ATOM      9  O   LIG A   1      -8.003   5.517 132.682  0.00  0.00    -0.271 OA
ATOM     10  C   LIG A   1      -7.602   6.275 131.812  0.00  0.00    +0.237 C 
ATOM     11  N   LIG A   1      -6.286   6.628 131.632  0.00  0.00    -0.315 N 
ATOM     12  C   LIG A   1      -5.254   6.111 132.490  0.00  0.00    +0.128 C 
ATOM     13  H   LIG A   1      -6.027   7.285 130.909  0.00  0.00    +0.149 HD
ENDBRANCH   1  10
TORSDOF 2
ENDMDL
MODEL 6
REMARK VINA RESULT:      -5.1      3.108      6.172
REMARK  Name = NuBBE_971
REMARK  3 active torsions:
REMARK  status: ('A' for Active; 'I' for Inactive)
REMARK    1  A    between atoms: C_2  and  C_6
REMARK    2  A    between atoms: N_3  and  C_4
REMARK    3  A    between atoms: C_7  and  C_8
REMARK                            x       y       z     vdW  Elec       q    Type
REMARK                         _______ _______ _______ _____ _____    ______ ____
ROOT
ATOM      1  C   LIG A   1     -10.097   7.321 129.798  0.00  0.00    +0.068 C 
ATOM      2  C   LIG A   1      -9.947   6.549 130.885  0.00  0.00    +0.013 C 
ENDROOT
BRANCH   2   3
ATOM      3  C   LIG A   1      -8.663   6.377 131.581  0.00  0.00    -0.025 A 
ATOM      4  C   LIG A   1      -7.484   6.815 130.962  0.00  0.00    +0.008 A 
ATOM      5  C   LIG A   1      -6.248   6.655 131.595  0.00  0.00    +0.001 A 
ATOM      6  C   LIG A   1      -6.175   6.047 132.847  0.00  0.00    +0.000 A 
ATOM      7  C   LIG A   1      -7.336   5.589 133.463  0.00  0.00    +0.001 A 
ATOM      8  C   LIG A   1      -8.571   5.745 132.830  0.00  0.00    +0.008 A 
ENDBRANCH   2   3
BRANCH   1  10
ATOM      9  O   LIG A   1     -12.017   6.539 128.624  0.00  0.00    -0.271 OA
ATOM     10  C   LIG A   1     -11.421   7.469 129.145  0.00  0.00    +0.237 C 
ATOM     11  N   LIG A   1     -11.887   8.761 129.201  0.00  0.00    -0.315 N 
ATOM     12  C   LIG A   1     -13.157   9.118 128.625  0.00  0.00    +0.128 C 
ATOM     13  H   LIG A   1     -11.328   9.489 129.622  0.00  0.00    +0.149 HD
ENDBRANCH   1  10
TORSDOF 2
ENDMDL
MODEL 7
REMARK VINA RESULT:      -5.0      2.508      6.209
REMARK  Name = NuBBE_971
REMARK  3 active torsions:
REMARK  status: ('A' for Active; 'I' for Inactive)
REMARK    1  A    between atoms: C_2  and  C_6
REMARK    2  A    between atoms: N_3  and  C_4
REMARK    3  A    between atoms: C_7  and  C_8
REMARK                            x       y       z     vdW  Elec       q    Type
REMARK                         _______ _______ _______ _____ _____    ______ ____
ROOT
ATOM      1  C   LIG A   1     -10.239   6.721 130.765  0.00  0.00    +0.068 C 
ATOM      2  C   LIG A   1      -8.984   6.675 131.237  0.00  0.00    +0.013 C 
ENDROOT
BRANCH   2   3
ATOM      3  C   LIG A   1      -8.561   5.771 132.317  0.00  0.00    -0.025 A 
ATOM      4  C   LIG A   1      -9.482   4.857 132.846  0.00  0.00    +0.008 A 
ATOM      5  C   LIG A   1      -9.112   3.992 133.879  0.00  0.00    +0.001 A 
ATOM      6  C   LIG A   1      -7.821   4.038 134.403  0.00  0.00    +0.000 A 
ATOM      7  C   LIG A   1      -6.903   4.955 133.901  0.00  0.00    +0.001 A 
ATOM      8  C   LIG A   1      -7.274   5.822 132.870  0.00  0.00    +0.008 A 
ENDBRANCH   2   3
BRANCH   1  10
ATOM      9  O   LIG A   1      -9.803   8.051 128.836  0.00  0.00    -0.271 OA
ATOM     10  C   LIG A   1     -10.606   7.644 129.663  0.00  0.00    +0.237 C 
ATOM     11  N   LIG A   1     -11.939   7.977 129.684  0.00  0.00    -0.315 N 
ATOM     12  C   LIG A   1     -12.499   8.863 128.698  0.00  0.00    +0.128 C 
ATOM     13  H   LIG A   1     -12.542   7.627 130.415  0.00  0.00    +0.149 HD
ENDBRANCH   1  10
TORSDOF 2
ENDMDL
MODEL 8
REMARK VINA RESULT:      -4.9      8.510     10.433
REMARK  Name = NuBBE_971
REMARK  3 active torsions:
REMARK  status: ('A' for Active; 'I' for Inactive)
REMARK    1  A    between atoms: C_2  and  C_6
REMARK    2  A    between atoms: N_3  and  C_4
REMARK    3  A    between atoms: C_7  and  C_8
REMARK                            x       y       z     vdW  Elec       q    Type
REMARK                         _______ _______ _______ _____ _____    ______ ____
ROOT
ATOM      1  C   LIG A   1      -8.976   0.882 125.978  0.00  0.00    +0.068 C 
ATOM      2  C   LIG A   1      -8.325  -0.266 125.734  0.00  0.00    +0.013 C 
ENDROOT
BRANCH   2   3
ATOM      3  C   LIG A   1      -8.329  -1.408 126.661  0.00  0.00    -0.025 A 
ATOM      4  C   LIG A   1      -9.003  -2.582 126.300  0.00  0.00    +0.008 A 
ATOM      5  C   LIG A   1      -9.033  -3.680 127.165  0.00  0.00    +0.001 A 
ATOM      6  C   LIG A   1      -8.397  -3.612 128.403  0.00  0.00    +0.000 A 
ATOM      7  C   LIG A   1      -7.741  -2.445 128.783  0.00  0.00    +0.001 A 
ATOM      8  C   LIG A   1      -7.715  -1.347 127.920  0.00  0.00    +0.008 A 
ENDBRANCH   2   3
BRANCH   1  10
ATOM      9  O   LIG A   1      -8.928   3.173 125.327  0.00  0.00    -0.271 OA
ATOM     10  C   LIG A   1      -8.950   1.996 124.999  0.00  0.00    +0.237 C 
ATOM     11  N   LIG A   1      -8.951   1.548 123.700  0.00  0.00    -0.315 N 
ATOM     12  C   LIG A   1      -8.927   2.471 122.596  0.00  0.00    +0.128 C 
ATOM     13  H   LIG A   1      -9.000   0.559 123.500  0.00  0.00    +0.149 HD
ENDBRANCH   1  10
TORSDOF 2
ENDMDL
MODEL 9
REMARK VINA RESULT:      -4.9     10.968     11.347
REMARK  Name = NuBBE_971
REMARK  3 active torsions:
REMARK  status: ('A' for Active; 'I' for Inactive)
REMARK    1  A    between atoms: C_2  and  C_6
REMARK    2  A    between atoms: N_3  and  C_4
REMARK    3  A    between atoms: C_7  and  C_8
REMARK                            x       y       z     vdW  Elec       q    Type
REMARK                         _______ _______ _______ _____ _____    ______ ____
ROOT
ATOM      1  C   LIG A   1      -7.495  -2.724 127.654  0.00  0.00    +0.068 C 
ATOM      2  C   LIG A   1      -8.270  -3.337 126.745  0.00  0.00    +0.013 C 
ENDROOT
BRANCH   2   3
ATOM      3  C   LIG A   1      -8.288  -2.969 125.321  0.00  0.00    -0.025 A 
ATOM      4  C   LIG A   1      -7.221  -2.233 124.790  0.00  0.00    +0.008 A 
ATOM      5  C   LIG A   1      -7.216  -1.860 123.443  0.00  0.00    +0.001 A 
ATOM      6  C   LIG A   1      -8.282  -2.210 122.615  0.00  0.00    +0.000 A 
ATOM      7  C   LIG A   1      -9.357  -2.923 123.135  0.00  0.00    +0.001 A 
ATOM      8  C   LIG A   1      -9.365  -3.292 124.482  0.00  0.00    +0.008 A 
ENDBRANCH   2   3
BRANCH   1  10
ATOM      9  O   LIG A   1      -8.532  -3.261 129.731  0.00  0.00    -0.271 OA
ATOM     10  C   LIG A   1      -7.507  -3.147 129.075  0.00  0.00    +0.237 C 
ATOM     11  N   LIG A   1      -6.243  -3.394 129.555  0.00  0.00    -0.315 N 
ATOM     12  C   LIG A   1      -6.035  -3.817 130.915  0.00  0.00    +0.128 C 
ATOM     13  H   LIG A   1      -5.435  -3.251 128.967  0.00  0.00    +0.149 HD
ENDBRANCH   1  10
TORSDOF 2
ENDMDL
