MODEL 1
REMARK VINA RESULT:      -6.9      0.000      0.000
REMARK  Name = NuBBE_110
REMARK  19 active torsions:
REMARK  status: ('A' for Active; 'I' for Inactive)
REMARK    1  A    between atoms: C_2  and  C_3
REMARK    2  A    between atoms: C_2  and  O_41
REMARK    3  A    between atoms: C_6  and  O_24
REMARK    4  A    between atoms: C_8  and  C_17
REMARK    5  A    between atoms: C_10  and  C_12
REMARK    6  A    between atoms: C_12  and  C_13
REMARK    7  A    between atoms: C_13  and  O_14
REMARK    8  A    between atoms: O_14  and  C_15
REMARK    9  A    between atoms: C_17  and  C_19
REMARK   10  A    between atoms: C_17  and  O_20
REMARK   11  A    between atoms: O_20  and  C_21
REMARK   12  A    between atoms: C_21  and  C_22
REMARK   13  A    between atoms: O_24  and  C_25
REMARK   14  A    between atoms: C_28  and  C_36
REMARK   15  A    between atoms: C_30  and  O_35
REMARK   16  A    between atoms: C_32  and  O_34
REMARK   17  A    between atoms: C_36  and  O_37
REMARK   18  A    between atoms: C_38  and  O_40
REMARK   19  A    between atoms: O_41  and  C_42
REMARK                            x       y       z     vdW  Elec       q    Type
REMARK                         _______ _______ _______ _____ _____    ______ ____
ROOT
ATOM      1  C   LIG A   1      -7.926   2.858 128.431  0.00  0.00    +0.075 C 
ATOM      2  C   LIG A   1      -7.882   4.172 128.150  0.00  0.00    +0.201 C 
ATOM      3  O   LIG A   1      -8.304   5.207 128.946  0.00  0.00    -0.470 OA
ATOM      4  C   LIG A   1      -9.055   4.816 130.093  0.00  0.00    +0.316 C 
ATOM      5  C   LIG A   1      -8.272   3.631 130.755  0.00  0.00    +0.106 C 
ATOM      6  C   LIG A   1      -8.472   2.383 129.791  0.00  0.00    +0.052 C 
ENDROOT
BRANCH   1   8
ATOM      7  O   LIG A   1      -6.462   1.685 126.915  0.00  0.00    -0.245 OA
ATOM      8  C   LIG A   1      -7.590   2.035 127.234  0.00  0.00    +0.338 C 
BRANCH   8   9
ATOM      9  O   LIG A   1      -8.691   1.969 126.482  0.00  0.00    -0.465 OA
ATOM     10  C   LIG A   1      -8.559   2.107 125.080  0.00  0.00    +0.280 C 
ENDBRANCH   8   9
ENDBRANCH   1   8
BRANCH   5  11
ATOM     11  C   LIG A   1      -6.732   4.026 131.102  0.00  0.00    +0.183 C 
ATOM     12  C   LIG A   1      -5.697   2.946 131.490  0.00  0.00    +0.052 C 
BRANCH  11  13
ATOM     13  O   LIG A   1      -6.549   5.191 131.980  0.00  0.00    -0.461 OA
BRANCH  13  14
ATOM     14  C   LIG A   1      -5.968   6.338 131.500  0.00  0.00    +0.304 C 
ATOM     15  C   LIG A   1      -4.516   6.420 131.867  0.00  0.00    +0.136 C 
ATOM     16  O   LIG A   1      -6.530   7.171 130.803  0.00  0.00    -0.251 OA
ENDBRANCH  13  14
ENDBRANCH  11  13
ENDBRANCH   5  11
BRANCH   6  17
ATOM     17  C   LIG A   1      -8.094   1.110 130.607  0.00  0.00    +0.129 C 
BRANCH  17  18
ATOM     18  C   LIG A   1      -8.778   0.624 131.860  0.00  0.00    +0.307 C 
ATOM     19  O   LIG A   1     -10.020   0.669 131.972  0.00  0.00    -0.251 OA
BRANCH  18  20
ATOM     20  O   LIG A   1      -7.983  -0.027 132.739  0.00  0.00    -0.468 OA
ATOM     21  C   LIG A   1      -6.788  -0.558 132.126  0.00  0.00    +0.280 C 
ENDBRANCH  18  20
ENDBRANCH  17  18
ENDBRANCH   6  17
BRANCH   4  22
ATOM     22  O   LIG A   1     -10.413   4.448 129.721  0.00  0.00    -0.309 OA
BRANCH  22  23
ATOM     23  C   LIG A   1     -11.474   5.317 130.192  0.00  0.00    +0.286 C 
ATOM     24  O   LIG A   1     -12.391   5.593 129.078  0.00  0.00    -0.340 OA
ATOM     25  C   LIG A   1     -12.468   6.986 128.672  0.00  0.00    +0.178 C 
ATOM     26  C   LIG A   1     -11.039   7.465 128.465  0.00  0.00    +0.177 C 
ATOM     27  C   LIG A   1     -10.465   7.688 129.858  0.00  0.00    +0.179 C 
ATOM     28  C   LIG A   1     -10.972   6.631 130.877  0.00  0.00    +0.201 C 
BRANCH  27  29
ATOM     29  O   LIG A   1      -9.057   7.817 129.731  0.00  0.00    -0.386 OA
ATOM     30  H   LIG A   1      -8.738   8.302 130.508  0.00  0.00    +0.210 HD
ENDBRANCH  27  29
BRANCH  26  31
ATOM     31  O   LIG A   1     -10.892   8.668 127.721  0.00  0.00    -0.387 OA
ATOM     32  H   LIG A   1     -10.585   9.344 128.356  0.00  0.00    +0.210 HD
ENDBRANCH  26  31
BRANCH  28  33
ATOM     33  O   LIG A   1     -12.062   7.196 131.642  0.00  0.00    -0.384 OA
ATOM     34  H   LIG A   1     -11.644   7.705 132.362  0.00  0.00    +0.210 HD
ENDBRANCH  28  33
BRANCH  25  35
ATOM     35  C   LIG A   1     -13.316   7.150 127.410  0.00  0.00    +0.190 C 
BRANCH  35  36
ATOM     36  O   LIG A   1     -12.629   6.642 126.271  0.00  0.00    -0.392 OA
ATOM     37  H   LIG A   1     -11.725   6.999 126.334  0.00  0.00    +0.209 HD
ENDBRANCH  35  36
ENDBRANCH  25  35
ENDBRANCH  22  23
ENDBRANCH   4  22
TORSDOF 15
ENDMDL
MODEL 2
REMARK VINA RESULT:      -6.9      1.699      3.989
REMARK  Name = NuBBE_110
REMARK  19 active torsions:
REMARK  status: ('A' for Active; 'I' for Inactive)
REMARK    1  A    between atoms: C_2  and  C_3
REMARK    2  A    between atoms: C_2  and  O_41
REMARK    3  A    between atoms: C_6  and  O_24
REMARK    4  A    between atoms: C_8  and  C_17
REMARK    5  A    between atoms: C_10  and  C_12
REMARK    6  A    between atoms: C_12  and  C_13
REMARK    7  A    between atoms: C_13  and  O_14
REMARK    8  A    between atoms: O_14  and  C_15
REMARK    9  A    between atoms: C_17  and  C_19
REMARK   10  A    between atoms: C_17  and  O_20
REMARK   11  A    between atoms: O_20  and  C_21
REMARK   12  A    between atoms: C_21  and  C_22
REMARK   13  A    between atoms: O_24  and  C_25
REMARK   14  A    between atoms: C_28  and  C_36
REMARK   15  A    between atoms: C_30  and  O_35
REMARK   16  A    between atoms: C_32  and  O_34
REMARK   17  A    between atoms: C_36  and  O_37
REMARK   18  A    between atoms: C_38  and  O_40
REMARK   19  A    between atoms: O_41  and  C_42
REMARK                            x       y       z     vdW  Elec       q    Type
REMARK                         _______ _______ _______ _____ _____    ______ ____
ROOT
ATOM      1  C   LIG A   1      -6.866   3.322 128.138  0.00  0.00    +0.075 C 
ATOM      2  C   LIG A   1      -6.720   3.751 129.404  0.00  0.00    +0.201 C 
ATOM      3  O   LIG A   1      -7.575   3.541 130.457  0.00  0.00    -0.470 OA
ATOM      4  C   LIG A   1      -8.842   2.992 130.102  0.00  0.00    +0.316 C 
ATOM      5  C   LIG A   1      -8.554   1.804 129.121  0.00  0.00    +0.106 C 
ATOM      6  C   LIG A   1      -8.090   2.469 127.754  0.00  0.00    +0.052 C 
ENDROOT
BRANCH   1   8
ATOM      7  O   LIG A   1      -4.645   3.741 127.294  0.00  0.00    -0.245 OA
ATOM      8  C   LIG A   1      -5.851   3.938 127.236  0.00  0.00    +0.338 C 
BRANCH   8   9
ATOM      9  O   LIG A   1      -6.472   4.894 126.542  0.00  0.00    -0.465 OA
ATOM     10  C   LIG A   1      -6.321   4.913 125.135  0.00  0.00    +0.280 C 
ENDBRANCH   8   9
ENDBRANCH   1   8
BRANCH   5  11
ATOM     11  C   LIG A   1      -7.536   0.708 129.762  0.00  0.00    +0.183 C 
ATOM     12  C   LIG A   1      -7.423  -0.718 129.178  0.00  0.00    +0.052 C 
BRANCH  11  13
ATOM     13  O   LIG A   1      -7.532   0.616 131.231  0.00  0.00    -0.461 OA
BRANCH  13  14
ATOM     14  C   LIG A   1      -8.475  -0.138 131.882  0.00  0.00    +0.304 C 
ATOM     15  C   LIG A   1      -7.850  -1.263 132.653  0.00  0.00    +0.136 C 
ATOM     16  O   LIG A   1      -9.675   0.099 131.899  0.00  0.00    -0.251 OA
ENDBRANCH  13  14
ENDBRANCH  11  13
ENDBRANCH   5  11
BRANCH   6  17
ATOM     17  C   LIG A   1      -8.214   1.377 126.649  0.00  0.00    +0.129 C 
BRANCH  17  18
ATOM     18  C   LIG A   1      -9.341   1.246 125.654  0.00  0.00    +0.307 C 
ATOM     19  O   LIG A   1      -9.581   2.154 124.834  0.00  0.00    -0.251 OA
BRANCH  18  20
ATOM     20  O   LIG A   1      -9.919   0.026 125.593  0.00  0.00    -0.468 OA
ATOM     21  C   LIG A   1      -8.973  -1.053 125.760  0.00  0.00    +0.280 C 
ENDBRANCH  18  20
ENDBRANCH  17  18
ENDBRANCH   6  17
BRANCH   4  22
ATOM     22  O   LIG A   1      -9.698   4.009 129.509  0.00  0.00    -0.309 OA
BRANCH  22  23
ATOM     23  C   LIG A   1     -10.702   4.598 130.374  0.00  0.00    +0.286 C 
ATOM     24  O   LIG A   1     -11.850   5.013 129.556  0.00  0.00    -0.340 OA
ATOM     25  C   LIG A   1     -12.116   6.442 129.545  0.00  0.00    +0.178 C 
ATOM     26  C   LIG A   1     -10.802   7.133 129.214  0.00  0.00    +0.177 C 
ATOM     27  C   LIG A   1      -9.971   7.088 130.489  0.00  0.00    +0.179 C 
ATOM     28  C   LIG A   1     -10.173   5.763 131.274  0.00  0.00    +0.201 C 
BRANCH  27  29
ATOM     29  O   LIG A   1      -8.635   7.422 130.148  0.00  0.00    -0.386 OA
ATOM     30  H   LIG A   1      -8.553   8.386 130.197  0.00  0.00    +0.210 HD
ENDBRANCH  27  29
BRANCH  26  31
ATOM     31  O   LIG A   1     -10.907   8.488 128.794  0.00  0.00    -0.387 OA
ATOM     32  H   LIG A   1     -10.561   8.516 127.880  0.00  0.00    +0.210 HD
ENDBRANCH  26  31
BRANCH  28  33
ATOM     33  O   LIG A   1     -11.120   5.985 132.344  0.00  0.00    -0.384 OA
ATOM     34  H   LIG A   1     -11.220   6.953 132.412  0.00  0.00    +0.210 HD
ENDBRANCH  28  33
BRANCH  25  35
ATOM     35  C   LIG A   1     -13.217   6.793 128.545  0.00  0.00    +0.190 C 
BRANCH  35  36
ATOM     36  O   LIG A   1     -12.731   6.711 127.209  0.00  0.00    -0.392 OA
ATOM     37  H   LIG A   1     -12.001   7.355 127.160  0.00  0.00    +0.209 HD
ENDBRANCH  35  36
ENDBRANCH  25  35
ENDBRANCH  22  23
ENDBRANCH   4  22
TORSDOF 15
ENDMDL
MODEL 3
REMARK VINA RESULT:      -6.5      2.636      4.816
REMARK  Name = NuBBE_110
REMARK  19 active torsions:
REMARK  status: ('A' for Active; 'I' for Inactive)
REMARK    1  A    between atoms: C_2  and  C_3
REMARK    2  A    between atoms: C_2  and  O_41
REMARK    3  A    between atoms: C_6  and  O_24
REMARK    4  A    between atoms: C_8  and  C_17
REMARK    5  A    between atoms: C_10  and  C_12
REMARK    6  A    between atoms: C_12  and  C_13
REMARK    7  A    between atoms: C_13  and  O_14
REMARK    8  A    between atoms: O_14  and  C_15
REMARK    9  A    between atoms: C_17  and  C_19
REMARK   10  A    between atoms: C_17  and  O_20
REMARK   11  A    between atoms: O_20  and  C_21
REMARK   12  A    between atoms: C_21  and  C_22
REMARK   13  A    between atoms: O_24  and  C_25
REMARK   14  A    between atoms: C_28  and  C_36
REMARK   15  A    between atoms: C_30  and  O_35
REMARK   16  A    between atoms: C_32  and  O_34
REMARK   17  A    between atoms: C_36  and  O_37
REMARK   18  A    between atoms: C_38  and  O_40
REMARK   19  A    between atoms: O_41  and  C_42
REMARK                            x       y       z     vdW  Elec       q    Type
REMARK                         _______ _______ _______ _____ _____    ______ ____
ROOT
ATOM      1  C   LIG A   1      -8.834   1.595 125.380  0.00  0.00    +0.075 C 
ATOM      2  C   LIG A   1      -8.466   2.866 125.621  0.00  0.00    +0.201 C 
ATOM      3  O   LIG A   1      -7.891   3.362 126.765  0.00  0.00    -0.470 OA
ATOM      4  C   LIG A   1      -7.889   2.466 127.875  0.00  0.00    +0.316 C 
ATOM      5  C   LIG A   1      -7.398   1.082 127.328  0.00  0.00    +0.106 C 
ATOM      6  C   LIG A   1      -8.592   0.511 126.448  0.00  0.00    +0.052 C 
ENDROOT
BRANCH   1   8
ATOM      7  O   LIG A   1     -10.790   1.125 124.051  0.00  0.00    -0.245 OA
ATOM      8  C   LIG A   1      -9.625   1.490 124.121  0.00  0.00    +0.338 C 
BRANCH   8   9
ATOM      9  O   LIG A   1      -8.769   1.632 123.107  0.00  0.00    -0.465 OA
ATOM     10  C   LIG A   1      -7.637   0.783 123.056  0.00  0.00    +0.280 C 
ENDBRANCH   8   9
ENDBRANCH   1   8
BRANCH   5  11
ATOM     11  C   LIG A   1      -5.953   1.188 126.587  0.00  0.00    +0.183 C 
ATOM     12  C   LIG A   1      -5.200  -0.076 126.116  0.00  0.00    +0.052 C 
BRANCH  11  13
ATOM     13  O   LIG A   1      -4.985   2.114 127.195  0.00  0.00    -0.461 OA
BRANCH  13  14
ATOM     14  C   LIG A   1      -4.273   2.988 126.413  0.00  0.00    +0.304 C 
ATOM     15  C   LIG A   1      -2.804   2.924 126.705  0.00  0.00    +0.136 C 
ATOM     16  O   LIG A   1      -4.750   3.693 125.535  0.00  0.00    -0.251 OA
ENDBRANCH  13  14
ENDBRANCH  11  13
ENDBRANCH   5  11
BRANCH   6  17
ATOM     17  C   LIG A   1      -8.330  -1.013 126.253  0.00  0.00    +0.129 C 
BRANCH  17  18
ATOM     18  C   LIG A   1      -9.240  -1.987 125.548  0.00  0.00    +0.307 C 
ATOM     19  O   LIG A   1      -9.479  -1.874 124.329  0.00  0.00    -0.251 OA
BRANCH  18  20
ATOM     20  O   LIG A   1      -9.602  -3.069 126.272  0.00  0.00    -0.468 OA
ATOM     21  C   LIG A   1      -8.660  -3.383 127.321  0.00  0.00    +0.280 C 
ENDBRANCH  18  20
ENDBRANCH  17  18
ENDBRANCH   6  17
BRANCH   4  22
ATOM     22  O   LIG A   1      -9.210   2.389 128.479  0.00  0.00    -0.309 OA
BRANCH  22  23
ATOM     23  C   LIG A   1      -9.303   2.739 129.884  0.00  0.00    +0.286 C 
ATOM     24  O   LIG A   1     -10.519   3.536 130.095  0.00  0.00    -0.340 OA
ATOM     25  C   LIG A   1     -10.295   4.896 130.554  0.00  0.00    +0.178 C 
ATOM     26  C   LIG A   1      -9.272   5.516 129.615  0.00  0.00    +0.177 C 
ATOM     27  C   LIG A   1      -7.923   4.936 130.021  0.00  0.00    +0.179 C 
ATOM     28  C   LIG A   1      -8.032   3.449 130.455  0.00  0.00    +0.201 C 
BRANCH  27  29
ATOM     29  O   LIG A   1      -6.998   5.224 128.984  0.00  0.00    -0.386 OA
ATOM     30  H   LIG A   1      -7.359   4.862 128.161  0.00  0.00    +0.210 HD
ENDBRANCH  27  29
BRANCH  26  31
ATOM     31  O   LIG A   1      -9.180   6.934 129.652  0.00  0.00    -0.387 OA
ATOM     32  H   LIG A   1     -10.094   7.263 129.763  0.00  0.00    +0.210 HD
ENDBRANCH  26  31
BRANCH  28  33
ATOM     33  O   LIG A   1      -8.075   3.379 131.899  0.00  0.00    -0.384 OA
ATOM     34  H   LIG A   1      -8.797   2.760 132.113  0.00  0.00    +0.210 HD
ENDBRANCH  28  33
BRANCH  25  35
ATOM     35  C   LIG A   1     -11.599   5.693 130.588  0.00  0.00    +0.190 C 
BRANCH  35  36
ATOM     36  O   LIG A   1     -11.987   5.969 131.930  0.00  0.00    -0.392 OA
ATOM     37  H   LIG A   1     -12.463   5.174 132.230  0.00  0.00    +0.209 HD
ENDBRANCH  35  36
ENDBRANCH  25  35
ENDBRANCH  22  23
ENDBRANCH   4  22
TORSDOF 15
ENDMDL
MODEL 4
REMARK VINA RESULT:      -6.3      1.642      2.133
REMARK  Name = NuBBE_110
REMARK  19 active torsions:
REMARK  status: ('A' for Active; 'I' for Inactive)
REMARK    1  A    between atoms: C_2  and  C_3
REMARK    2  A    between atoms: C_2  and  O_41
REMARK    3  A    between atoms: C_6  and  O_24
REMARK    4  A    between atoms: C_8  and  C_17
REMARK    5  A    between atoms: C_10  and  C_12
REMARK    6  A    between atoms: C_12  and  C_13
REMARK    7  A    between atoms: C_13  and  O_14
REMARK    8  A    between atoms: O_14  and  C_15
REMARK    9  A    between atoms: C_17  and  C_19
REMARK   10  A    between atoms: C_17  and  O_20
REMARK   11  A    between atoms: O_20  and  C_21
REMARK   12  A    between atoms: C_21  and  C_22
REMARK   13  A    between atoms: O_24  and  C_25
REMARK   14  A    between atoms: C_28  and  C_36
REMARK   15  A    between atoms: C_30  and  O_35
REMARK   16  A    between atoms: C_32  and  O_34
REMARK   17  A    between atoms: C_36  and  O_37
REMARK   18  A    between atoms: C_38  and  O_40
REMARK   19  A    between atoms: O_41  and  C_42
REMARK                            x       y       z     vdW  Elec       q    Type
REMARK                         _______ _______ _______ _____ _____    ______ ____
ROOT
ATOM      1  C   LIG A   1      -7.494   2.739 127.983  0.00  0.00    +0.075 C 
ATOM      2  C   LIG A   1      -7.334   4.067 128.123  0.00  0.00    +0.201 C 
ATOM      3  O   LIG A   1      -7.722   4.843 129.188  0.00  0.00    -0.470 OA
ATOM      4  C   LIG A   1      -8.567   4.189 130.132  0.00  0.00    +0.316 C 
ATOM      5  C   LIG A   1      -7.915   2.793 130.420  0.00  0.00    +0.106 C 
ATOM      6  C   LIG A   1      -8.152   1.922 129.111  0.00  0.00    +0.052 C 
ENDROOT
BRANCH   1   8
ATOM      7  O   LIG A   1      -7.907   1.701 125.846  0.00  0.00    -0.245 OA
ATOM      8  C   LIG A   1      -7.152   2.295 126.601  0.00  0.00    +0.338 C 
BRANCH   8   9
ATOM      9  O   LIG A   1      -5.834   2.453 126.454  0.00  0.00    -0.465 OA
ATOM     10  C   LIG A   1      -5.025   1.297 126.340  0.00  0.00    +0.280 C 
ENDBRANCH   8   9
ENDBRANCH   1   8
BRANCH   5  11
ATOM     11  C   LIG A   1      -6.372   2.922 130.921  0.00  0.00    +0.183 C 
ATOM     12  C   LIG A   1      -5.596   1.695 131.448  0.00  0.00    +0.052 C 
BRANCH  11  13
ATOM     13  O   LIG A   1      -6.071   4.076 131.782  0.00  0.00    -0.461 OA
BRANCH  13  14
ATOM     14  C   LIG A   1      -5.101   4.977 131.422  0.00  0.00    +0.304 C 
ATOM     15  C   LIG A   1      -4.889   6.017 132.481  0.00  0.00    +0.136 C 
ATOM     16  O   LIG A   1      -4.433   4.919 130.398  0.00  0.00    -0.251 OA
ENDBRANCH  13  14
ENDBRANCH  11  13
ENDBRANCH   5  11
BRANCH   6  17
ATOM     17  C   LIG A   1      -7.920   0.432 129.504  0.00  0.00    +0.129 C 
BRANCH  17  18
ATOM     18  C   LIG A   1      -7.161  -0.590 128.696  0.00  0.00    +0.307 C 
ATOM     19  O   LIG A   1      -6.032  -0.980 129.053  0.00  0.00    -0.251 OA
BRANCH  18  20
ATOM     20  O   LIG A   1      -7.862  -1.177 127.700  0.00  0.00    -0.468 OA
ATOM     21  C   LIG A   1      -7.592  -2.592 127.583  0.00  0.00    +0.280 C 
ENDBRANCH  18  20
ENDBRANCH  17  18
ENDBRANCH   6  17
BRANCH   4  22
ATOM     22  O   LIG A   1      -9.924   4.076 129.621  0.00  0.00    -0.309 OA
BRANCH  22  23
ATOM     23  C   LIG A   1     -10.957   4.776 130.360  0.00  0.00    +0.286 C 
ATOM     24  O   LIG A   1     -12.022   5.173 129.428  0.00  0.00    -0.340 OA
ATOM     25  C   LIG A   1     -12.217   6.605 129.286  0.00  0.00    +0.178 C 
ATOM     26  C   LIG A   1     -10.851   7.211 129.001  0.00  0.00    +0.177 C 
ATOM     27  C   LIG A   1     -10.115   7.234 130.334  0.00  0.00    +0.179 C 
ATOM     28  C   LIG A   1     -10.436   5.987 131.202  0.00  0.00    +0.201 C 
BRANCH  27  29
ATOM     29  O   LIG A   1      -8.743   7.481 130.068  0.00  0.00    -0.386 OA
ATOM     30  H   LIG A   1      -8.630   7.493 129.105  0.00  0.00    +0.210 HD
ENDBRANCH  27  29
BRANCH  26  31
ATOM     31  O   LIG A   1     -10.859   8.530 128.469  0.00  0.00    -0.387 OA
ATOM     32  H   LIG A   1     -11.300   8.469 127.599  0.00  0.00    +0.210 HD
ENDBRANCH  26  31
BRANCH  28  33
ATOM     33  O   LIG A   1     -11.445   6.337 132.178  0.00  0.00    -0.384 OA
ATOM     34  H   LIG A   1     -11.637   5.515 132.667  0.00  0.00    +0.210 HD
ENDBRANCH  28  33
BRANCH  25  35
ATOM     35  C   LIG A   1     -13.226   6.921 128.182  0.00  0.00    +0.190 C 
BRANCH  35  36
ATOM     36  O   LIG A   1     -12.647   6.720 126.896  0.00  0.00    -0.392 OA
ATOM     37  H   LIG A   1     -13.398   6.677 126.279  0.00  0.00    +0.209 HD
ENDBRANCH  35  36
ENDBRANCH  25  35
ENDBRANCH  22  23
ENDBRANCH   4  22
TORSDOF 15
ENDMDL
MODEL 5
REMARK VINA RESULT:      -6.3      1.604      4.427
REMARK  Name = NuBBE_110
REMARK  19 active torsions:
REMARK  status: ('A' for Active; 'I' for Inactive)
REMARK    1  A    between atoms: C_2  and  C_3
REMARK    2  A    between atoms: C_2  and  O_41
REMARK    3  A    between atoms: C_6  and  O_24
REMARK    4  A    between atoms: C_8  and  C_17
REMARK    5  A    between atoms: C_10  and  C_12
REMARK    6  A    between atoms: C_12  and  C_13
REMARK    7  A    between atoms: C_13  and  O_14
REMARK    8  A    between atoms: O_14  and  C_15
REMARK    9  A    between atoms: C_17  and  C_19
REMARK   10  A    between atoms: C_17  and  O_20
REMARK   11  A    between atoms: O_20  and  C_21
REMARK   12  A    between atoms: C_21  and  C_22
REMARK   13  A    between atoms: O_24  and  C_25
REMARK   14  A    between atoms: C_28  and  C_36
REMARK   15  A    between atoms: C_30  and  O_35
REMARK   16  A    between atoms: C_32  and  O_34
REMARK   17  A    between atoms: C_36  and  O_37
REMARK   18  A    between atoms: C_38  and  O_40
REMARK   19  A    between atoms: O_41  and  C_42
REMARK                            x       y       z     vdW  Elec       q    Type
REMARK                         _______ _______ _______ _____ _____    ______ ____
ROOT
ATOM      1  C   LIG A   1      -6.879   3.702 129.689  0.00  0.00    +0.075 C 
ATOM      2  C   LIG A   1      -7.411   3.759 130.922  0.00  0.00    +0.201 C 
ATOM      3  O   LIG A   1      -8.637   3.288 131.322  0.00  0.00    -0.470 OA
ATOM      4  C   LIG A   1      -9.504   2.893 130.261  0.00  0.00    +0.316 C 
ATOM      5  C   LIG A   1      -8.645   2.017 129.287  0.00  0.00    +0.106 C 
ATOM      6  C   LIG A   1      -7.661   3.022 128.548  0.00  0.00    +0.052 C 
ENDROOT
BRANCH   1   8
ATOM      7  O   LIG A   1      -5.578   5.675 129.208  0.00  0.00    -0.245 OA
ATOM      8  C   LIG A   1      -5.634   4.517 129.596  0.00  0.00    +0.338 C 
BRANCH   8   9
ATOM      9  O   LIG A   1      -4.607   3.684 129.780  0.00  0.00    -0.465 OA
ATOM     10  C   LIG A   1      -3.766   3.398 128.678  0.00  0.00    +0.280 C 
ENDBRANCH   8   9
ENDBRANCH   1   8
BRANCH   5  11
ATOM     11  C   LIG A   1      -7.943   0.758 130.044  0.00  0.00    +0.183 C 
ATOM     12  C   LIG A   1      -7.305  -0.401 129.247  0.00  0.00    +0.052 C 
BRANCH  11  13
ATOM     13  O   LIG A   1      -8.689   0.195 131.180  0.00  0.00    -0.461 OA
BRANCH  13  14
ATOM     14  C   LIG A   1      -8.058  -0.045 132.374  0.00  0.00    +0.304 C 
ATOM     15  C   LIG A   1      -7.935  -1.514 132.651  0.00  0.00    +0.136 C 
ATOM     16  O   LIG A   1      -7.587   0.815 133.106  0.00  0.00    -0.251 OA
ENDBRANCH  13  14
ENDBRANCH  11  13
ENDBRANCH   5  11
BRANCH   6  17
ATOM     17  C   LIG A   1      -7.112   2.284 127.290  0.00  0.00    +0.129 C 
BRANCH  17  18
ATOM     18  C   LIG A   1      -6.609   2.937 126.027  0.00  0.00    +0.307 C 
ATOM     19  O   LIG A   1      -5.444   2.747 125.626  0.00  0.00    -0.251 OA
BRANCH  18  20
ATOM     20  O   LIG A   1      -7.550   3.561 125.284  0.00  0.00    -0.468 OA
ATOM     21  C   LIG A   1      -8.606   2.674 124.856  0.00  0.00    +0.280 C 
ENDBRANCH  18  20
ENDBRANCH  17  18
ENDBRANCH   6  17
BRANCH   4  22
ATOM     22  O   LIG A   1     -10.080   4.057 129.604  0.00  0.00    -0.309 OA
BRANCH  22  23
ATOM     23  C   LIG A   1     -10.941   4.900 130.411  0.00  0.00    +0.286 C 
ATOM     24  O   LIG A   1     -11.973   5.489 129.548  0.00  0.00    -0.340 OA
ATOM     25  C   LIG A   1     -11.935   6.937 129.439  0.00  0.00    +0.178 C 
ATOM     26  C   LIG A   1     -10.505   7.315 129.086  0.00  0.00    +0.177 C 
ATOM     27  C   LIG A   1      -9.705   7.185 130.374  0.00  0.00    +0.179 C 
ATOM     28  C   LIG A   1     -10.181   5.987 131.241  0.00  0.00    +0.201 C 
BRANCH  27  29
ATOM     29  O   LIG A   1      -8.327   7.208 130.034  0.00  0.00    -0.386 OA
ATOM     30  H   LIG A   1      -7.869   6.593 130.627  0.00  0.00    +0.210 HD
ENDBRANCH  27  29
BRANCH  26  31
ATOM     31  O   LIG A   1     -10.322   8.630 128.575  0.00  0.00    -0.387 OA
ATOM     32  H   LIG A   1      -9.520   8.596 128.018  0.00  0.00    +0.210 HD
ENDBRANCH  26  31
BRANCH  28  33
ATOM     33  O   LIG A   1     -11.063   6.474 132.278  0.00  0.00    -0.384 OA
ATOM     34  H   LIG A   1     -11.951   6.509 131.876  0.00  0.00    +0.210 HD
ENDBRANCH  28  33
BRANCH  25  35
ATOM     35  C   LIG A   1     -12.935   7.442 128.400  0.00  0.00    +0.190 C 
BRANCH  35  36
ATOM     36  O   LIG A   1     -13.153   8.842 128.547  0.00  0.00    -0.392 OA
ATOM     37  H   LIG A   1     -13.362   8.973 129.489  0.00  0.00    +0.209 HD
ENDBRANCH  35  36
ENDBRANCH  25  35
ENDBRANCH  22  23
ENDBRANCH   4  22
TORSDOF 15
ENDMDL
MODEL 6
REMARK VINA RESULT:      -6.2      2.309      3.783
REMARK  Name = NuBBE_110
REMARK  19 active torsions:
REMARK  status: ('A' for Active; 'I' for Inactive)
REMARK    1  A    between atoms: C_2  and  C_3
REMARK    2  A    between atoms: C_2  and  O_41
REMARK    3  A    between atoms: C_6  and  O_24
REMARK    4  A    between atoms: C_8  and  C_17
REMARK    5  A    between atoms: C_10  and  C_12
REMARK    6  A    between atoms: C_12  and  C_13
REMARK    7  A    between atoms: C_13  and  O_14
REMARK    8  A    between atoms: O_14  and  C_15
REMARK    9  A    between atoms: C_17  and  C_19
REMARK   10  A    between atoms: C_17  and  O_20
REMARK   11  A    between atoms: O_20  and  C_21
REMARK   12  A    between atoms: C_21  and  C_22
REMARK   13  A    between atoms: O_24  and  C_25
REMARK   14  A    between atoms: C_28  and  C_36
REMARK   15  A    between atoms: C_30  and  O_35
REMARK   16  A    between atoms: C_32  and  O_34
REMARK   17  A    between atoms: C_36  and  O_37
REMARK   18  A    between atoms: C_38  and  O_40
REMARK   19  A    between atoms: O_41  and  C_42
REMARK                            x       y       z     vdW  Elec       q    Type
REMARK                         _______ _______ _______ _____ _____    ______ ____
ROOT
ATOM      1  C   LIG A   1      -7.770   2.778 126.623  0.00  0.00    +0.075 C 
ATOM      2  C   LIG A   1      -7.348   3.824 127.354  0.00  0.00    +0.201 C 
ATOM      3  O   LIG A   1      -7.416   3.967 128.718  0.00  0.00    -0.470 OA
ATOM      4  C   LIG A   1      -8.210   2.989 129.386  0.00  0.00    +0.316 C 
ATOM      5  C   LIG A   1      -7.793   1.598 128.797  0.00  0.00    +0.106 C 
ATOM      6  C   LIG A   1      -8.386   1.551 127.323  0.00  0.00    +0.052 C 
ENDROOT
BRANCH   1   8
ATOM      7  O   LIG A   1      -8.558   3.764 124.568  0.00  0.00    -0.245 OA
ATOM      8  C   LIG A   1      -7.734   3.085 125.165  0.00  0.00    +0.338 C 
BRANCH   8   9
ATOM      9  O   LIG A   1      -6.800   2.302 124.622  0.00  0.00    -0.465 OA
ATOM     10  C   LIG A   1      -7.109   1.612 123.426  0.00  0.00    +0.280 C 
ENDBRANCH   8   9
ENDBRANCH   1   8
BRANCH   5  11
ATOM     11  C   LIG A   1      -6.194   1.326 128.931  0.00  0.00    +0.183 C 
ATOM     12  C   LIG A   1      -5.624  -0.110 128.944  0.00  0.00    +0.052 C 
BRANCH  11  13
ATOM     13  O   LIG A   1      -5.489   2.121 129.949  0.00  0.00    -0.461 OA
BRANCH  13  14
ATOM     14  C   LIG A   1      -4.302   2.739 129.648  0.00  0.00    +0.304 C 
ATOM     15  C   LIG A   1      -4.026   2.723 128.173  0.00  0.00    +0.136 C 
ATOM     16  O   LIG A   1      -3.575   3.297 130.458  0.00  0.00    -0.251 OA
ENDBRANCH  13  14
ENDBRANCH  11  13
ENDBRANCH   5  11
BRANCH   6  17
ATOM     17  C   LIG A   1      -8.376   0.060 126.873  0.00  0.00    +0.129 C 
BRANCH  17  18
ATOM     18  C   LIG A   1      -9.147  -0.522 125.714  0.00  0.00    +0.307 C 
ATOM     19  O   LIG A   1      -9.994   0.157 125.102  0.00  0.00    -0.251 OA
BRANCH  18  20
ATOM     20  O   LIG A   1      -8.717  -1.729 125.282  0.00  0.00    -0.468 OA
ATOM     21  C   LIG A   1      -8.871  -1.901 123.856  0.00  0.00    +0.280 C 
ENDBRANCH  18  20
ENDBRANCH  17  18
ENDBRANCH   6  17
BRANCH   4  22
ATOM     22  O   LIG A   1      -9.628   3.266 129.209  0.00  0.00    -0.309 OA
BRANCH  22  23
ATOM     23  C   LIG A   1     -10.333   3.805 130.357  0.00  0.00    +0.286 C 
ATOM     24  O   LIG A   1     -11.533   4.511 129.888  0.00  0.00    -0.340 OA
ATOM     25  C   LIG A   1     -11.557   5.938 130.162  0.00  0.00    +0.178 C 
ATOM     26  C   LIG A   1     -10.237   6.505 129.662  0.00  0.00    +0.177 C 
ATOM     27  C   LIG A   1      -9.192   6.114 130.698  0.00  0.00    +0.179 C 
ATOM     28  C   LIG A   1      -9.453   4.701 131.289  0.00  0.00    +0.201 C 
BRANCH  27  29
ATOM     29  O   LIG A   1      -7.911   6.333 130.127  0.00  0.00    -0.386 OA
ATOM     30  H   LIG A   1      -7.961   7.145 129.601  0.00  0.00    +0.210 HD
ENDBRANCH  27  29
BRANCH  26  31
ATOM     31  O   LIG A   1     -10.197   7.917 129.494  0.00  0.00    -0.387 OA
ATOM     32  H   LIG A   1     -10.847   8.126 128.795  0.00  0.00    +0.210 HD
ENDBRANCH  26  31
BRANCH  28  33
ATOM     33  O   LIG A   1     -10.123   4.838 132.563  0.00  0.00    -0.384 OA
ATOM     34  H   LIG A   1      -9.890   5.726 132.892  0.00  0.00    +0.210 HD
ENDBRANCH  28  33
BRANCH  25  35
ATOM     35  C   LIG A   1     -12.758   6.610 129.498  0.00  0.00    +0.190 C 
BRANCH  35  36
ATOM     36  O   LIG A   1     -12.954   7.921 130.018  0.00  0.00    -0.392 OA
ATOM     37  H   LIG A   1     -13.653   7.831 130.690  0.00  0.00    +0.209 HD
ENDBRANCH  35  36
ENDBRANCH  25  35
ENDBRANCH  22  23
ENDBRANCH   4  22
TORSDOF 15
ENDMDL
MODEL 7
REMARK VINA RESULT:      -6.2      2.022      6.003
REMARK  Name = NuBBE_110
REMARK  19 active torsions:
REMARK  status: ('A' for Active; 'I' for Inactive)
REMARK    1  A    between atoms: C_2  and  C_3
REMARK    2  A    between atoms: C_2  and  O_41
REMARK    3  A    between atoms: C_6  and  O_24
REMARK    4  A    between atoms: C_8  and  C_17
REMARK    5  A    between atoms: C_10  and  C_12
REMARK    6  A    between atoms: C_12  and  C_13
REMARK    7  A    between atoms: C_13  and  O_14
REMARK    8  A    between atoms: O_14  and  C_15
REMARK    9  A    between atoms: C_17  and  C_19
REMARK   10  A    between atoms: C_17  and  O_20
REMARK   11  A    between atoms: O_20  and  C_21
REMARK   12  A    between atoms: C_21  and  C_22
REMARK   13  A    between atoms: O_24  and  C_25
REMARK   14  A    between atoms: C_28  and  C_36
REMARK   15  A    between atoms: C_30  and  O_35
REMARK   16  A    between atoms: C_32  and  O_34
REMARK   17  A    between atoms: C_36  and  O_37
REMARK   18  A    between atoms: C_38  and  O_40
REMARK   19  A    between atoms: O_41  and  C_42
REMARK                            x       y       z     vdW  Elec       q    Type
REMARK                         _______ _______ _______ _____ _____    ______ ____
ROOT
ATOM      1  C   LIG A   1      -6.872   3.741 130.566  0.00  0.00    +0.075 C 
ATOM      2  C   LIG A   1      -6.370   4.400 129.507  0.00  0.00    +0.201 C 
ATOM      3  O   LIG A   1      -7.043   4.794 128.377  0.00  0.00    -0.470 OA
ATOM      4  C   LIG A   1      -8.355   4.253 128.240  0.00  0.00    +0.316 C 
ATOM      5  C   LIG A   1      -9.057   4.429 129.631  0.00  0.00    +0.106 C 
ATOM      6  C   LIG A   1      -8.369   3.376 130.603  0.00  0.00    +0.052 C 
ENDROOT
BRANCH   1   8
ATOM      7  O   LIG A   1      -5.408   2.138 131.616  0.00  0.00    -0.245 OA
ATOM      8  C   LIG A   1      -5.791   3.292 131.489  0.00  0.00    +0.338 C 
BRANCH   8   9
ATOM      9  O   LIG A   1      -5.508   4.321 132.291  0.00  0.00    -0.465 OA
ATOM     10  C   LIG A   1      -4.177   4.476 132.745  0.00  0.00    +0.280 C 
ENDBRANCH   8   9
ENDBRANCH   1   8
BRANCH   5  11
ATOM     11  C   LIG A   1      -9.049   5.976 130.135  0.00  0.00    +0.183 C 
ATOM     12  C   LIG A   1      -9.747   6.393 131.449  0.00  0.00    +0.052 C 
BRANCH  11  13
ATOM     13  O   LIG A   1      -9.336   6.989 129.107  0.00  0.00    -0.461 OA
BRANCH  13  14
ATOM     14  C   LIG A   1     -10.617   7.169 128.648  0.00  0.00    +0.304 C 
ATOM     15  C   LIG A   1     -10.875   8.598 128.271  0.00  0.00    +0.136 C 
ATOM     16  O   LIG A   1     -11.440   6.277 128.496  0.00  0.00    -0.251 OA
ENDBRANCH  13  14
ENDBRANCH  11  13
ENDBRANCH   5  11
BRANCH   6  17
ATOM     17  C   LIG A   1      -9.306   3.212 131.837  0.00  0.00    +0.129 C 
BRANCH  17  18
ATOM     18  C   LIG A   1      -8.870   2.906 133.248  0.00  0.00    +0.307 C 
ATOM     19  O   LIG A   1      -8.121   1.940 133.492  0.00  0.00    -0.251 OA
BRANCH  18  20
ATOM     20  O   LIG A   1      -9.181   3.848 134.167  0.00  0.00    -0.468 OA
ATOM     21  C   LIG A   1      -8.016   4.494 134.724  0.00  0.00    +0.280 C 
ENDBRANCH  18  20
ENDBRANCH  17  18
ENDBRANCH   6  17
BRANCH   4  22
ATOM     22  O   LIG A   1      -8.300   2.863 127.816  0.00  0.00    -0.309 OA
BRANCH  22  23
ATOM     23  C   LIG A   1      -7.762   2.608 126.493  0.00  0.00    +0.286 C 
ATOM     24  O   LIG A   1      -8.863   2.630 125.520  0.00  0.00    -0.340 OA
ATOM     25  C   LIG A   1      -9.104   1.373 124.832  0.00  0.00    +0.178 C 
ATOM     26  C   LIG A   1      -9.208   0.297 125.902  0.00  0.00    +0.177 C 
ATOM     27  C   LIG A   1      -7.782   0.014 126.354  0.00  0.00    +0.179 C 
ATOM     28  C   LIG A   1      -6.911   1.300 126.385  0.00  0.00    +0.201 C 
BRANCH  27  29
ATOM     29  O   LIG A   1      -7.848  -0.732 127.560  0.00  0.00    -0.386 OA
ATOM     30  H   LIG A   1      -7.709  -0.114 128.293  0.00  0.00    +0.210 HD
ENDBRANCH  27  29
BRANCH  26  31
ATOM     31  O   LIG A   1      -9.800  -0.929 125.489  0.00  0.00    -0.387 OA
ATOM     32  H   LIG A   1     -10.743  -0.872 125.738  0.00  0.00    +0.210 HD
ENDBRANCH  26  31
BRANCH  28  33
ATOM     33  O   LIG A   1      -6.118   1.364 125.177  0.00  0.00    -0.384 OA
ATOM     34  H   LIG A   1      -5.861   2.300 125.078  0.00  0.00    +0.210 HD
ENDBRANCH  28  33
BRANCH  25  35
ATOM     35  C   LIG A   1     -10.363   1.446 123.968  0.00  0.00    +0.190 C 
BRANCH  35  36
ATOM     36  O   LIG A   1     -10.372   0.400 123.002  0.00  0.00    -0.392 OA
ATOM     37  H   LIG A   1      -9.678   0.634 122.360  0.00  0.00    +0.209 HD
ENDBRANCH  35  36
ENDBRANCH  25  35
ENDBRANCH  22  23
ENDBRANCH   4  22
TORSDOF 15
ENDMDL
MODEL 8
REMARK VINA RESULT:      -6.1      2.668      5.923
REMARK  Name = NuBBE_110
REMARK  19 active torsions:
REMARK  status: ('A' for Active; 'I' for Inactive)
REMARK    1  A    between atoms: C_2  and  C_3
REMARK    2  A    between atoms: C_2  and  O_41
REMARK    3  A    between atoms: C_6  and  O_24
REMARK    4  A    between atoms: C_8  and  C_17
REMARK    5  A    between atoms: C_10  and  C_12
REMARK    6  A    between atoms: C_12  and  C_13
REMARK    7  A    between atoms: C_13  and  O_14
REMARK    8  A    between atoms: O_14  and  C_15
REMARK    9  A    between atoms: C_17  and  C_19
REMARK   10  A    between atoms: C_17  and  O_20
REMARK   11  A    between atoms: O_20  and  C_21
REMARK   12  A    between atoms: C_21  and  C_22
REMARK   13  A    between atoms: O_24  and  C_25
REMARK   14  A    between atoms: C_28  and  C_36
REMARK   15  A    between atoms: C_30  and  O_35
REMARK   16  A    between atoms: C_32  and  O_34
REMARK   17  A    between atoms: C_36  and  O_37
REMARK   18  A    between atoms: C_38  and  O_40
REMARK   19  A    between atoms: O_41  and  C_42
REMARK                            x       y       z     vdW  Elec       q    Type
REMARK                         _______ _______ _______ _____ _____    ______ ____
ROOT
ATOM      1  C   LIG A   1      -6.047   2.396 127.641  0.00  0.00    +0.075 C 
ATOM      2  C   LIG A   1      -6.141   1.968 128.912  0.00  0.00    +0.201 C 
ATOM      3  O   LIG A   1      -7.207   1.333 129.499  0.00  0.00    -0.470 OA
ATOM      4  C   LIG A   1      -8.405   1.327 128.724  0.00  0.00    +0.316 C 
ATOM      5  C   LIG A   1      -7.992   0.913 127.270  0.00  0.00    +0.106 C 
ATOM      6  C   LIG A   1      -7.215   2.160 126.664  0.00  0.00    +0.052 C 
ENDROOT
BRANCH   1   8
ATOM      7  O   LIG A   1      -4.726   4.410 127.768  0.00  0.00    -0.245 OA
ATOM      8  C   LIG A   1      -4.832   3.236 127.440  0.00  0.00    +0.338 C 
BRANCH   8   9
ATOM      9  O   LIG A   1      -4.010   2.551 126.643  0.00  0.00    -0.465 OA
ATOM     10  C   LIG A   1      -2.655   2.953 126.567  0.00  0.00    +0.280 C 
ENDBRANCH   8   9
ENDBRANCH   1   8
BRANCH   5  11
ATOM     11  C   LIG A   1      -7.198  -0.508 127.235  0.00  0.00    +0.183 C 
ATOM     12  C   LIG A   1      -6.037  -0.752 126.244  0.00  0.00    +0.052 C 
BRANCH  11  13
ATOM     13  O   LIG A   1      -8.037  -1.714 127.284  0.00  0.00    -0.461 OA
BRANCH  13  14
ATOM     14  C   LIG A   1      -8.759  -2.103 126.184  0.00  0.00    +0.304 C 
ATOM     15  C   LIG A   1      -8.479  -3.529 125.811  0.00  0.00    +0.136 C 
ATOM     16  O   LIG A   1      -9.584  -1.410 125.604  0.00  0.00    -0.251 OA
ENDBRANCH  13  14
ENDBRANCH  11  13
ENDBRANCH   5  11
BRANCH   6  17
ATOM     17  C   LIG A   1      -7.174   1.967 125.118  0.00  0.00    +0.129 C 
BRANCH  17  18
ATOM     18  C   LIG A   1      -7.470   3.024 124.084  0.00  0.00    +0.307 C 
ATOM     19  O   LIG A   1      -8.554   3.640 124.089  0.00  0.00    -0.251 OA
BRANCH  18  20
ATOM     20  O   LIG A   1      -6.426   3.378 123.302  0.00  0.00    -0.468 OA
ATOM     21  C   LIG A   1      -5.579   4.375 123.915  0.00  0.00    +0.280 C 
ENDBRANCH  18  20
ENDBRANCH  17  18
ENDBRANCH   6  17
BRANCH   4  22
ATOM     22  O   LIG A   1      -9.056   2.628 128.769  0.00  0.00    -0.309 OA
BRANCH  22  23
ATOM     23  C   LIG A   1      -9.525   3.074 130.067  0.00  0.00    +0.286 C 
ATOM     24  O   LIG A   1     -10.748   3.867 129.882  0.00  0.00    -0.340 OA
ATOM     25  C   LIG A   1     -10.648   5.259 130.286  0.00  0.00    +0.178 C 
ATOM     26  C   LIG A   1      -9.405   5.825 129.618  0.00  0.00    +0.177 C 
ATOM     27  C   LIG A   1      -8.221   5.294 130.415  0.00  0.00    +0.179 C 
ATOM     28  C   LIG A   1      -8.453   3.840 130.910  0.00  0.00    +0.201 C 
BRANCH  27  29
ATOM     29  O   LIG A   1      -7.047   5.522 129.652  0.00  0.00    -0.386 OA
ATOM     30  H   LIG A   1      -7.219   5.208 128.751  0.00  0.00    +0.210 HD
ENDBRANCH  27  29
BRANCH  26  31
ATOM     31  O   LIG A   1      -9.318   7.244 129.576  0.00  0.00    -0.387 OA
ATOM     32  H   LIG A   1     -10.108   7.551 129.089  0.00  0.00    +0.210 HD
ENDBRANCH  26  31
BRANCH  28  33
ATOM     33  O   LIG A   1      -8.888   3.873 132.289  0.00  0.00    -0.384 OA
ATOM     34  H   LIG A   1      -9.837   4.095 132.262  0.00  0.00    +0.210 HD
ENDBRANCH  28  33
BRANCH  25  35
ATOM     35  C   LIG A   1     -11.908   6.039 129.907  0.00  0.00    +0.190 C 
BRANCH  35  36
ATOM     36  O   LIG A   1     -11.961   6.260 128.501  0.00  0.00    -0.392 OA
ATOM     37  H   LIG A   1     -11.768   7.207 128.381  0.00  0.00    +0.209 HD
ENDBRANCH  35  36
ENDBRANCH  25  35
ENDBRANCH  22  23
ENDBRANCH   4  22
TORSDOF 15
ENDMDL
MODEL 9
REMARK VINA RESULT:      -6.1      2.628      5.410
REMARK  Name = NuBBE_110
REMARK  19 active torsions:
REMARK  status: ('A' for Active; 'I' for Inactive)
REMARK    1  A    between atoms: C_2  and  C_3
REMARK    2  A    between atoms: C_2  and  O_41
REMARK    3  A    between atoms: C_6  and  O_24
REMARK    4  A    between atoms: C_8  and  C_17
REMARK    5  A    between atoms: C_10  and  C_12
REMARK    6  A    between atoms: C_12  and  C_13
REMARK    7  A    between atoms: C_13  and  O_14
REMARK    8  A    between atoms: O_14  and  C_15
REMARK    9  A    between atoms: C_17  and  C_19
REMARK   10  A    between atoms: C_17  and  O_20
REMARK   11  A    between atoms: O_20  and  C_21
REMARK   12  A    between atoms: C_21  and  C_22
REMARK   13  A    between atoms: O_24  and  C_25
REMARK   14  A    between atoms: C_28  and  C_36
REMARK   15  A    between atoms: C_30  and  O_35
REMARK   16  A    between atoms: C_32  and  O_34
REMARK   17  A    between atoms: C_36  and  O_37
REMARK   18  A    between atoms: C_38  and  O_40
REMARK   19  A    between atoms: O_41  and  C_42
REMARK                            x       y       z     vdW  Elec       q    Type
REMARK                         _______ _______ _______ _____ _____    ______ ____
ROOT
ATOM      1  C   LIG A   1      -4.951   6.084 131.368  0.00  0.00    +0.075 C 
ATOM      2  C   LIG A   1      -5.863   6.203 132.348  0.00  0.00    +0.201 C 
ATOM      3  O   LIG A   1      -7.019   5.478 132.500  0.00  0.00    -0.470 OA
ATOM      4  C   LIG A   1      -7.375   4.672 131.379  0.00  0.00    +0.316 C 
ATOM      5  C   LIG A   1      -6.071   3.921 130.940  0.00  0.00    +0.106 C 
ATOM      6  C   LIG A   1      -5.138   5.020 130.270  0.00  0.00    +0.052 C 
ENDROOT
BRANCH   1   8
ATOM      7  O   LIG A   1      -3.939   8.159 130.668  0.00  0.00    -0.245 OA
ATOM      8  C   LIG A   1      -3.954   7.192 131.417  0.00  0.00    +0.338 C 
BRANCH   8   9
ATOM      9  O   LIG A   1      -2.982   6.808 132.247  0.00  0.00    -0.465 OA
ATOM     10  C   LIG A   1      -1.807   6.244 131.695  0.00  0.00    +0.280 C 
ENDBRANCH   8   9
ENDBRANCH   1   8
BRANCH   5  11
ATOM     11  C   LIG A   1      -5.408   3.070 132.159  0.00  0.00    +0.183 C 
ATOM     12  C   LIG A   1      -4.342   1.985 131.891  0.00  0.00    +0.052 C 
BRANCH  11  13
ATOM     13  O   LIG A   1      -6.344   2.570 133.177  0.00  0.00    -0.461 OA
BRANCH  13  14
ATOM     14  C   LIG A   1      -5.914   2.325 134.457  0.00  0.00    +0.304 C 
ATOM     15  C   LIG A   1      -5.727   3.596 135.231  0.00  0.00    +0.136 C 
ATOM     16  O   LIG A   1      -5.758   1.215 134.946  0.00  0.00    -0.251 OA
ENDBRANCH  13  14
ENDBRANCH  11  13
ENDBRANCH   5  11
BRANCH   6  17
ATOM     17  C   LIG A   1      -4.054   4.260 129.447  0.00  0.00    +0.129 C 
BRANCH  17  18
ATOM     18  C   LIG A   1      -3.165   4.859 128.386  0.00  0.00    +0.307 C 
ATOM     19  O   LIG A   1      -2.371   4.148 127.739  0.00  0.00    -0.251 OA
BRANCH  18  20
ATOM     20  O   LIG A   1      -3.432   6.144 128.064  0.00  0.00    -0.468 OA
ATOM     21  C   LIG A   1      -2.248   6.970 128.025  0.00  0.00    +0.280 C 
ENDBRANCH  18  20
ENDBRANCH  17  18
ENDBRANCH   6  17
BRANCH   4  22
ATOM     22  O   LIG A   1      -7.934   5.487 130.312  0.00  0.00    -0.309 OA
BRANCH  22  23
ATOM     23  C   LIG A   1      -9.129   4.978 129.664  0.00  0.00    +0.286 C 
ATOM     24  O   LIG A   1      -9.491   5.879 128.561  0.00  0.00    -0.340 OA
ATOM     25  C   LIG A   1     -10.773   6.546 128.705  0.00  0.00    +0.178 C 
ATOM     26  C   LIG A   1     -10.790   7.179 130.087  0.00  0.00    +0.177 C 
ATOM     27  C   LIG A   1     -11.039   6.041 131.068  0.00  0.00    +0.179 C 
ATOM     28  C   LIG A   1     -10.330   4.728 130.635  0.00  0.00    +0.201 C 
BRANCH  27  29
ATOM     29  O   LIG A   1     -10.742   6.518 132.371  0.00  0.00    -0.386 OA
ATOM     30  H   LIG A   1     -10.058   7.198 132.284  0.00  0.00    +0.210 HD
ENDBRANCH  27  29
BRANCH  26  31
ATOM     31  O   LIG A   1     -11.781   8.177 130.297  0.00  0.00    -0.387 OA
ATOM     32  H   LIG A   1     -11.644   8.847 129.598  0.00  0.00    +0.210 HD
ENDBRANCH  26  31
BRANCH  28  33
ATOM     33  O   LIG A   1     -11.286   3.869 129.972  0.00  0.00    -0.384 OA
ATOM     34  H   LIG A   1     -11.185   4.046 129.019  0.00  0.00    +0.210 HD
ENDBRANCH  28  33
BRANCH  25  35
ATOM     35  C   LIG A   1     -10.988   7.579 127.598  0.00  0.00    +0.190 C 
BRANCH  35  36
ATOM     36  O   LIG A   1     -10.517   8.860 128.005  0.00  0.00    -0.392 OA
ATOM     37  H   LIG A   1      -9.921   9.154 127.294  0.00  0.00    +0.209 HD
ENDBRANCH  35  36
ENDBRANCH  25  35
ENDBRANCH  22  23
ENDBRANCH   4  22
TORSDOF 15
ENDMDL
