MODEL 1
REMARK VINA RESULT:      -7.1      0.000      0.000
REMARK  Name = NuBBE_1813
REMARK  10 active torsions:
REMARK  status: ('A' for Active; 'I' for Inactive)
REMARK    1  A    between atoms: C_1  and  C_2
REMARK    2  A    between atoms: C_2  and  C_3
REMARK    3  A    between atoms: C_4  and  C_5
REMARK    4  A    between atoms: C_5  and  C_6
REMARK    5  A    between atoms: C_7  and  O_8
REMARK    6  A    between atoms: O_8  and  C_9
REMARK    7  A    between atoms: C_11  and  C_12
REMARK    8  A    between atoms: C_13  and  C_14
REMARK    9  A    between atoms: C_21  and  O_22
REMARK   10  A    between atoms: O_22  and  C_23
REMARK                            x       y       z     vdW  Elec       q    Type
REMARK                         _______ _______ _______ _____ _____    ______ ____
ROOT
ATOM      1  C   LIG A   1      -4.966   6.145 132.645  0.00  0.00    +0.040 A 
ATOM      2  C   LIG A   1      -5.202   6.632 131.336  0.00  0.00    +0.128 A 
ATOM      3  C   LIG A   1      -6.520   6.779 130.874  0.00  0.00    +0.054 A 
ATOM      4  C   LIG A   1      -7.601   6.459 131.684  0.00  0.00    -0.018 A 
ATOM      5  C   LIG A   1      -7.388   5.977 132.965  0.00  0.00    +0.054 A 
ATOM      6  C   LIG A   1      -6.085   5.784 133.443  0.00  0.00    +0.128 A 
ENDROOT
BRANCH   2   7
ATOM      7  O   LIG A   1      -4.117   6.933 130.545  0.00  0.00    -0.495 OA
ATOM      8  C   LIG A   1      -4.060   8.269 130.038  0.00  0.00    +0.277 C 
ENDBRANCH   2   7
BRANCH   4   9
ATOM      9  C   LIG A   1      -8.961   6.606 131.164  0.00  0.00    +0.009 C 
ATOM     10  C   LIG A   1      -9.254   7.432 130.160  0.00  0.00    +0.008 C 
BRANCH  10  11
ATOM     11  C   LIG A   1     -10.611   7.568 129.608  0.00  0.00    -0.025 A 
ATOM     12  C   LIG A   1     -11.708   7.087 130.338  0.00  0.00    +0.008 A 
ATOM     13  C   LIG A   1     -13.002   7.210 129.831  0.00  0.00    +0.001 A 
ATOM     14  C   LIG A   1     -13.216   7.824 128.599  0.00  0.00    +0.000 A 
ATOM     15  C   LIG A   1     -12.143   8.330 127.877  0.00  0.00    +0.001 A 
ATOM     16  C   LIG A   1     -10.844   8.208 128.385  0.00  0.00    +0.008 A 
ENDBRANCH  10  11
ENDBRANCH   4   9
BRANCH   6  17
ATOM     17  O   LIG A   1      -5.828   5.237 134.679  0.00  0.00    -0.495 OA
ATOM     18  C   LIG A   1      -6.931   5.117 135.572  0.00  0.00    +0.277 C 
ENDBRANCH   6  17
BRANCH   1  19
ATOM     19  C   LIG A   1      -3.543   5.978 133.194  0.00  0.00    +0.069 C 
BRANCH  19  23
ATOM     20  C   LIG A   1      -1.171   9.121 133.419  0.00  0.00    +0.038 C 
ATOM     21  C   LIG A   1      -1.651   7.741 133.046  0.00  0.00    -0.079 C 
ATOM     22  C   LIG A   1      -0.696   6.977 132.174  0.00  0.00    +0.038 C 
ATOM     23  C   LIG A   1      -2.845   7.293 133.488  0.00  0.00    -0.023 C 
ENDBRANCH  19  23
ENDBRANCH   1  19
TORSDOF 6
ENDMDL
MODEL 2
REMARK VINA RESULT:      -7.0      2.046      2.696
REMARK  Name = NuBBE_1813
REMARK  10 active torsions:
REMARK  status: ('A' for Active; 'I' for Inactive)
REMARK    1  A    between atoms: C_1  and  C_2
REMARK    2  A    between atoms: C_2  and  C_3
REMARK    3  A    between atoms: C_4  and  C_5
REMARK    4  A    between atoms: C_5  and  C_6
REMARK    5  A    between atoms: C_7  and  O_8
REMARK    6  A    between atoms: O_8  and  C_9
REMARK    7  A    between atoms: C_11  and  C_12
REMARK    8  A    between atoms: C_13  and  C_14
REMARK    9  A    between atoms: C_21  and  O_22
REMARK   10  A    between atoms: O_22  and  C_23
REMARK                            x       y       z     vdW  Elec       q    Type
REMARK                         _______ _______ _______ _____ _____    ______ ____
ROOT
ATOM      1  C   LIG A   1      -6.494   5.782 132.829  0.00  0.00    +0.040 A 
ATOM      2  C   LIG A   1      -6.171   6.593 131.713  0.00  0.00    +0.128 A 
ATOM      3  C   LIG A   1      -7.188   7.020 130.844  0.00  0.00    +0.054 A 
ATOM      4  C   LIG A   1      -8.512   6.665 131.064  0.00  0.00    -0.018 A 
ATOM      5  C   LIG A   1      -8.844   5.869 132.147  0.00  0.00    +0.054 A 
ATOM      6  C   LIG A   1      -7.849   5.396 133.013  0.00  0.00    +0.128 A 
ENDROOT
BRANCH   2   7
ATOM      7  O   LIG A   1      -4.852   6.925 131.507  0.00  0.00    -0.495 OA
ATOM      8  C   LIG A   1      -4.567   7.661 130.315  0.00  0.00    +0.277 C 
ENDBRANCH   2   7
BRANCH   4   9
ATOM      9  C   LIG A   1      -9.544   7.112 130.127  0.00  0.00    +0.009 C 
ATOM     10  C   LIG A   1     -10.835   7.149 130.454  0.00  0.00    +0.008 C 
BRANCH  10  11
ATOM     11  C   LIG A   1     -11.879   7.624 129.533  0.00  0.00    -0.025 A 
ATOM     12  C   LIG A   1     -12.507   6.714 128.669  0.00  0.00    +0.008 A 
ATOM     13  C   LIG A   1     -13.502   7.146 127.791  0.00  0.00    +0.001 A 
ATOM     14  C   LIG A   1     -13.887   8.485 127.774  0.00  0.00    +0.000 A 
ATOM     15  C   LIG A   1     -13.293   9.392 128.642  0.00  0.00    +0.001 A 
ATOM     16  C   LIG A   1     -12.296   8.960 129.524  0.00  0.00    +0.008 A 
ENDBRANCH  10  11
ENDBRANCH   4   9
BRANCH   6  17
ATOM     17  O   LIG A   1      -8.126   4.542 134.055  0.00  0.00    -0.495 OA
ATOM     18  C   LIG A   1      -8.665   3.267 133.717  0.00  0.00    +0.277 C 
ENDBRANCH   6  17
BRANCH   1  19
ATOM     19  C   LIG A   1      -5.417   5.301 133.810  0.00  0.00    +0.069 C 
BRANCH  19  23
ATOM     20  C   LIG A   1      -4.652   7.752 136.803  0.00  0.00    +0.038 C 
ATOM     21  C   LIG A   1      -5.326   6.658 136.015  0.00  0.00    -0.079 C 
ATOM     22  C   LIG A   1      -6.425   5.956 136.759  0.00  0.00    +0.038 C 
ATOM     23  C   LIG A   1      -4.926   6.382 134.755  0.00  0.00    -0.023 C 
ENDBRANCH  19  23
ENDBRANCH   1  19
TORSDOF 6
ENDMDL
MODEL 3
REMARK VINA RESULT:      -7.0      0.129      2.862
REMARK  Name = NuBBE_1813
REMARK  10 active torsions:
REMARK  status: ('A' for Active; 'I' for Inactive)
REMARK    1  A    between atoms: C_1  and  C_2
REMARK    2  A    between atoms: C_2  and  C_3
REMARK    3  A    between atoms: C_4  and  C_5
REMARK    4  A    between atoms: C_5  and  C_6
REMARK    5  A    between atoms: C_7  and  O_8
REMARK    6  A    between atoms: O_8  and  C_9
REMARK    7  A    between atoms: C_11  and  C_12
REMARK    8  A    between atoms: C_13  and  C_14
REMARK    9  A    between atoms: C_21  and  O_22
REMARK   10  A    between atoms: O_22  and  C_23
REMARK                            x       y       z     vdW  Elec       q    Type
REMARK                         _______ _______ _______ _____ _____    ______ ____
ROOT
ATOM      1  C   LIG A   1      -4.952   6.058 132.671  0.00  0.00    +0.040 A 
ATOM      2  C   LIG A   1      -6.070   5.741 133.481  0.00  0.00    +0.128 A 
ATOM      3  C   LIG A   1      -7.369   5.922 132.979  0.00  0.00    +0.054 A 
ATOM      4  C   LIG A   1      -7.578   6.403 131.693  0.00  0.00    -0.018 A 
ATOM      5  C   LIG A   1      -6.496   6.723 130.890  0.00  0.00    +0.054 A 
ATOM      6  C   LIG A   1      -5.187   6.588 131.373  0.00  0.00    +0.128 A 
ENDROOT
BRANCH   2   7
ATOM      7  O   LIG A   1      -5.842   5.275 134.755  0.00  0.00    -0.495 OA
ATOM      8  C   LIG A   1      -6.886   5.503 135.705  0.00  0.00    +0.277 C 
ENDBRANCH   2   7
BRANCH   4   9
ATOM      9  C   LIG A   1      -8.945   6.598 131.209  0.00  0.00    +0.009 C 
ATOM     10  C   LIG A   1      -9.227   7.377 130.165  0.00  0.00    +0.008 C 
BRANCH  10  11
ATOM     11  C   LIG A   1     -10.593   7.558 129.649  0.00  0.00    -0.025 A 
ATOM     12  C   LIG A   1     -10.793   8.257 128.449  0.00  0.00    +0.008 A 
ATOM     13  C   LIG A   1     -12.081   8.436 127.944  0.00  0.00    +0.001 A 
ATOM     14  C   LIG A   1     -13.179   7.911 128.622  0.00  0.00    +0.000 A 
ATOM     15  C   LIG A   1     -12.994   7.194 129.797  0.00  0.00    +0.001 A 
ATOM     16  C   LIG A   1     -11.702   7.012 130.305  0.00  0.00    +0.008 A 
ENDBRANCH  10  11
ENDBRANCH   4   9
BRANCH   6  17
ATOM     17  O   LIG A   1      -4.088   6.965 130.637  0.00  0.00    -0.495 OA
ATOM     18  C   LIG A   1      -4.088   8.290 130.113  0.00  0.00    +0.277 C 
ENDBRANCH   6  17
BRANCH   1  19
ATOM     19  C   LIG A   1      -3.516   5.866 133.175  0.00  0.00    +0.069 C 
BRANCH  19  23
ATOM     20  C   LIG A   1      -1.130   8.983 133.556  0.00  0.00    +0.038 C 
ATOM     21  C   LIG A   1      -1.611   7.621 133.124  0.00  0.00    -0.079 C 
ATOM     22  C   LIG A   1      -0.646   6.883 132.240  0.00  0.00    +0.038 C 
ATOM     23  C   LIG A   1      -2.815   7.164 133.529  0.00  0.00    -0.023 C 
ENDBRANCH  19  23
ENDBRANCH   1  19
TORSDOF 6
ENDMDL
MODEL 4
REMARK VINA RESULT:      -6.9      1.655      2.303
REMARK  Name = NuBBE_1813
REMARK  10 active torsions:
REMARK  status: ('A' for Active; 'I' for Inactive)
REMARK    1  A    between atoms: C_1  and  C_2
REMARK    2  A    between atoms: C_2  and  C_3
REMARK    3  A    between atoms: C_4  and  C_5
REMARK    4  A    between atoms: C_5  and  C_6
REMARK    5  A    between atoms: C_7  and  O_8
REMARK    6  A    between atoms: O_8  and  C_9
REMARK    7  A    between atoms: C_11  and  C_12
REMARK    8  A    between atoms: C_13  and  C_14
REMARK    9  A    between atoms: C_21  and  O_22
REMARK   10  A    between atoms: O_22  and  C_23
REMARK                            x       y       z     vdW  Elec       q    Type
REMARK                         _______ _______ _______ _____ _____    ______ ____
ROOT
ATOM      1  C   LIG A   1      -5.887   5.859 133.214  0.00  0.00    +0.040 A 
ATOM      2  C   LIG A   1      -5.863   6.397 131.904  0.00  0.00    +0.128 A 
ATOM      3  C   LIG A   1      -7.071   6.655 131.234  0.00  0.00    +0.054 A 
ATOM      4  C   LIG A   1      -8.293   6.396 131.840  0.00  0.00    -0.018 A 
ATOM      5  C   LIG A   1      -8.333   5.865 133.118  0.00  0.00    +0.054 A 
ATOM      6  C   LIG A   1      -7.147   5.563 133.800  0.00  0.00    +0.128 A 
ENDROOT
BRANCH   2   7
ATOM      7  O   LIG A   1      -4.642   6.637 131.317  0.00  0.00    -0.495 OA
ATOM      8  C   LIG A   1      -4.626   7.615 130.274  0.00  0.00    +0.277 C 
ENDBRANCH   2   7
BRANCH   4   9
ATOM      9  C   LIG A   1      -9.532   6.659 131.106  0.00  0.00    +0.009 C 
ATOM     10  C   LIG A   1      -9.545   7.292 129.934  0.00  0.00    +0.008 C 
BRANCH  10  11
ATOM     11  C   LIG A   1     -10.779   7.537 129.172  0.00  0.00    -0.025 A 
ATOM     12  C   LIG A   1     -10.802   7.287 127.791  0.00  0.00    +0.008 A 
ATOM     13  C   LIG A   1     -11.965   7.511 127.053  0.00  0.00    +0.001 A 
ATOM     14  C   LIG A   1     -13.117   7.975 127.684  0.00  0.00    +0.000 A 
ATOM     15  C   LIG A   1     -13.117   8.202 129.055  0.00  0.00    +0.001 A 
ATOM     16  C   LIG A   1     -11.951   7.977 129.797  0.00  0.00    +0.008 A 
ENDBRANCH  10  11
ENDBRANCH   4   9
BRANCH   6  17
ATOM     17  O   LIG A   1      -7.142   4.965 135.039  0.00  0.00    -0.495 OA
ATOM     18  C   LIG A   1      -7.557   5.765 136.142  0.00  0.00    +0.277 C 
ENDBRANCH   6  17
BRANCH   1  19
ATOM     19  C   LIG A   1      -4.592   5.572 133.986  0.00  0.00    +0.069 C 
BRANCH  19  23
ATOM     20  C   LIG A   1      -2.619   2.235 133.260  0.00  0.00    +0.038 C 
ATOM     21  C   LIG A   1      -2.951   3.706 133.253  0.00  0.00    -0.079 C 
ATOM     22  C   LIG A   1      -1.920   4.563 132.576  0.00  0.00    +0.038 C 
ATOM     23  C   LIG A   1      -4.090   4.149 133.827  0.00  0.00    -0.023 C 
ENDBRANCH  19  23
ENDBRANCH   1  19
TORSDOF 6
ENDMDL
MODEL 5
REMARK VINA RESULT:      -6.8      9.526     10.772
REMARK  Name = NuBBE_1813
REMARK  10 active torsions:
REMARK  status: ('A' for Active; 'I' for Inactive)
REMARK    1  A    between atoms: C_1  and  C_2
REMARK    2  A    between atoms: C_2  and  C_3
REMARK    3  A    between atoms: C_4  and  C_5
REMARK    4  A    between atoms: C_5  and  C_6
REMARK    5  A    between atoms: C_7  and  O_8
REMARK    6  A    between atoms: O_8  and  C_9
REMARK    7  A    between atoms: C_11  and  C_12
REMARK    8  A    between atoms: C_13  and  C_14
REMARK    9  A    between atoms: C_21  and  O_22
REMARK   10  A    between atoms: O_22  and  C_23
REMARK                            x       y       z     vdW  Elec       q    Type
REMARK                         _______ _______ _______ _____ _____    ______ ____
ROOT
ATOM      1  C   LIG A   1      -7.299  -0.465 126.113  0.00  0.00    +0.040 A 
ATOM      2  C   LIG A   1      -6.967   0.912 126.143  0.00  0.00    +0.128 A 
ATOM      3  C   LIG A   1      -6.894   1.638 124.942  0.00  0.00    +0.054 A 
ATOM      4  C   LIG A   1      -7.148   1.028 123.721  0.00  0.00    -0.018 A 
ATOM      5  C   LIG A   1      -7.469  -0.319 123.674  0.00  0.00    +0.054 A 
ATOM      6  C   LIG A   1      -7.515  -1.080 124.850  0.00  0.00    +0.128 A 
ENDROOT
BRANCH   2   7
ATOM      7  O   LIG A   1      -6.709   1.496 127.361  0.00  0.00    -0.495 OA
ATOM      8  C   LIG A   1      -7.715   2.380 127.862  0.00  0.00    +0.277 C 
ENDBRANCH   2   7
BRANCH   4   9
ATOM      9  C   LIG A   1      -7.044   1.809 122.489  0.00  0.00    +0.009 C 
ATOM     10  C   LIG A   1      -6.569   3.054 122.472  0.00  0.00    +0.008 C 
BRANCH  10  11
ATOM     11  C   LIG A   1      -6.432   3.841 121.236  0.00  0.00    -0.025 A 
ATOM     12  C   LIG A   1      -5.263   4.584 121.015  0.00  0.00    +0.008 A 
ATOM     13  C   LIG A   1      -5.114   5.334 119.847  0.00  0.00    +0.001 A 
ATOM     14  C   LIG A   1      -6.122   5.340 118.886  0.00  0.00    +0.000 A 
ATOM     15  C   LIG A   1      -7.274   4.587 119.079  0.00  0.00    +0.001 A 
ATOM     16  C   LIG A   1      -7.424   3.834 120.250  0.00  0.00    +0.008 A 
ENDBRANCH  10  11
ENDBRANCH   4   9
BRANCH   6  17
ATOM     17  O   LIG A   1      -7.755  -2.434 124.841  0.00  0.00    -0.495 OA
ATOM     18  C   LIG A   1      -6.722  -3.268 124.323  0.00  0.00    +0.277 C 
ENDBRANCH   6  17
BRANCH   1  19
ATOM     19  C   LIG A   1      -7.401  -1.293 127.400  0.00  0.00    +0.069 C 
BRANCH  19  23
ATOM     20  C   LIG A   1      -4.436  -3.268 129.093  0.00  0.00    +0.038 C 
ATOM     21  C   LIG A   1      -5.830  -2.737 128.869  0.00  0.00    -0.079 C 
ATOM     22  C   LIG A   1      -6.840  -3.230 129.865  0.00  0.00    +0.038 C 
ATOM     23  C   LIG A   1      -6.081  -1.897 127.842  0.00  0.00    -0.023 C 
ENDBRANCH  19  23
ENDBRANCH   1  19
TORSDOF 6
ENDMDL
MODEL 6
REMARK VINA RESULT:      -6.8      9.155     11.658
REMARK  Name = NuBBE_1813
REMARK  10 active torsions:
REMARK  status: ('A' for Active; 'I' for Inactive)
REMARK    1  A    between atoms: C_1  and  C_2
REMARK    2  A    between atoms: C_2  and  C_3
REMARK    3  A    between atoms: C_4  and  C_5
REMARK    4  A    between atoms: C_5  and  C_6
REMARK    5  A    between atoms: C_7  and  O_8
REMARK    6  A    between atoms: O_8  and  C_9
REMARK    7  A    between atoms: C_11  and  C_12
REMARK    8  A    between atoms: C_13  and  C_14
REMARK    9  A    between atoms: C_21  and  O_22
REMARK   10  A    between atoms: O_22  and  C_23
REMARK                            x       y       z     vdW  Elec       q    Type
REMARK                         _______ _______ _______ _____ _____    ______ ____
ROOT
ATOM      1  C   LIG A   1      -9.099   0.137 125.757  0.00  0.00    +0.040 A 
ATOM      2  C   LIG A   1      -8.584   0.619 126.985  0.00  0.00    +0.128 A 
ATOM      3  C   LIG A   1      -7.960  -0.270 127.876  0.00  0.00    +0.054 A 
ATOM      4  C   LIG A   1      -7.835  -1.619 127.570  0.00  0.00    -0.018 A 
ATOM      5  C   LIG A   1      -8.338  -2.106 126.375  0.00  0.00    +0.054 A 
ATOM      6  C   LIG A   1      -8.997  -1.253 125.480  0.00  0.00    +0.128 A 
ENDROOT
BRANCH   2   7
ATOM      7  O   LIG A   1      -8.727   1.956 127.275  0.00  0.00    -0.495 OA
ATOM      8  C   LIG A   1      -8.474   2.337 128.630  0.00  0.00    +0.277 C 
ENDBRANCH   2   7
BRANCH   4   9
ATOM      9  C   LIG A   1      -7.197  -2.521 128.529  0.00  0.00    +0.009 C 
ATOM     10  C   LIG A   1      -7.384  -2.410 129.844  0.00  0.00    +0.008 C 
BRANCH  10  11
ATOM     11  C   LIG A   1      -6.772  -3.328 130.818  0.00  0.00    -0.025 A 
ATOM     12  C   LIG A   1      -5.960  -4.378 130.365  0.00  0.00    +0.008 A 
ATOM     13  C   LIG A   1      -5.370  -5.256 131.275  0.00  0.00    +0.001 A 
ATOM     14  C   LIG A   1      -5.573  -5.089 132.643  0.00  0.00    +0.000 A 
ATOM     15  C   LIG A   1      -6.352  -4.037 133.108  0.00  0.00    +0.001 A 
ATOM     16  C   LIG A   1      -6.945  -3.154 132.196  0.00  0.00    +0.008 A 
ENDBRANCH  10  11
ENDBRANCH   4   9
BRANCH   6  17
ATOM     17  O   LIG A   1      -9.578  -1.709 124.320  0.00  0.00    -0.495 OA
ATOM     18  C   LIG A   1      -8.903  -2.759 123.632  0.00  0.00    +0.277 C 
ENDBRANCH   6  17
BRANCH   1  19
ATOM     19  C   LIG A   1      -9.778   1.075 124.750  0.00  0.00    +0.069 C 
BRANCH  19  23
ATOM     20  C   LIG A   1      -7.186   2.959 122.452  0.00  0.00    +0.038 C 
ATOM     21  C   LIG A   1      -8.092   2.688 123.626  0.00  0.00    -0.079 C 
ATOM     22  C   LIG A   1      -8.046   3.746 124.691  0.00  0.00    +0.038 C 
ATOM     23  C   LIG A   1      -8.850   1.572 123.658  0.00  0.00    -0.023 C 
ENDBRANCH  19  23
ENDBRANCH   1  19
TORSDOF 6
ENDMDL
MODEL 7
REMARK VINA RESULT:      -6.8      1.550      3.565
REMARK  Name = NuBBE_1813
REMARK  10 active torsions:
REMARK  status: ('A' for Active; 'I' for Inactive)
REMARK    1  A    between atoms: C_1  and  C_2
REMARK    2  A    between atoms: C_2  and  C_3
REMARK    3  A    between atoms: C_4  and  C_5
REMARK    4  A    between atoms: C_5  and  C_6
REMARK    5  A    between atoms: C_7  and  O_8
REMARK    6  A    between atoms: O_8  and  C_9
REMARK    7  A    between atoms: C_11  and  C_12
REMARK    8  A    between atoms: C_13  and  C_14
REMARK    9  A    between atoms: C_21  and  O_22
REMARK   10  A    between atoms: O_22  and  C_23
REMARK                            x       y       z     vdW  Elec       q    Type
REMARK                         _______ _______ _______ _____ _____    ______ ____
ROOT
ATOM      1  C   LIG A   1      -5.426   5.902 133.076  0.00  0.00    +0.040 A 
ATOM      2  C   LIG A   1      -6.611   5.636 133.804  0.00  0.00    +0.128 A 
ATOM      3  C   LIG A   1      -7.862   5.858 133.205  0.00  0.00    +0.054 A 
ATOM      4  C   LIG A   1      -7.958   6.331 131.903  0.00  0.00    -0.018 A 
ATOM      5  C   LIG A   1      -6.808   6.601 131.179  0.00  0.00    +0.054 A 
ATOM      6  C   LIG A   1      -5.545   6.425 131.760  0.00  0.00    +0.128 A 
ENDROOT
BRANCH   2   7
ATOM      7  O   LIG A   1      -6.496   5.178 135.096  0.00  0.00    -0.495 OA
ATOM      8  C   LIG A   1      -7.336   5.809 136.065  0.00  0.00    +0.277 C 
ENDBRANCH   2   7
BRANCH   4   9
ATOM      9  C   LIG A   1      -9.277   6.569 131.317  0.00  0.00    +0.009 C 
ATOM     10  C   LIG A   1      -9.441   7.258 130.188  0.00  0.00    +0.008 C 
BRANCH  10  11
ATOM     11  C   LIG A   1     -10.759   7.479 129.571  0.00  0.00    -0.025 A 
ATOM     12  C   LIG A   1     -11.897   6.883 130.135  0.00  0.00    +0.008 A 
ATOM     13  C   LIG A   1     -13.154   7.084 129.566  0.00  0.00    +0.001 A 
ATOM     14  C   LIG A   1     -13.291   7.891 128.437  0.00  0.00    +0.000 A 
ATOM     15  C   LIG A   1     -12.178   8.510 127.884  0.00  0.00    +0.001 A 
ATOM     16  C   LIG A   1     -10.915   8.309 128.455  0.00  0.00    +0.008 A 
ENDBRANCH  10  11
ENDBRANCH   4   9
BRANCH   6  17
ATOM     17  O   LIG A   1      -4.381   6.753 131.104  0.00  0.00    -0.495 OA
ATOM     18  C   LIG A   1      -4.411   7.917 130.283  0.00  0.00    +0.277 C 
ENDBRANCH   6  17
BRANCH   1  19
ATOM     19  C   LIG A   1      -4.039   5.664 133.687  0.00  0.00    +0.069 C 
BRANCH  19  23
ATOM     20  C   LIG A   1      -2.733   1.966 133.281  0.00  0.00    +0.038 C 
ATOM     21  C   LIG A   1      -3.375   3.171 133.919  0.00  0.00    -0.079 C 
ATOM     22  C   LIG A   1      -3.947   2.910 135.283  0.00  0.00    +0.038 C 
ATOM     23  C   LIG A   1      -3.404   4.353 133.266  0.00  0.00    -0.023 C 
ENDBRANCH  19  23
ENDBRANCH   1  19
TORSDOF 6
ENDMDL
MODEL 8
REMARK VINA RESULT:      -6.7      1.531      2.283
REMARK  Name = NuBBE_1813
REMARK  10 active torsions:
REMARK  status: ('A' for Active; 'I' for Inactive)
REMARK    1  A    between atoms: C_1  and  C_2
REMARK    2  A    between atoms: C_2  and  C_3
REMARK    3  A    between atoms: C_4  and  C_5
REMARK    4  A    between atoms: C_5  and  C_6
REMARK    5  A    between atoms: C_7  and  O_8
REMARK    6  A    between atoms: O_8  and  C_9
REMARK    7  A    between atoms: C_11  and  C_12
REMARK    8  A    between atoms: C_13  and  C_14
REMARK    9  A    between atoms: C_21  and  O_22
REMARK   10  A    between atoms: O_22  and  C_23
REMARK                            x       y       z     vdW  Elec       q    Type
REMARK                         _______ _______ _______ _____ _____    ______ ____
ROOT
ATOM      1  C   LIG A   1      -3.318   5.840 131.670  0.00  0.00    +0.040 A 
ATOM      2  C   LIG A   1      -3.680   6.594 130.526  0.00  0.00    +0.128 A 
ATOM      3  C   LIG A   1      -5.009   7.015 130.361  0.00  0.00    +0.054 A 
ATOM      4  C   LIG A   1      -5.979   6.708 131.305  0.00  0.00    -0.018 A 
ATOM      5  C   LIG A   1      -5.644   5.967 132.426  0.00  0.00    +0.054 A 
ATOM      6  C   LIG A   1      -4.334   5.501 132.604  0.00  0.00    +0.128 A 
ENDROOT
BRANCH   2   7
ATOM      7  O   LIG A   1      -2.706   6.880 129.597  0.00  0.00    -0.495 OA
ATOM      8  C   LIG A   1      -2.812   6.198 128.345  0.00  0.00    +0.277 C 
ENDBRANCH   2   7
BRANCH   4   9
ATOM      9  C   LIG A   1      -7.359   7.146 131.091  0.00  0.00    +0.009 C 
ATOM     10  C   LIG A   1      -8.375   6.287 131.012  0.00  0.00    +0.008 C 
BRANCH  10  11
ATOM     11  C   LIG A   1      -9.770   6.715 130.827  0.00  0.00    -0.025 A 
ATOM     12  C   LIG A   1     -10.118   7.474 129.699  0.00  0.00    +0.008 A 
ATOM     13  C   LIG A   1     -11.437   7.887 129.506  0.00  0.00    +0.001 A 
ATOM     14  C   LIG A   1     -12.423   7.537 130.427  0.00  0.00    +0.000 A 
ATOM     15  C   LIG A   1     -12.098   6.763 131.533  0.00  0.00    +0.001 A 
ATOM     16  C   LIG A   1     -10.776   6.347 131.729  0.00  0.00    +0.008 A 
ENDBRANCH  10  11
ENDBRANCH   4   9
BRANCH   6  17
ATOM     17  O   LIG A   1      -3.975   4.699 133.662  0.00  0.00    -0.495 OA
ATOM     18  C   LIG A   1      -4.482   3.367 133.661  0.00  0.00    +0.277 C 
ENDBRANCH   6  17
BRANCH   1  19
ATOM     19  C   LIG A   1      -1.876   5.369 131.896  0.00  0.00    +0.069 C 
BRANCH  19  23
ATOM     20  C   LIG A   1       0.348   8.184 133.535  0.00  0.00    +0.038 C 
ATOM     21  C   LIG A   1      -0.717   7.124 133.408  0.00  0.00    -0.079 C 
ATOM     22  C   LIG A   1      -1.483   6.873 134.676  0.00  0.00    +0.038 C 
ATOM     23  C   LIG A   1      -0.913   6.492 132.232  0.00  0.00    -0.023 C 
ENDBRANCH  19  23
ENDBRANCH   1  19
TORSDOF 6
ENDMDL
MODEL 9
REMARK VINA RESULT:      -6.7      1.455      3.268
REMARK  Name = NuBBE_1813
REMARK  10 active torsions:
REMARK  status: ('A' for Active; 'I' for Inactive)
REMARK    1  A    between atoms: C_1  and  C_2
REMARK    2  A    between atoms: C_2  and  C_3
REMARK    3  A    between atoms: C_4  and  C_5
REMARK    4  A    between atoms: C_5  and  C_6
REMARK    5  A    between atoms: C_7  and  O_8
REMARK    6  A    between atoms: O_8  and  C_9
REMARK    7  A    between atoms: C_11  and  C_12
REMARK    8  A    between atoms: C_13  and  C_14
REMARK    9  A    between atoms: C_21  and  O_22
REMARK   10  A    between atoms: O_22  and  C_23
REMARK                            x       y       z     vdW  Elec       q    Type
REMARK                         _______ _______ _______ _____ _____    ______ ____
ROOT
ATOM      1  C   LIG A   1      -3.117   6.305 132.065  0.00  0.00    +0.040 A 
ATOM      2  C   LIG A   1      -3.918   6.022 133.198  0.00  0.00    +0.128 A 
ATOM      3  C   LIG A   1      -5.318   6.033 133.082  0.00  0.00    +0.054 A 
ATOM      4  C   LIG A   1      -5.933   6.312 131.869  0.00  0.00    -0.018 A 
ATOM      5  C   LIG A   1      -5.164   6.596 130.753  0.00  0.00    +0.054 A 
ATOM      6  C   LIG A   1      -3.765   6.629 130.843  0.00  0.00    +0.128 A 
ENDROOT
BRANCH   2   7
ATOM      7  O   LIG A   1      -3.290   5.758 134.393  0.00  0.00    -0.495 OA
ATOM      8  C   LIG A   1      -4.104   5.847 135.565  0.00  0.00    +0.277 C 
ENDBRANCH   2   7
BRANCH   4   9
ATOM      9  C   LIG A   1      -7.394   6.333 131.789  0.00  0.00    +0.009 C 
ATOM     10  C   LIG A   1      -8.044   6.967 130.813  0.00  0.00    +0.008 C 
BRANCH  10  11
ATOM     11  C   LIG A   1      -9.512   6.972 130.703  0.00  0.00    -0.025 A 
ATOM     12  C   LIG A   1     -10.284   6.384 131.716  0.00  0.00    +0.008 A 
ATOM     13  C   LIG A   1     -11.677   6.382 131.631  0.00  0.00    +0.001 A 
ATOM     14  C   LIG A   1     -12.312   6.975 130.541  0.00  0.00    +0.000 A 
ATOM     15  C   LIG A   1     -11.561   7.584 129.544  0.00  0.00    +0.001 A 
ATOM     16  C   LIG A   1     -10.164   7.588 129.629  0.00  0.00    +0.008 A 
ENDBRANCH  10  11
ENDBRANCH   4   9
BRANCH   6  17
ATOM     17  O   LIG A   1      -2.968   6.980 129.779  0.00  0.00    -0.495 OA
ATOM     18  C   LIG A   1      -2.823   6.019 128.737  0.00  0.00    +0.277 C 
ENDBRANCH   6  17
BRANCH   1  19
ATOM     19  C   LIG A   1      -1.585   6.294 132.144  0.00  0.00    +0.069 C 
BRANCH  19  23
ATOM     20  C   LIG A   1       0.316   9.401 133.657  0.00  0.00    +0.038 C 
ATOM     21  C   LIG A   1      -0.239   8.003 133.551  0.00  0.00    -0.079 C 
ATOM     22  C   LIG A   1       0.117   7.114 134.708  0.00  0.00    +0.038 C 
ATOM     23  C   LIG A   1      -0.981   7.645 132.482  0.00  0.00    -0.023 C 
ENDBRANCH  19  23
ENDBRANCH   1  19
TORSDOF 6
ENDMDL
