MODEL 1
REMARK VINA RESULT:      -7.2      0.000      0.000
REMARK  Name = NuBBE_2067
REMARK  8 active torsions:
REMARK  status: ('A' for Active; 'I' for Inactive)
REMARK    1  A    between atoms: C_1  and  O_2
REMARK    2  A    between atoms: O_2  and  C_3
REMARK    3  A    between atoms: C_12  and  O_14
REMARK    4  A    between atoms: O_14  and  C_15
REMARK    5  A    between atoms: C_18  and  O_19
REMARK    6  A    between atoms: O_19  and  C_20
REMARK    7  A    between atoms: C_21  and  O_22
REMARK    8  A    between atoms: O_22  and  C_23
REMARK                            x       y       z     vdW  Elec       q    Type
REMARK                         _______ _______ _______ _____ _____    ______ ____
ROOT
ATOM      1  C   LIG A   1      -5.680   4.629 126.135  0.00  0.00    +0.143 C 
ATOM      2  C   LIG A   1      -4.647   3.530 125.996  0.00  0.00    +0.004 C 
ATOM      3  C   LIG A   1      -4.957   2.227 125.838  0.00  0.00    +0.004 C 
ATOM      4  C   LIG A   1      -6.341   1.880 125.878  0.00  0.00    -0.026 C 
ATOM      5  C   LIG A   1      -6.837   1.096 126.855  0.00  0.00    -0.006 C 
ATOM      6  C   LIG A   1      -8.256   1.455 127.102  0.00  0.00    +0.113 C 
ATOM      7  N   LIG A   1      -8.683   2.269 125.929  0.00  0.00    -0.282 NA
ATOM      8  C   LIG A   1      -9.373   1.341 125.030  0.00  0.00    +0.122 C 
ATOM      9  C   LIG A   1      -9.796   1.930 123.689  0.00  0.00    +0.162 C 
ATOM     10  C   LIG A   1      -8.632   2.665 123.060  0.00  0.00    -0.009 A 
ATOM     11  C   LIG A   1      -8.762   3.053 121.712  0.00  0.00    +0.056 A 
ATOM     12  C   LIG A   1      -7.710   3.630 121.003  0.00  0.00    +0.162 A 
ATOM     13  C   LIG A   1      -6.486   3.802 121.650  0.00  0.00    +0.162 A 
ATOM     14  C   LIG A   1      -6.383   3.501 123.024  0.00  0.00    +0.055 A 
ATOM     15  C   LIG A   1      -7.455   2.964 123.776  0.00  0.00    -0.013 A 
ATOM     16  C   LIG A   1      -7.396   2.807 125.319  0.00  0.00    +0.076 C 
ATOM     17  C   LIG A   1      -7.163   4.189 125.990  0.00  0.00    +0.068 C 
ENDROOT
BRANCH   1  19
ATOM     18  C   LIG A   1      -4.068   5.515 127.690  0.00  0.00    +0.194 C 
ATOM     19  O   LIG A   1      -5.435   5.228 127.421  0.00  0.00    -0.376 OA
ENDBRANCH   1  19
BRANCH   9  20
ATOM     20  O   LIG A   1     -10.144   0.863 122.782  0.00  0.00    -0.374 OA
ATOM     21  C   LIG A   1      -9.457  -0.360 122.992  0.00  0.00    +0.195 C 
ENDBRANCH   9  20
BRANCH  12  22
ATOM     22  O   LIG A   1      -7.858   4.090 119.725  0.00  0.00    -0.491 OA
ATOM     23  C   LIG A   1      -9.191   4.230 119.251  0.00  0.00    +0.277 C 
ENDBRANCH  12  22
BRANCH  13  24
ATOM     24  O   LIG A   1      -5.336   4.307 121.085  0.00  0.00    -0.491 OA
ATOM     25  C   LIG A   1      -4.360   4.816 121.996  0.00  0.00    +0.277 C 
ENDBRANCH  13  24
TORSDOF 4
ENDMDL
MODEL 2
REMARK VINA RESULT:      -7.1      3.457      6.222
REMARK  Name = NuBBE_2067
REMARK  8 active torsions:
REMARK  status: ('A' for Active; 'I' for Inactive)
REMARK    1  A    between atoms: C_1  and  O_2
REMARK    2  A    between atoms: O_2  and  C_3
REMARK    3  A    between atoms: C_12  and  O_14
REMARK    4  A    between atoms: O_14  and  C_15
REMARK    5  A    between atoms: C_18  and  O_19
REMARK    6  A    between atoms: O_19  and  C_20
REMARK    7  A    between atoms: C_21  and  O_22
REMARK    8  A    between atoms: O_22  and  C_23
REMARK                            x       y       z     vdW  Elec       q    Type
REMARK                         _______ _______ _______ _____ _____    ______ ____
ROOT
ATOM      1  C   LIG A   1      -7.012  -2.721 124.389  0.00  0.00    +0.143 C 
ATOM      2  C   LIG A   1      -8.448  -3.200 124.332  0.00  0.00    +0.004 C 
ATOM      3  C   LIG A   1      -9.292  -3.159 125.382  0.00  0.00    +0.004 C 
ATOM      4  C   LIG A   1      -8.762  -2.698 126.624  0.00  0.00    -0.026 C 
ATOM      5  C   LIG A   1      -8.680  -3.512 127.695  0.00  0.00    -0.006 C 
ATOM      6  C   LIG A   1      -7.530  -3.101 128.540  0.00  0.00    +0.113 C 
ATOM      7  N   LIG A   1      -7.153  -1.735 128.081  0.00  0.00    -0.282 NA
ATOM      8  C   LIG A   1      -7.800  -0.809 129.014  0.00  0.00    +0.122 C 
ATOM      9  C   LIG A   1      -7.655   0.669 128.667  0.00  0.00    +0.162 C 
ATOM     10  C   LIG A   1      -8.009   0.893 127.213  0.00  0.00    -0.009 A 
ATOM     11  C   LIG A   1      -8.178   2.224 126.784  0.00  0.00    +0.056 A 
ATOM     12  C   LIG A   1      -8.617   2.538 125.499  0.00  0.00    +0.162 A 
ATOM     13  C   LIG A   1      -8.919   1.494 124.624  0.00  0.00    +0.162 A 
ATOM     14  C   LIG A   1      -8.662   0.165 125.021  0.00  0.00    +0.055 A 
ATOM     15  C   LIG A   1      -8.166  -0.173 126.304  0.00  0.00    -0.013 A 
ATOM     16  C   LIG A   1      -7.712  -1.611 126.670  0.00  0.00    +0.076 C 
ATOM     17  C   LIG A   1      -6.566  -2.069 125.727  0.00  0.00    +0.068 C 
ENDROOT
BRANCH   1  19
ATOM     18  C   LIG A   1      -4.847  -3.580 123.779  0.00  0.00    +0.194 C 
ATOM     19  O   LIG A   1      -6.207  -3.871 124.072  0.00  0.00    -0.376 OA
ENDBRANCH   1  19
BRANCH   9  20
ATOM     20  O   LIG A   1      -8.598   1.440 129.441  0.00  0.00    -0.374 OA
ATOM     21  C   LIG A   1      -8.482   1.303 130.848  0.00  0.00    +0.195 C 
ENDBRANCH   9  20
BRANCH  12  22
ATOM     22  O   LIG A   1      -8.695   3.826 125.049  0.00  0.00    -0.491 OA
ATOM     23  C   LIG A   1      -7.690   4.720 125.510  0.00  0.00    +0.277 C 
ENDBRANCH  12  22
BRANCH  13  24
ATOM     24  O   LIG A   1      -9.409   1.626 123.344  0.00  0.00    -0.491 OA
ATOM     25  C   LIG A   1     -10.080   0.484 122.808  0.00  0.00    +0.277 C 
ENDBRANCH  13  24
TORSDOF 4
ENDMDL
MODEL 3
REMARK VINA RESULT:      -6.5      3.048      6.430
REMARK  Name = NuBBE_2067
REMARK  8 active torsions:
REMARK  status: ('A' for Active; 'I' for Inactive)
REMARK    1  A    between atoms: C_1  and  O_2
REMARK    2  A    between atoms: O_2  and  C_3
REMARK    3  A    between atoms: C_12  and  O_14
REMARK    4  A    between atoms: O_14  and  C_15
REMARK    5  A    between atoms: C_18  and  O_19
REMARK    6  A    between atoms: O_19  and  C_20
REMARK    7  A    between atoms: C_21  and  O_22
REMARK    8  A    between atoms: O_22  and  C_23
REMARK                            x       y       z     vdW  Elec       q    Type
REMARK                         _______ _______ _______ _____ _____    ______ ____
ROOT
ATOM      1  C   LIG A   1      -7.561   2.339 123.686  0.00  0.00    +0.143 C 
ATOM      2  C   LIG A   1      -9.067   2.321 123.529  0.00  0.00    +0.004 C 
ATOM      3  C   LIG A   1      -9.819   1.210 123.657  0.00  0.00    +0.004 C 
ATOM      4  C   LIG A   1      -9.128  -0.018 123.885  0.00  0.00    -0.026 C 
ATOM      5  C   LIG A   1      -9.163  -1.018 122.981  0.00  0.00    -0.006 C 
ATOM      6  C   LIG A   1      -7.904  -1.800 123.063  0.00  0.00    +0.113 C 
ATOM      7  N   LIG A   1      -7.265  -1.415 124.353  0.00  0.00    -0.282 NA
ATOM      8  C   LIG A   1      -7.639  -2.459 125.310  0.00  0.00    +0.122 C 
ATOM      9  C   LIG A   1      -7.196  -2.210 126.748  0.00  0.00    +0.162 C 
ATOM     10  C   LIG A   1      -7.577  -0.807 127.168  0.00  0.00    -0.009 A 
ATOM     11  C   LIG A   1      -7.477  -0.490 128.536  0.00  0.00    +0.056 A 
ATOM     12  C   LIG A   1      -7.911   0.732 129.048  0.00  0.00    +0.162 A 
ATOM     13  C   LIG A   1      -8.485   1.654 128.172  0.00  0.00    +0.162 A 
ATOM     14  C   LIG A   1      -8.501   1.375 126.789  0.00  0.00    +0.055 A 
ATOM     15  C   LIG A   1      -8.016   0.162 126.243  0.00  0.00    -0.013 A 
ATOM     16  C   LIG A   1      -7.866  -0.063 124.715  0.00  0.00    +0.076 C 
ATOM     17  C   LIG A   1      -6.905   0.996 124.108  0.00  0.00    +0.068 C 
ENDROOT
BRANCH   1  19
ATOM     18  C   LIG A   1      -6.054   3.813 122.521  0.00  0.00    +0.194 C 
ATOM     19  O   LIG A   1      -7.047   2.799 122.422  0.00  0.00    -0.376 OA
ENDBRANCH   1  19
BRANCH   9  20
ATOM     20  O   LIG A   1      -7.900  -3.108 127.631  0.00  0.00    -0.374 OA
ATOM     21  C   LIG A   1      -9.088  -3.674 127.100  0.00  0.00    +0.195 C 
ENDBRANCH   9  20
BRANCH  12  22
ATOM     22  O   LIG A   1      -7.733   1.079 130.357  0.00  0.00    -0.491 OA
ATOM     23  C   LIG A   1      -8.382   0.263 131.324  0.00  0.00    +0.277 C 
ENDBRANCH  12  22
BRANCH  13  24
ATOM     24  O   LIG A   1      -9.009   2.880 128.516  0.00  0.00    -0.491 OA
ATOM     25  C   LIG A   1      -8.103   3.984 128.473  0.00  0.00    +0.277 C 
ENDBRANCH  13  24
TORSDOF 4
ENDMDL
MODEL 4
REMARK VINA RESULT:      -6.4      2.691      5.663
REMARK  Name = NuBBE_2067
REMARK  8 active torsions:
REMARK  status: ('A' for Active; 'I' for Inactive)
REMARK    1  A    between atoms: C_1  and  O_2
REMARK    2  A    between atoms: O_2  and  C_3
REMARK    3  A    between atoms: C_12  and  O_14
REMARK    4  A    between atoms: O_14  and  C_15
REMARK    5  A    between atoms: C_18  and  O_19
REMARK    6  A    between atoms: O_19  and  C_20
REMARK    7  A    between atoms: C_21  and  O_22
REMARK    8  A    between atoms: O_22  and  C_23
REMARK                            x       y       z     vdW  Elec       q    Type
REMARK                         _______ _______ _______ _____ _____    ______ ____
ROOT
ATOM      1  C   LIG A   1      -7.704  -2.180 126.591  0.00  0.00    +0.143 C 
ATOM      2  C   LIG A   1      -6.468  -2.505 125.778  0.00  0.00    +0.004 C 
ATOM      3  C   LIG A   1      -6.260  -2.061 124.523  0.00  0.00    +0.004 C 
ATOM      4  C   LIG A   1      -7.308  -1.301 123.921  0.00  0.00    -0.026 C 
ATOM      5  C   LIG A   1      -7.968  -1.756 122.837  0.00  0.00    -0.006 C 
ATOM      6  C   LIG A   1      -9.355  -1.228 122.847  0.00  0.00    +0.113 C 
ATOM      7  N   LIG A   1      -9.362  -0.111 123.834  0.00  0.00    -0.282 NA
ATOM      8  C   LIG A   1      -9.207   1.114 123.048  0.00  0.00    +0.122 C 
ATOM      9  C   LIG A   1      -9.060   2.395 123.863  0.00  0.00    +0.162 C 
ATOM     10  C   LIG A   1      -8.014   2.202 124.939  0.00  0.00    -0.009 A 
ATOM     11  C   LIG A   1      -7.565   3.350 125.621  0.00  0.00    +0.056 A 
ATOM     12  C   LIG A   1      -6.523   3.303 126.546  0.00  0.00    +0.162 A 
ATOM     13  C   LIG A   1      -5.895   2.079 126.779  0.00  0.00    +0.162 A 
ATOM     14  C   LIG A   1      -6.404   0.914 126.168  0.00  0.00    +0.055 A 
ATOM     15  C   LIG A   1      -7.495   0.932 125.266  0.00  0.00    -0.013 A 
ATOM     16  C   LIG A   1      -8.166  -0.365 124.742  0.00  0.00    +0.076 C 
ATOM     17  C   LIG A   1      -8.715  -1.203 125.929  0.00  0.00    +0.068 C 
ENDROOT
BRANCH   1  19
ATOM     18  C   LIG A   1      -8.665  -3.637 128.250  0.00  0.00    +0.194 C 
ATOM     19  O   LIG A   1      -8.318  -3.449 126.884  0.00  0.00    -0.376 OA
ENDBRANCH   1  19
BRANCH   9  20
ATOM     20  O   LIG A   1      -8.582   3.456 123.012  0.00  0.00    -0.374 OA
ATOM     21  C   LIG A   1      -8.658   3.198 121.619  0.00  0.00    +0.195 C 
ENDBRANCH   9  20
BRANCH  12  22
ATOM     22  O   LIG A   1      -6.145   4.395 127.275  0.00  0.00    -0.491 OA
ATOM     23  C   LIG A   1      -4.970   5.069 126.845  0.00  0.00    +0.277 C 
ENDBRANCH  12  22
BRANCH  13  24
ATOM     24  O   LIG A   1      -4.824   1.866 127.617  0.00  0.00    -0.491 OA
ATOM     25  C   LIG A   1      -5.083   1.074 128.779  0.00  0.00    +0.277 C 
ENDBRANCH  13  24
TORSDOF 4
ENDMDL
MODEL 5
REMARK VINA RESULT:      -6.4      4.442      7.097
REMARK  Name = NuBBE_2067
REMARK  8 active torsions:
REMARK  status: ('A' for Active; 'I' for Inactive)
REMARK    1  A    between atoms: C_1  and  O_2
REMARK    2  A    between atoms: O_2  and  C_3
REMARK    3  A    between atoms: C_12  and  O_14
REMARK    4  A    between atoms: O_14  and  C_15
REMARK    5  A    between atoms: C_18  and  O_19
REMARK    6  A    between atoms: O_19  and  C_20
REMARK    7  A    between atoms: C_21  and  O_22
REMARK    8  A    between atoms: O_22  and  C_23
REMARK                            x       y       z     vdW  Elec       q    Type
REMARK                         _______ _______ _______ _____ _____    ______ ____
ROOT
ATOM      1  C   LIG A   1      -5.385  -3.291 129.244  0.00  0.00    +0.143 C 
ATOM      2  C   LIG A   1      -6.525  -3.920 130.018  0.00  0.00    +0.004 C 
ATOM      3  C   LIG A   1      -7.448  -3.211 130.699  0.00  0.00    +0.004 C 
ATOM      4  C   LIG A   1      -7.282  -1.794 130.733  0.00  0.00    -0.026 C 
ATOM      5  C   LIG A   1      -7.039  -1.147 131.891  0.00  0.00    -0.006 C 
ATOM      6  C   LIG A   1      -6.235   0.070 131.615  0.00  0.00    +0.113 C 
ATOM      7  N   LIG A   1      -6.333   0.302 130.147  0.00  0.00    -0.282 NA
ATOM      8  C   LIG A   1      -7.385   1.306 129.972  0.00  0.00    +0.122 C 
ATOM      9  C   LIG A   1      -7.752   1.616 128.525  0.00  0.00    +0.162 C 
ATOM     10  C   LIG A   1      -7.981   0.328 127.765  0.00  0.00    -0.009 A 
ATOM     11  C   LIG A   1      -8.573   0.423 126.491  0.00  0.00    +0.056 A 
ATOM     12  C   LIG A   1      -8.935  -0.705 125.756  0.00  0.00    +0.162 A 
ATOM     13  C   LIG A   1      -8.721  -1.963 126.319  0.00  0.00    +0.162 A 
ATOM     14  C   LIG A   1      -8.045  -2.062 127.553  0.00  0.00    +0.055 A 
ATOM     15  C   LIG A   1      -7.622  -0.930 128.290  0.00  0.00    -0.013 A 
ATOM     16  C   LIG A   1      -6.720  -1.044 129.548  0.00  0.00    +0.076 C 
ATOM     17  C   LIG A   1      -5.378  -1.739 129.186  0.00  0.00    +0.068 C 
ENDROOT
BRANCH   1  19
ATOM     18  C   LIG A   1      -3.017  -3.677 129.041  0.00  0.00    +0.194 C 
ATOM     19  O   LIG A   1      -4.181  -3.798 129.848  0.00  0.00    -0.376 OA
ENDBRANCH   1  19
BRANCH   9  20
ATOM     20  O   LIG A   1      -9.000   2.340 128.489  0.00  0.00    -0.374 OA
ATOM     21  C   LIG A   1      -9.334   3.032 129.681  0.00  0.00    +0.195 C 
ENDBRANCH   9  20
BRANCH  12  22
ATOM     22  O   LIG A   1      -9.426  -0.620 124.483  0.00  0.00    -0.491 OA
ATOM     23  C   LIG A   1      -8.498  -0.257 123.469  0.00  0.00    +0.277 C 
ENDBRANCH  12  22
BRANCH  13  24
ATOM     24  O   LIG A   1      -9.064  -3.172 125.754  0.00  0.00    -0.491 OA
ATOM     25  C   LIG A   1      -8.086  -3.764 124.898  0.00  0.00    +0.277 C 
ENDBRANCH  13  24
TORSDOF 4
ENDMDL
MODEL 6
REMARK VINA RESULT:      -6.0      2.924      6.016
REMARK  Name = NuBBE_2067
REMARK  8 active torsions:
REMARK  status: ('A' for Active; 'I' for Inactive)
REMARK    1  A    between atoms: C_1  and  O_2
REMARK    2  A    between atoms: O_2  and  C_3
REMARK    3  A    between atoms: C_12  and  O_14
REMARK    4  A    between atoms: O_14  and  C_15
REMARK    5  A    between atoms: C_18  and  O_19
REMARK    6  A    between atoms: O_19  and  C_20
REMARK    7  A    between atoms: C_21  and  O_22
REMARK    8  A    between atoms: O_22  and  C_23
REMARK                            x       y       z     vdW  Elec       q    Type
REMARK                         _______ _______ _______ _____ _____    ______ ____
ROOT
ATOM      1  C   LIG A   1      -6.805   2.837 123.618  0.00  0.00    +0.143 C 
ATOM      2  C   LIG A   1      -7.925   3.389 124.474  0.00  0.00    +0.004 C 
ATOM      3  C   LIG A   1      -9.018   2.682 124.823  0.00  0.00    +0.004 C 
ATOM      4  C   LIG A   1      -9.138   1.365 124.287  0.00  0.00    -0.026 C 
ATOM      5  C   LIG A   1     -10.134   1.042 123.439  0.00  0.00    -0.006 C 
ATOM      6  C   LIG A   1      -9.673  -0.030 122.521  0.00  0.00    +0.113 C 
ATOM      7  N   LIG A   1      -8.436  -0.589 123.134  0.00  0.00    -0.282 NA
ATOM      8  C   LIG A   1      -8.858  -1.788 123.860  0.00  0.00    +0.122 C 
ATOM      9  C   LIG A   1      -7.767  -2.470 124.679  0.00  0.00    +0.162 C 
ATOM     10  C   LIG A   1      -7.045  -1.445 125.526  0.00  0.00    -0.009 A 
ATOM     11  C   LIG A   1      -6.182  -1.924 126.531  0.00  0.00    +0.056 A 
ATOM     12  C   LIG A   1      -5.559  -1.073 127.442  0.00  0.00    +0.162 A 
ATOM     13  C   LIG A   1      -5.823   0.294 127.363  0.00  0.00    +0.162 A 
ATOM     14  C   LIG A   1      -6.612   0.785 126.302  0.00  0.00    +0.055 A 
ATOM     15  C   LIG A   1      -7.211  -0.058 125.335  0.00  0.00    -0.013 A 
ATOM     16  C   LIG A   1      -7.920   0.496 124.070  0.00  0.00    +0.076 C 
ATOM     17  C   LIG A   1      -6.927   1.339 123.223  0.00  0.00    +0.068 C 
ENDROOT
BRANCH   1  19
ATOM     18  C   LIG A   1      -7.743   3.399 121.472  0.00  0.00    +0.194 C 
ATOM     19  O   LIG A   1      -6.754   3.683 122.455  0.00  0.00    -0.376 OA
ENDBRANCH   1  19
BRANCH   9  20
ATOM     20  O   LIG A   1      -8.368  -3.408 125.596  0.00  0.00    -0.374 OA
ATOM     21  C   LIG A   1      -9.650  -3.045 126.082  0.00  0.00    +0.195 C 
ENDBRANCH   9  20
BRANCH  12  22
ATOM     22  O   LIG A   1      -4.652  -1.524 128.359  0.00  0.00    -0.491 OA
ATOM     23  C   LIG A   1      -4.722  -2.904 128.695  0.00  0.00    +0.277 C 
ENDBRANCH  12  22
BRANCH  13  24
ATOM     24  O   LIG A   1      -5.334   1.264 128.210  0.00  0.00    -0.491 OA
ATOM     25  C   LIG A   1      -4.453   2.224 127.623  0.00  0.00    +0.277 C 
ENDBRANCH  13  24
TORSDOF 4
ENDMDL
MODEL 7
REMARK VINA RESULT:      -6.0      6.619     10.007
REMARK  Name = NuBBE_2067
REMARK  8 active torsions:
REMARK  status: ('A' for Active; 'I' for Inactive)
REMARK    1  A    between atoms: C_1  and  O_2
REMARK    2  A    between atoms: O_2  and  C_3
REMARK    3  A    between atoms: C_12  and  O_14
REMARK    4  A    between atoms: O_14  and  C_15
REMARK    5  A    between atoms: C_18  and  O_19
REMARK    6  A    between atoms: O_19  and  C_20
REMARK    7  A    between atoms: C_21  and  O_22
REMARK    8  A    between atoms: O_22  and  C_23
REMARK                            x       y       z     vdW  Elec       q    Type
REMARK                         _______ _______ _______ _____ _____    ______ ____
ROOT
ATOM      1  C   LIG A   1      -8.101   4.754 129.646  0.00  0.00    +0.143 C 
ATOM      2  C   LIG A   1      -8.895   6.044 129.656  0.00  0.00    +0.004 C 
ATOM      3  C   LIG A   1      -9.226   6.710 130.780  0.00  0.00    +0.004 C 
ATOM      4  C   LIG A   1      -8.856   6.111 132.022  0.00  0.00    -0.026 C 
ATOM      5  C   LIG A   1      -9.788   5.695 132.902  0.00  0.00    -0.006 C 
ATOM      6  C   LIG A   1      -9.255   4.547 133.679  0.00  0.00    +0.113 C 
ATOM      7  N   LIG A   1      -7.783   4.547 133.452  0.00  0.00    -0.282 NA
ATOM      8  C   LIG A   1      -7.201   5.231 134.608  0.00  0.00    +0.122 C 
ATOM      9  C   LIG A   1      -5.696   5.463 134.536  0.00  0.00    +0.162 C 
ATOM     10  C   LIG A   1      -5.333   6.072 133.199  0.00  0.00    -0.009 A 
ATOM     11  C   LIG A   1      -4.030   6.586 133.053  0.00  0.00    +0.056 A 
ATOM     12  C   LIG A   1      -3.628   7.271 131.907  0.00  0.00    +0.162 A 
ATOM     13  C   LIG A   1      -4.560   7.468 130.888  0.00  0.00    +0.162 A 
ATOM     14  C   LIG A   1      -5.835   6.874 130.993  0.00  0.00    +0.055 A 
ATOM     15  C   LIG A   1      -6.245   6.129 132.126  0.00  0.00    -0.013 A 
ATOM     16  C   LIG A   1      -7.572   5.326 132.159  0.00  0.00    +0.076 C 
ATOM     17  C   LIG A   1      -7.585   4.263 131.026  0.00  0.00    +0.068 C 
ENDROOT
BRANCH   1  19
ATOM     18  C   LIG A   1      -9.565   2.864 129.936  0.00  0.00    +0.194 C 
ATOM     19  O   LIG A   1      -8.959   3.777 129.029  0.00  0.00    -0.376 OA
ENDBRANCH   1  19
BRANCH   9  20
ATOM     20  O   LIG A   1      -5.307   6.422 135.542  0.00  0.00    -0.374 OA
ATOM     21  C   LIG A   1      -6.239   6.608 136.595  0.00  0.00    +0.195 C 
ENDBRANCH   9  20
BRANCH  12  22
ATOM     22  O   LIG A   1      -2.341   7.693 131.723  0.00  0.00    -0.491 OA
ATOM     23  C   LIG A   1      -1.787   8.504 132.750  0.00  0.00    +0.277 C 
ENDBRANCH  12  22
BRANCH  13  24
ATOM     24  O   LIG A   1      -4.345   8.162 129.718  0.00  0.00    -0.491 OA
ATOM     25  C   LIG A   1      -3.608   7.474 128.706  0.00  0.00    +0.277 C 
ENDBRANCH  13  24
TORSDOF 4
ENDMDL
MODEL 8
REMARK VINA RESULT:      -6.0      2.836      4.794
REMARK  Name = NuBBE_2067
REMARK  8 active torsions:
REMARK  status: ('A' for Active; 'I' for Inactive)
REMARK    1  A    between atoms: C_1  and  O_2
REMARK    2  A    between atoms: O_2  and  C_3
REMARK    3  A    between atoms: C_12  and  O_14
REMARK    4  A    between atoms: O_14  and  C_15
REMARK    5  A    between atoms: C_18  and  O_19
REMARK    6  A    between atoms: O_19  and  C_20
REMARK    7  A    between atoms: C_21  and  O_22
REMARK    8  A    between atoms: O_22  and  C_23
REMARK                            x       y       z     vdW  Elec       q    Type
REMARK                         _______ _______ _______ _____ _____    ______ ____
ROOT
ATOM      1  C   LIG A   1      -4.047   2.681 127.421  0.00  0.00    +0.143 C 
ATOM      2  C   LIG A   1      -5.034   2.522 128.559  0.00  0.00    +0.004 C 
ATOM      3  C   LIG A   1      -6.367   2.659 128.417  0.00  0.00    +0.004 C 
ATOM      4  C   LIG A   1      -6.847   3.045 127.129  0.00  0.00    -0.026 C 
ATOM      5  C   LIG A   1      -7.471   4.224 126.940  0.00  0.00    -0.006 C 
ATOM      6  C   LIG A   1      -7.226   4.694 125.553  0.00  0.00    +0.113 C 
ATOM      7  N   LIG A   1      -6.711   3.513 124.805  0.00  0.00    -0.282 NA
ATOM      8  C   LIG A   1      -7.867   2.951 124.104  0.00  0.00    +0.122 C 
ATOM      9  C   LIG A   1      -7.604   1.646 123.360  0.00  0.00    +0.162 C 
ATOM     10  C   LIG A   1      -6.887   0.672 124.270  0.00  0.00    -0.009 A 
ATOM     11  C   LIG A   1      -6.790  -0.666 123.841  0.00  0.00    +0.056 A 
ATOM     12  C   LIG A   1      -6.255  -1.667 124.649  0.00  0.00    +0.162 A 
ATOM     13  C   LIG A   1      -5.827  -1.328 125.933  0.00  0.00    +0.162 A 
ATOM     14  C   LIG A   1      -5.837   0.026 126.330  0.00  0.00    +0.055 A 
ATOM     15  C   LIG A   1      -6.327   1.066 125.503  0.00  0.00    -0.013 A 
ATOM     16  C   LIG A   1      -6.168   2.566 125.867  0.00  0.00    +0.076 C 
ATOM     17  C   LIG A   1      -4.664   2.925 126.016  0.00  0.00    +0.068 C 
ENDROOT
BRANCH   1  19
ATOM     18  C   LIG A   1      -3.636   5.054 127.417  0.00  0.00    +0.194 C 
ATOM     19  O   LIG A   1      -3.182   3.764 127.808  0.00  0.00    -0.376 OA
ENDBRANCH   1  19
BRANCH   9  20
ATOM     20  O   LIG A   1      -8.860   1.030 123.010  0.00  0.00    -0.374 OA
ATOM     21  C   LIG A   1      -9.977   1.452 123.775  0.00  0.00    +0.195 C 
ENDBRANCH   9  20
BRANCH  12  22
ATOM     22  O   LIG A   1      -6.075  -2.947 124.204  0.00  0.00    -0.491 OA
ATOM     23  C   LIG A   1      -4.883  -3.202 123.473  0.00  0.00    +0.277 C 
ENDBRANCH  12  22
BRANCH  13  24
ATOM     24  O   LIG A   1      -5.323  -2.197 126.875  0.00  0.00    -0.491 OA
ATOM     25  C   LIG A   1      -6.077  -2.323 128.081  0.00  0.00    +0.277 C 
ENDBRANCH  13  24
TORSDOF 4
ENDMDL
MODEL 9
REMARK VINA RESULT:      -6.0      4.930      7.249
REMARK  Name = NuBBE_2067
REMARK  8 active torsions:
REMARK  status: ('A' for Active; 'I' for Inactive)
REMARK    1  A    between atoms: C_1  and  O_2
REMARK    2  A    between atoms: O_2  and  C_3
REMARK    3  A    between atoms: C_12  and  O_14
REMARK    4  A    between atoms: O_14  and  C_15
REMARK    5  A    between atoms: C_18  and  O_19
REMARK    6  A    between atoms: O_19  and  C_20
REMARK    7  A    between atoms: C_21  and  O_22
REMARK    8  A    between atoms: O_22  and  C_23
REMARK                            x       y       z     vdW  Elec       q    Type
REMARK                         _______ _______ _______ _____ _____    ______ ____
ROOT
ATOM      1  C   LIG A   1     -10.339   6.262 129.994  0.00  0.00    +0.143 C 
ATOM      2  C   LIG A   1      -9.148   7.135 130.328  0.00  0.00    +0.004 C 
ATOM      3  C   LIG A   1      -8.162   6.765 131.170  0.00  0.00    +0.004 C 
ATOM      4  C   LIG A   1      -8.306   5.505 131.824  0.00  0.00    -0.026 C 
ATOM      5  C   LIG A   1      -8.444   5.424 133.162  0.00  0.00    -0.006 C 
ATOM      6  C   LIG A   1      -9.252   4.225 133.503  0.00  0.00    +0.113 C 
ATOM      7  N   LIG A   1      -9.273   3.383 132.274  0.00  0.00    -0.282 NA
ATOM      8  C   LIG A   1      -8.226   2.377 132.464  0.00  0.00    +0.122 C 
ATOM      9  C   LIG A   1      -7.976   1.466 131.266  0.00  0.00    +0.162 C 
ATOM     10  C   LIG A   1      -7.828   2.298 130.010  0.00  0.00    -0.009 A 
ATOM     11  C   LIG A   1      -7.342   1.651 128.857  0.00  0.00    +0.056 A 
ATOM     12  C   LIG A   1      -7.058   2.344 127.683  0.00  0.00    +0.162 A 
ATOM     13  C   LIG A   1      -7.240   3.728 127.665  0.00  0.00    +0.162 A 
ATOM     14  C   LIG A   1      -7.813   4.363 128.787  0.00  0.00    +0.055 A 
ATOM     15  C   LIG A   1      -8.159   3.667 129.971  0.00  0.00    -0.013 A 
ATOM     16  C   LIG A   1      -8.955   4.332 131.126  0.00  0.00    +0.076 C 
ATOM     17  C   LIG A   1     -10.331   4.836 130.610  0.00  0.00    +0.068 C 
ENDROOT
BRANCH   1  19
ATOM     18  C   LIG A   1     -11.979   6.669 131.710  0.00  0.00    +0.194 C 
ATOM     19  O   LIG A   1     -11.496   7.008 130.417  0.00  0.00    -0.376 OA
ENDBRANCH   1  19
BRANCH   9  20
ATOM     20  O   LIG A   1      -6.726   0.768 131.444  0.00  0.00    -0.374 OA
ATOM     21  C   LIG A   1      -5.783   1.416 132.282  0.00  0.00    +0.195 C 
ENDBRANCH   9  20
BRANCH  12  22
ATOM     22  O   LIG A   1      -6.673   1.710 126.535  0.00  0.00    -0.491 OA
ATOM     23  C   LIG A   1      -5.281   1.468 126.380  0.00  0.00    +0.277 C 
ENDBRANCH  12  22
BRANCH  13  24
ATOM     24  O   LIG A   1      -6.962   4.568 126.611  0.00  0.00    -0.491 OA
ATOM     25  C   LIG A   1      -8.042   4.825 125.710  0.00  0.00    +0.277 C 
ENDBRANCH  13  24
TORSDOF 4
ENDMDL
