MODEL 1
REMARK VINA RESULT:      -6.0      0.000      0.000
REMARK  Name = NuBBE_296
REMARK  3 active torsions:
REMARK  status: ('A' for Active; 'I' for Inactive)
REMARK    1  A    between atoms: C_4  and  C_15
REMARK    2  A    between atoms: C_9  and  O_10
REMARK    3  A    between atoms: O_10  and  C_11
REMARK                            x       y       z     vdW  Elec       q    Type
REMARK                         _______ _______ _______ _____ _____    ______ ____
ROOT
ATOM      1  O   LIG A   1     -10.223   6.875 126.994  0.00  0.00    -0.292 OA
ATOM      2  C   LIG A   1     -10.904   7.195 127.961  0.00  0.00    +0.174 C 
ATOM      3  C   LIG A   1     -12.106   8.082 127.778  0.00  0.00    +0.124 C 
ATOM      4  C   LIG A   1     -12.267   8.932 129.022  0.00  0.00    +0.178 C 
ATOM      5  O   LIG A   1     -12.501   8.096 130.161  0.00  0.00    -0.488 OA
ATOM      6  C   LIG A   1     -11.503   7.177 130.359  0.00  0.00    +0.135 A 
ATOM      7  C   LIG A   1     -10.655   6.700 129.346  0.00  0.00    +0.101 A 
ATOM      8  C   LIG A   1      -9.650   5.764 129.658  0.00  0.00    +0.134 A 
ATOM      9  C   LIG A   1      -9.531   5.313 130.981  0.00  0.00    +0.046 A 
ATOM     10  C   LIG A   1     -10.398   5.773 131.976  0.00  0.00    +0.007 A 
ATOM     11  C   LIG A   1     -11.386   6.700 131.664  0.00  0.00    +0.046 A 
ATOM     12  C   LIG A   1     -13.462   9.868 128.891  0.00  0.00    +0.052 C 
ENDROOT
BRANCH   8  13
ATOM     13  O   LIG A   1      -8.838   5.340 128.643  0.00  0.00    -0.494 OA
ATOM     14  C   LIG A   1      -8.108   4.134 128.813  0.00  0.00    +0.277 C 
ENDBRANCH   8  13
TORSDOF 1
ENDMDL
MODEL 2
REMARK VINA RESULT:      -5.9      1.550      4.072
REMARK  Name = NuBBE_296
REMARK  3 active torsions:
REMARK  status: ('A' for Active; 'I' for Inactive)
REMARK    1  A    between atoms: C_4  and  C_15
REMARK    2  A    between atoms: C_9  and  O_10
REMARK    3  A    between atoms: O_10  and  C_11
REMARK                            x       y       z     vdW  Elec       q    Type
REMARK                         _______ _______ _______ _____ _____    ______ ____
ROOT
ATOM      1  O   LIG A   1      -9.012   5.390 128.560  0.00  0.00    -0.292 OA
ATOM      2  C   LIG A   1      -9.477   5.597 129.675  0.00  0.00    +0.174 C 
ATOM      3  C   LIG A   1      -8.692   5.221 130.904  0.00  0.00    +0.124 C 
ATOM      4  C   LIG A   1      -9.669   4.824 131.991  0.00  0.00    +0.178 C 
ATOM      5  O   LIG A   1     -10.511   5.933 132.325  0.00  0.00    -0.488 OA
ATOM      6  C   LIG A   1     -11.201   6.420 131.245  0.00  0.00    +0.135 A 
ATOM      7  C   LIG A   1     -10.784   6.277 129.911  0.00  0.00    +0.101 A 
ATOM      8  C   LIG A   1     -11.575   6.804 128.871  0.00  0.00    +0.134 A 
ATOM      9  C   LIG A   1     -12.760   7.479 129.196  0.00  0.00    +0.046 A 
ATOM     10  C   LIG A   1     -13.152   7.639 130.528  0.00  0.00    +0.007 A 
ATOM     11  C   LIG A   1     -12.370   7.114 131.551  0.00  0.00    +0.046 A 
ATOM     12  C   LIG A   1      -8.932   4.413 133.260  0.00  0.00    +0.052 C 
ENDROOT
BRANCH   8  13
ATOM     13  O   LIG A   1     -11.137   6.628 127.587  0.00  0.00    -0.494 OA
ATOM     14  C   LIG A   1     -10.987   7.770 126.757  0.00  0.00    +0.277 C 
ENDBRANCH   8  13
TORSDOF 1
ENDMDL
MODEL 3
REMARK VINA RESULT:      -5.7      2.014      2.235
REMARK  Name = NuBBE_296
REMARK  3 active torsions:
REMARK  status: ('A' for Active; 'I' for Inactive)
REMARK    1  A    between atoms: C_4  and  C_15
REMARK    2  A    between atoms: C_9  and  O_10
REMARK    3  A    between atoms: O_10  and  C_11
REMARK                            x       y       z     vdW  Elec       q    Type
REMARK                         _______ _______ _______ _____ _____    ______ ____
ROOT
ATOM      1  O   LIG A   1      -9.459   8.644 128.914  0.00  0.00    -0.292 OA
ATOM      2  C   LIG A   1     -10.262   7.720 128.986  0.00  0.00    +0.174 C 
ATOM      3  C   LIG A   1     -11.487   7.713 128.112  0.00  0.00    +0.124 C 
ATOM      4  C   LIG A   1     -12.609   7.031 128.868  0.00  0.00    +0.178 C 
ATOM      5  O   LIG A   1     -12.257   5.672 129.150  0.00  0.00    -0.488 OA
ATOM      6  C   LIG A   1     -11.091   5.563 129.863  0.00  0.00    +0.135 A 
ATOM      7  C   LIG A   1     -10.072   6.529 129.864  0.00  0.00    +0.101 A 
ATOM      8  C   LIG A   1      -8.916   6.326 130.644  0.00  0.00    +0.134 A 
ATOM      9  C   LIG A   1      -8.803   5.145 131.392  0.00  0.00    +0.046 A 
ATOM     10  C   LIG A   1      -9.811   4.178 131.362  0.00  0.00    +0.007 A 
ATOM     11  C   LIG A   1     -10.951   4.385 130.595  0.00  0.00    +0.046 A 
ATOM     12  C   LIG A   1     -13.887   7.008 128.039  0.00  0.00    +0.052 C 
ENDROOT
BRANCH   8  13
ATOM     13  O   LIG A   1      -7.957   7.300 130.626  0.00  0.00    -0.494 OA
ATOM     14  C   LIG A   1      -6.668   6.997 131.138  0.00  0.00    +0.277 C 
ENDBRANCH   8  13
TORSDOF 1
ENDMDL
MODEL 4
REMARK VINA RESULT:      -5.7      1.203      5.002
REMARK  Name = NuBBE_296
REMARK  3 active torsions:
REMARK  status: ('A' for Active; 'I' for Inactive)
REMARK    1  A    between atoms: C_4  and  C_15
REMARK    2  A    between atoms: C_9  and  O_10
REMARK    3  A    between atoms: O_10  and  C_11
REMARK                            x       y       z     vdW  Elec       q    Type
REMARK                         _______ _______ _______ _____ _____    ______ ____
ROOT
ATOM      1  O   LIG A   1     -12.275   6.794 132.022  0.00  0.00    -0.292 OA
ATOM      2  C   LIG A   1     -11.548   6.388 131.122  0.00  0.00    +0.174 C 
ATOM      3  C   LIG A   1     -10.824   5.077 131.270  0.00  0.00    +0.124 C 
ATOM      4  C   LIG A   1      -9.505   5.174 130.530  0.00  0.00    +0.178 C 
ATOM      5  O   LIG A   1      -9.740   5.396 129.135  0.00  0.00    -0.488 OA
ATOM      6  C   LIG A   1     -10.485   6.522 128.895  0.00  0.00    +0.135 A 
ATOM      7  C   LIG A   1     -11.374   7.094 129.819  0.00  0.00    +0.101 A 
ATOM      8  C   LIG A   1     -12.083   8.262 129.478  0.00  0.00    +0.134 A 
ATOM      9  C   LIG A   1     -11.895   8.821 128.205  0.00  0.00    +0.046 A 
ATOM     10  C   LIG A   1     -11.029   8.228 127.283  0.00  0.00    +0.007 A 
ATOM     11  C   LIG A   1     -10.328   7.078 127.626  0.00  0.00    +0.046 A 
ATOM     12  C   LIG A   1      -8.714   3.878 130.658  0.00  0.00    +0.052 C 
ENDROOT
BRANCH   8  13
ATOM     13  O   LIG A   1     -12.926   8.792 130.415  0.00  0.00    -0.494 OA
ATOM     14  C   LIG A   1     -13.261  10.169 130.329  0.00  0.00    +0.277 C 
ENDBRANCH   8  13
TORSDOF 1
ENDMDL
MODEL 5
REMARK VINA RESULT:      -5.5      9.435     10.681
REMARK  Name = NuBBE_296
REMARK  3 active torsions:
REMARK  status: ('A' for Active; 'I' for Inactive)
REMARK    1  A    between atoms: C_4  and  C_15
REMARK    2  A    between atoms: C_9  and  O_10
REMARK    3  A    between atoms: O_10  and  C_11
REMARK                            x       y       z     vdW  Elec       q    Type
REMARK                         _______ _______ _______ _____ _____    ______ ____
ROOT
ATOM      1  O   LIG A   1      -5.604  -1.424 125.211  0.00  0.00    -0.292 OA
ATOM      2  C   LIG A   1      -6.611  -2.102 125.379  0.00  0.00    +0.174 C 
ATOM      3  C   LIG A   1      -7.334  -2.689 124.196  0.00  0.00    +0.124 C 
ATOM      4  C   LIG A   1      -8.812  -2.749 124.521  0.00  0.00    +0.178 C 
ATOM      5  O   LIG A   1      -9.034  -3.606 125.647  0.00  0.00    -0.488 OA
ATOM      6  C   LIG A   1      -8.335  -3.213 126.759  0.00  0.00    +0.135 A 
ATOM      7  C   LIG A   1      -7.155  -2.452 126.723  0.00  0.00    +0.101 A 
ATOM      8  C   LIG A   1      -6.521  -2.089 127.927  0.00  0.00    +0.134 A 
ATOM      9  C   LIG A   1      -7.078  -2.515 129.142  0.00  0.00    +0.046 A 
ATOM     10  C   LIG A   1      -8.236  -3.295 129.165  0.00  0.00    +0.007 A 
ATOM     11  C   LIG A   1      -8.861  -3.648 127.974  0.00  0.00    +0.046 A 
ATOM     12  C   LIG A   1      -9.604  -3.320 123.351  0.00  0.00    +0.052 C 
ENDROOT
BRANCH   8  13
ATOM     13  O   LIG A   1      -5.383  -1.334 127.845  0.00  0.00    -0.494 OA
ATOM     14  C   LIG A   1      -5.362  -0.062 128.476  0.00  0.00    +0.277 C 
ENDBRANCH   8  13
TORSDOF 1
ENDMDL
MODEL 6
REMARK VINA RESULT:      -5.5     10.001     11.422
REMARK  Name = NuBBE_296
REMARK  3 active torsions:
REMARK  status: ('A' for Active; 'I' for Inactive)
REMARK    1  A    between atoms: C_4  and  C_15
REMARK    2  A    between atoms: C_9  and  O_10
REMARK    3  A    between atoms: O_10  and  C_11
REMARK                            x       y       z     vdW  Elec       q    Type
REMARK                         _______ _______ _______ _____ _____    ______ ____
ROOT
ATOM      1  O   LIG A   1      -9.970  -2.154 125.737  0.00  0.00    -0.292 OA
ATOM      2  C   LIG A   1      -8.765  -2.332 125.874  0.00  0.00    +0.174 C 
ATOM      3  C   LIG A   1      -8.211  -2.759 127.207  0.00  0.00    +0.124 C 
ATOM      4  C   LIG A   1      -6.825  -2.166 127.360  0.00  0.00    +0.178 C 
ATOM      5  O   LIG A   1      -5.959  -2.671 126.337  0.00  0.00    -0.488 OA
ATOM      6  C   LIG A   1      -6.428  -2.420 125.073  0.00  0.00    +0.135 A 
ATOM      7  C   LIG A   1      -7.781  -2.214 124.758  0.00  0.00    +0.101 A 
ATOM      8  C   LIG A   1      -8.158  -1.950 123.427  0.00  0.00    +0.134 A 
ATOM      9  C   LIG A   1      -7.165  -1.917 122.436  0.00  0.00    +0.046 A 
ATOM     10  C   LIG A   1      -5.825  -2.150 122.756  0.00  0.00    +0.007 A 
ATOM     11  C   LIG A   1      -5.458  -2.406 124.072  0.00  0.00    +0.046 A 
ATOM     12  C   LIG A   1      -6.215  -2.549 128.703  0.00  0.00    +0.052 C 
ENDROOT
BRANCH   8  13
ATOM     13  O   LIG A   1      -9.485  -1.741 123.170  0.00  0.00    -0.494 OA
ATOM     14  C   LIG A   1      -9.875  -0.522 122.556  0.00  0.00    +0.277 C 
ENDBRANCH   8  13
TORSDOF 1
ENDMDL
MODEL 7
REMARK VINA RESULT:      -5.5      2.241      3.182
REMARK  Name = NuBBE_296
REMARK  3 active torsions:
REMARK  status: ('A' for Active; 'I' for Inactive)
REMARK    1  A    between atoms: C_4  and  C_15
REMARK    2  A    between atoms: C_9  and  O_10
REMARK    3  A    between atoms: O_10  and  C_11
REMARK                            x       y       z     vdW  Elec       q    Type
REMARK                         _______ _______ _______ _____ _____    ______ ____
ROOT
ATOM      1  O   LIG A   1     -11.479   4.265 130.133  0.00  0.00    -0.292 OA
ATOM      2  C   LIG A   1     -10.821   5.297 130.068  0.00  0.00    +0.174 C 
ATOM      3  C   LIG A   1     -11.386   6.510 129.378  0.00  0.00    +0.124 C 
ATOM      4  C   LIG A   1     -10.242   7.277 128.747  0.00  0.00    +0.178 C 
ATOM      5  O   LIG A   1      -9.333   7.725 129.759  0.00  0.00    -0.488 OA
ATOM      6  C   LIG A   1      -8.834   6.697 130.517  0.00  0.00    +0.135 A 
ATOM      7  C   LIG A   1      -9.481   5.464 130.700  0.00  0.00    +0.101 A 
ATOM      8  C   LIG A   1      -8.875   4.467 131.490  0.00  0.00    +0.134 A 
ATOM      9  C   LIG A   1      -7.638   4.739 132.092  0.00  0.00    +0.046 A 
ATOM     10  C   LIG A   1      -7.016   5.979 131.925  0.00  0.00    +0.007 A 
ATOM     11  C   LIG A   1      -7.616   6.958 131.142  0.00  0.00    +0.046 A 
ATOM     12  C   LIG A   1     -10.753   8.511 128.015  0.00  0.00    +0.052 C 
ENDROOT
BRANCH   8  13
ATOM     13  O   LIG A   1      -9.534   3.277 131.628  0.00  0.00    -0.494 OA
ATOM     14  C   LIG A   1      -9.337   2.523 132.816  0.00  0.00    +0.277 C 
ENDBRANCH   8  13
TORSDOF 1
ENDMDL
MODEL 8
REMARK VINA RESULT:      -5.3      8.555     10.561
REMARK  Name = NuBBE_296
REMARK  3 active torsions:
REMARK  status: ('A' for Active; 'I' for Inactive)
REMARK    1  A    between atoms: C_4  and  C_15
REMARK    2  A    between atoms: C_9  and  O_10
REMARK    3  A    between atoms: O_10  and  C_11
REMARK                            x       y       z     vdW  Elec       q    Type
REMARK                         _______ _______ _______ _____ _____    ______ ____
ROOT
ATOM      1  O   LIG A   1      -7.176   0.470 126.301  0.00  0.00    -0.292 OA
ATOM      2  C   LIG A   1      -7.694  -0.634 126.421  0.00  0.00    +0.174 C 
ATOM      3  C   LIG A   1      -7.889  -1.232 127.789  0.00  0.00    +0.124 C 
ATOM      4  C   LIG A   1      -7.766  -2.738 127.674  0.00  0.00    +0.178 C 
ATOM      5  O   LIG A   1      -8.790  -3.251 126.815  0.00  0.00    -0.488 OA
ATOM      6  C   LIG A   1      -8.762  -2.692 125.563  0.00  0.00    +0.135 A 
ATOM      7  C   LIG A   1      -8.220  -1.429 125.274  0.00  0.00    +0.101 A 
ATOM      8  C   LIG A   1      -8.230  -0.950 123.949  0.00  0.00    +0.134 A 
ATOM      9  C   LIG A   1      -8.801  -1.747 122.945  0.00  0.00    +0.046 A 
ATOM     10  C   LIG A   1      -9.361  -2.990 123.249  0.00  0.00    +0.007 A 
ATOM     11  C   LIG A   1      -9.346  -3.459 124.557  0.00  0.00    +0.046 A 
ATOM     12  C   LIG A   1      -7.937  -3.403 129.034  0.00  0.00    +0.052 C 
ENDROOT
BRANCH   8  13
ATOM     13  O   LIG A   1      -7.678   0.278 123.712  0.00  0.00    -0.494 OA
ATOM     14  C   LIG A   1      -8.516   1.321 123.237  0.00  0.00    +0.277 C 
ENDBRANCH   8  13
TORSDOF 1
ENDMDL
MODEL 9
REMARK VINA RESULT:      -5.2      1.957      2.689
REMARK  Name = NuBBE_296
REMARK  3 active torsions:
REMARK  status: ('A' for Active; 'I' for Inactive)
REMARK    1  A    between atoms: C_4  and  C_15
REMARK    2  A    between atoms: C_9  and  O_10
REMARK    3  A    between atoms: O_10  and  C_11
REMARK                            x       y       z     vdW  Elec       q    Type
REMARK                         _______ _______ _______ _____ _____    ______ ____
ROOT
ATOM      1  O   LIG A   1      -9.362   5.801 128.369  0.00  0.00    -0.292 OA
ATOM      2  C   LIG A   1      -9.772   5.958 129.514  0.00  0.00    +0.174 C 
ATOM      3  C   LIG A   1     -11.238   6.185 129.767  0.00  0.00    +0.124 C 
ATOM      4  C   LIG A   1     -11.380   7.084 130.978  0.00  0.00    +0.178 C 
ATOM      5  O   LIG A   1     -10.824   6.445 132.133  0.00  0.00    -0.488 OA
ATOM      6  C   LIG A   1      -9.507   6.103 131.968  0.00  0.00    +0.135 A 
ATOM      7  C   LIG A   1      -8.900   5.873 130.722  0.00  0.00    +0.101 A 
ATOM      8  C   LIG A   1      -7.533   5.539 130.660  0.00  0.00    +0.134 A 
ATOM      9  C   LIG A   1      -6.809   5.426 131.856  0.00  0.00    +0.046 A 
ATOM     10  C   LIG A   1      -7.429   5.630 133.092  0.00  0.00    +0.007 A 
ATOM     11  C   LIG A   1      -8.777   5.963 133.147  0.00  0.00    +0.046 A 
ATOM     12  C   LIG A   1     -12.848   7.367 131.277  0.00  0.00    +0.052 C 
ENDROOT
BRANCH   8  13
ATOM     13  O   LIG A   1      -6.982   5.340 129.425  0.00  0.00    -0.494 OA
ATOM     14  C   LIG A   1      -6.308   4.116 129.170  0.00  0.00    +0.277 C 
ENDBRANCH   8  13
TORSDOF 1
ENDMDL
