MODEL 1
REMARK VINA RESULT:      -9.1      0.000      0.000
REMARK  Name = NuBBE_1025
REMARK  7 active torsions:
REMARK  status: ('A' for Active; 'I' for Inactive)
REMARK    1  A    between atoms: O_1  and  C_2
REMARK    2  A    between atoms: C_6  and  C_7
REMARK    3  A    between atoms: C_11  and  C_12
REMARK    4  A    between atoms: C_19  and  C_20
REMARK    5  A    between atoms: C_23  and  C_24
REMARK    6  A    between atoms: C_30  and  C_31
REMARK    7  A    between atoms: C_30  and  C_32
REMARK                            x       y       z     vdW  Elec       q    Type
REMARK                         _______ _______ _______ _____ _____    ______ ____
ROOT
ATOM      1  C   LIG A   1      -9.085   2.522 132.098  0.00  0.00    +0.120 C 
ATOM      2  C   LIG A   1      -8.835   1.053 132.255  0.00  0.00    +0.032 C 
ATOM      3  C   LIG A   1      -8.663   0.365 130.925  0.00  0.00    +0.010 C 
ATOM      4  C   LIG A   1      -7.681   1.091 129.938  0.00  0.00    -0.025 C 
ATOM      5  C   LIG A   1      -6.268   0.707 130.484  0.00  0.00    +0.012 C 
ATOM      6  C   LIG A   1      -8.097   2.673 129.844  0.00  0.00    +0.003 C 
ATOM      7  C   LIG A   1      -7.476   3.368 128.614  0.00  0.00    +0.005 C 
ATOM      8  C   LIG A   1      -7.884   2.611 127.315  0.00  0.00    +0.008 C 
ATOM      9  C   LIG A   1      -7.364   1.138 127.254  0.00  0.00    -0.023 C 
ATOM     10  C   LIG A   1      -5.818   1.240 127.145  0.00  0.00    +0.012 C 
ATOM     11  C   LIG A   1      -7.886   0.412 128.552  0.00  0.00    +0.002 C 
ATOM     12  C   LIG A   1      -7.475  -1.069 128.611  0.00  0.00    +0.005 C 
ATOM     13  C   LIG A   1      -8.140  -1.813 127.503  0.00  0.00    +0.009 C 
ATOM     14  C   LIG A   1      -7.633  -1.258 126.187  0.00  0.00    +0.022 C 
ATOM     15  C   LIG A   1      -7.921   0.289 125.974  0.00  0.00    -0.020 C 
ATOM     16  C   LIG A   1      -9.445   0.542 125.768  0.00  0.00    +0.012 C 
ATOM     17  C   LIG A   1      -7.216   0.680 124.631  0.00  0.00    +0.008 C 
ATOM     18  C   LIG A   1      -7.635  -0.166 123.418  0.00  0.00    +0.011 C 
ATOM     19  C   LIG A   1      -7.724  -1.688 123.683  0.00  0.00    -0.011 C 
ATOM     20  C   LIG A   1      -6.353  -2.353 123.442  0.00  0.00    +0.016 C 
ATOM     21  C   LIG A   1      -8.131  -2.063 125.069  0.00  0.00    -0.064 C 
ATOM     22  C   LIG A   1      -8.917  -3.196 125.081  0.00  0.00    -0.027 C 
ATOM     23  C   LIG A   1      -9.268  -3.589 123.691  0.00  0.00    +0.028 C 
ATOM     24  C   LIG A   1      -8.920  -2.308 122.918  0.00  0.00    +0.015 C 
ATOM     25  C   LIG A   1      -7.993   3.341 131.287  0.00  0.00    -0.006 C 
ATOM     26  C   LIG A   1      -6.462   3.399 131.569  0.00  0.00    +0.014 C 
ATOM     27  C   LIG A   1      -8.356   4.751 131.848  0.00  0.00    +0.014 C 
ENDROOT
BRANCH   1  28
ATOM     28  O   LIG A   1     -10.392   2.705 131.477  0.00  0.00    -0.391 OA
ATOM     29  H   LIG A   1     -11.104   2.519 132.116  0.00  0.00    +0.210 HD
ENDBRANCH   1  28
TORSDOF 1
ENDMDL
MODEL 2
REMARK VINA RESULT:      -8.6      2.634      7.673
REMARK  Name = NuBBE_1025
REMARK  7 active torsions:
REMARK  status: ('A' for Active; 'I' for Inactive)
REMARK    1  A    between atoms: O_1  and  C_2
REMARK    2  A    between atoms: C_6  and  C_7
REMARK    3  A    between atoms: C_11  and  C_12
REMARK    4  A    between atoms: C_19  and  C_20
REMARK    5  A    between atoms: C_23  and  C_24
REMARK    6  A    between atoms: C_30  and  C_31
REMARK    7  A    between atoms: C_30  and  C_32
REMARK                            x       y       z     vdW  Elec       q    Type
REMARK                         _______ _______ _______ _____ _____    ______ ____
ROOT
ATOM      1  C   LIG A   1      -8.451  -1.284 124.071  0.00  0.00    +0.120 C 
ATOM      2  C   LIG A   1      -7.203  -0.469 124.217  0.00  0.00    +0.032 C 
ATOM      3  C   LIG A   1      -6.797  -0.310 125.660  0.00  0.00    +0.010 C 
ATOM      4  C   LIG A   1      -6.804  -1.645 126.488  0.00  0.00    -0.025 C 
ATOM      5  C   LIG A   1      -5.485  -2.355 126.043  0.00  0.00    +0.012 C 
ATOM      6  C   LIG A   1      -8.237  -2.405 126.257  0.00  0.00    +0.003 C 
ATOM      7  C   LIG A   1      -8.503  -3.485 127.328  0.00  0.00    +0.005 C 
ATOM      8  C   LIG A   1      -8.437  -2.851 128.748  0.00  0.00    +0.008 C 
ATOM      9  C   LIG A   1      -7.035  -2.260 129.110  0.00  0.00    -0.023 C 
ATOM     10  C   LIG A   1      -6.076  -3.477 129.209  0.00  0.00    +0.012 C 
ATOM     11  C   LIG A   1      -6.668  -1.223 127.980  0.00  0.00    +0.002 C 
ATOM     12  C   LIG A   1      -5.316  -0.531 128.225  0.00  0.00    +0.005 C 
ATOM     13  C   LIG A   1      -5.405   0.308 129.455  0.00  0.00    +0.009 C 
ATOM     14  C   LIG A   1      -5.661  -0.606 130.636  0.00  0.00    +0.022 C 
ATOM     15  C   LIG A   1      -7.001  -1.453 130.530  0.00  0.00    -0.020 C 
ATOM     16  C   LIG A   1      -8.249  -0.528 130.668  0.00  0.00    +0.012 C 
ATOM     17  C   LIG A   1      -7.009  -2.406 131.773  0.00  0.00    +0.008 C 
ATOM     18  C   LIG A   1      -6.874  -1.693 133.128  0.00  0.00    +0.011 C 
ATOM     19  C   LIG A   1      -5.801  -0.580 133.175  0.00  0.00    -0.011 C 
ATOM     20  C   LIG A   1      -4.429  -1.175 133.556  0.00  0.00    +0.016 C 
ATOM     21  C   LIG A   1      -5.593   0.150 131.889  0.00  0.00    -0.064 C 
ATOM     22  C   LIG A   1      -5.311   1.483 132.099  0.00  0.00    -0.027 C 
ATOM     23  C   LIG A   1      -5.482   1.821 133.537  0.00  0.00    +0.028 C 
ATOM     24  C   LIG A   1      -6.285   0.612 134.039  0.00  0.00    +0.015 C 
ATOM     25  C   LIG A   1      -8.423  -2.738 124.711  0.00  0.00    -0.006 C 
ATOM     26  C   LIG A   1      -7.382  -3.864 124.435  0.00  0.00    +0.014 C 
ATOM     27  C   LIG A   1      -9.596  -3.337 123.873  0.00  0.00    +0.014 C 
ENDROOT
BRANCH   1  28
ATOM     28  O   LIG A   1      -9.565  -0.528 124.632  0.00  0.00    -0.391 OA
ATOM     29  H   LIG A   1      -9.535  -0.544 125.606  0.00  0.00    +0.210 HD
ENDBRANCH   1  28
TORSDOF 1
ENDMDL
MODEL 3
REMARK VINA RESULT:      -8.6      3.280      4.435
REMARK  Name = NuBBE_1025
REMARK  7 active torsions:
REMARK  status: ('A' for Active; 'I' for Inactive)
REMARK    1  A    between atoms: O_1  and  C_2
REMARK    2  A    between atoms: C_6  and  C_7
REMARK    3  A    between atoms: C_11  and  C_12
REMARK    4  A    between atoms: C_19  and  C_20
REMARK    5  A    between atoms: C_23  and  C_24
REMARK    6  A    between atoms: C_30  and  C_31
REMARK    7  A    between atoms: C_30  and  C_32
REMARK                            x       y       z     vdW  Elec       q    Type
REMARK                         _______ _______ _______ _____ _____    ______ ____
ROOT
ATOM      1  C   LIG A   1      -6.088  -1.828 134.461  0.00  0.00    +0.120 C 
ATOM      2  C   LIG A   1      -7.007  -2.949 134.082  0.00  0.00    +0.032 C 
ATOM      3  C   LIG A   1      -7.230  -3.015 132.593  0.00  0.00    +0.010 C 
ATOM      4  C   LIG A   1      -5.919  -2.927 131.733  0.00  0.00    -0.025 C 
ATOM      5  C   LIG A   1      -5.310  -4.361 131.852  0.00  0.00    +0.012 C 
ATOM      6  C   LIG A   1      -5.038  -1.642 132.238  0.00  0.00    +0.003 C 
ATOM      7  C   LIG A   1      -3.965  -1.229 131.209  0.00  0.00    +0.005 C 
ATOM      8  C   LIG A   1      -4.633  -0.934 129.834  0.00  0.00    +0.008 C 
ATOM      9  C   LIG A   1      -5.346  -2.174 129.200  0.00  0.00    -0.023 C 
ATOM     10  C   LIG A   1      -4.215  -3.176 128.847  0.00  0.00    +0.012 C 
ATOM     11  C   LIG A   1      -6.384  -2.700 130.264  0.00  0.00    +0.002 C 
ATOM     12  C   LIG A   1      -7.191  -3.909 129.760  0.00  0.00    +0.005 C 
ATOM     13  C   LIG A   1      -8.047  -3.490 128.614  0.00  0.00    +0.009 C 
ATOM     14  C   LIG A   1      -7.142  -3.050 127.481  0.00  0.00    +0.022 C 
ATOM     15  C   LIG A   1      -6.185  -1.834 127.840  0.00  0.00    -0.020 C 
ATOM     16  C   LIG A   1      -7.007  -0.521 128.013  0.00  0.00    +0.012 C 
ATOM     17  C   LIG A   1      -5.262  -1.626 126.592  0.00  0.00    +0.008 C 
ATOM     18  C   LIG A   1      -6.015  -1.407 125.269  0.00  0.00    +0.011 C 
ATOM     19  C   LIG A   1      -7.213  -2.356 125.036  0.00  0.00    -0.011 C 
ATOM     20  C   LIG A   1      -6.742  -3.651 124.342  0.00  0.00    +0.016 C 
ATOM     21  C   LIG A   1      -7.928  -2.785 126.274  0.00  0.00    -0.064 C 
ATOM     22  C   LIG A   1      -9.285  -2.912 126.061  0.00  0.00    -0.027 C 
ATOM     23  C   LIG A   1      -9.639  -2.406 124.709  0.00  0.00    +0.028 C 
ATOM     24  C   LIG A   1      -8.380  -1.606 124.345  0.00  0.00    +0.015 C 
ATOM     25  C   LIG A   1      -4.656  -1.824 133.774  0.00  0.00    -0.006 C 
ATOM     26  C   LIG A   1      -3.614  -2.982 133.772  0.00  0.00    +0.014 C 
ATOM     27  C   LIG A   1      -3.944  -0.913 134.821  0.00  0.00    +0.014 C 
ENDROOT
BRANCH   1  28
ATOM     28  O   LIG A   1      -6.762  -0.564 134.187  0.00  0.00    -0.391 OA
ATOM     29  H   LIG A   1      -6.151   0.065 133.760  0.00  0.00    +0.210 HD
ENDBRANCH   1  28
TORSDOF 1
ENDMDL
MODEL 4
REMARK VINA RESULT:      -8.5      5.671      8.117
REMARK  Name = NuBBE_1025
REMARK  7 active torsions:
REMARK  status: ('A' for Active; 'I' for Inactive)
REMARK    1  A    between atoms: O_1  and  C_2
REMARK    2  A    between atoms: C_6  and  C_7
REMARK    3  A    between atoms: C_11  and  C_12
REMARK    4  A    between atoms: C_19  and  C_20
REMARK    5  A    between atoms: C_23  and  C_24
REMARK    6  A    between atoms: C_30  and  C_31
REMARK    7  A    between atoms: C_30  and  C_32
REMARK                            x       y       z     vdW  Elec       q    Type
REMARK                         _______ _______ _______ _____ _____    ______ ____
ROOT
ATOM      1  C   LIG A   1      -5.477   4.243 134.542  0.00  0.00    +0.120 C 
ATOM      2  C   LIG A   1      -6.799   4.357 135.238  0.00  0.00    +0.032 C 
ATOM      3  C   LIG A   1      -7.862   4.935 134.339  0.00  0.00    +0.010 C 
ATOM      4  C   LIG A   1      -7.931   4.285 132.911  0.00  0.00    -0.025 C 
ATOM      5  C   LIG A   1      -8.674   2.934 133.163  0.00  0.00    +0.012 C 
ATOM      6  C   LIG A   1      -6.425   4.260 132.266  0.00  0.00    +0.003 C 
ATOM      7  C   LIG A   1      -6.448   4.033 130.739  0.00  0.00    +0.005 C 
ATOM      8  C   LIG A   1      -7.324   5.122 130.054  0.00  0.00    +0.008 C 
ATOM      9  C   LIG A   1      -8.826   5.090 130.490  0.00  0.00    -0.023 C 
ATOM     10  C   LIG A   1      -9.399   3.759 129.934  0.00  0.00    +0.012 C 
ATOM     11  C   LIG A   1      -8.850   5.212 132.062  0.00  0.00    +0.002 C 
ATOM     12  C   LIG A   1     -10.277   5.228 132.635  0.00  0.00    +0.005 C 
ATOM     13  C   LIG A   1     -10.980   6.461 132.178  0.00  0.00    +0.009 C 
ATOM     14  C   LIG A   1     -11.103   6.406 130.668  0.00  0.00    +0.022 C 
ATOM     15  C   LIG A   1      -9.715   6.327 129.900  0.00  0.00    -0.020 C 
ATOM     16  C   LIG A   1      -8.939   7.673 130.028  0.00  0.00    +0.012 C 
ATOM     17  C   LIG A   1     -10.068   6.154 128.384  0.00  0.00    +0.008 C 
ATOM     18  C   LIG A   1     -10.991   7.243 127.814  0.00  0.00    +0.011 C 
ATOM     19  C   LIG A   1     -12.188   7.623 128.718  0.00  0.00    -0.011 C 
ATOM     20  C   LIG A   1     -13.392   6.704 128.423  0.00  0.00    +0.016 C 
ATOM     21  C   LIG A   1     -11.931   7.513 130.184  0.00  0.00    -0.064 C 
ATOM     22  C   LIG A   1     -12.585   8.499 130.891  0.00  0.00    -0.027 C 
ATOM     23  C   LIG A   1     -13.198   9.478 129.956  0.00  0.00    +0.028 C 
ATOM     24  C   LIG A   1     -12.466   9.145 128.647  0.00  0.00    +0.015 C 
ATOM     25  C   LIG A   1      -5.458   3.400 133.196  0.00  0.00    -0.006 C 
ATOM     26  C   LIG A   1      -5.946   1.934 133.000  0.00  0.00    +0.014 C 
ATOM     27  C   LIG A   1      -3.925   3.108 133.175  0.00  0.00    +0.014 C 
ENDROOT
BRANCH   1  28
ATOM     28  O   LIG A   1      -4.973   5.587 134.282  0.00  0.00    -0.391 OA
ATOM     29  H   LIG A   1      -4.409   5.593 133.487  0.00  0.00    +0.210 HD
ENDBRANCH   1  28
TORSDOF 1
ENDMDL
MODEL 5
REMARK VINA RESULT:      -8.4      3.312      4.859
REMARK  Name = NuBBE_1025
REMARK  7 active torsions:
REMARK  status: ('A' for Active; 'I' for Inactive)
REMARK    1  A    between atoms: O_1  and  C_2
REMARK    2  A    between atoms: C_6  and  C_7
REMARK    3  A    between atoms: C_11  and  C_12
REMARK    4  A    between atoms: C_19  and  C_20
REMARK    5  A    between atoms: C_23  and  C_24
REMARK    6  A    between atoms: C_30  and  C_31
REMARK    7  A    between atoms: C_30  and  C_32
REMARK                            x       y       z     vdW  Elec       q    Type
REMARK                         _______ _______ _______ _____ _____    ______ ____
ROOT
ATOM      1  C   LIG A   1      -8.977   4.833 133.786  0.00  0.00    +0.120 C 
ATOM      2  C   LIG A   1      -7.784   4.312 134.528  0.00  0.00    +0.032 C 
ATOM      3  C   LIG A   1      -7.259   3.034 133.925  0.00  0.00    +0.010 C 
ATOM      4  C   LIG A   1      -7.091   3.072 132.364  0.00  0.00    -0.025 C 
ATOM      5  C   LIG A   1      -5.770   3.882 132.161  0.00  0.00    +0.012 C 
ATOM      6  C   LIG A   1      -8.479   3.627 131.694  0.00  0.00    +0.003 C 
ATOM      7  C   LIG A   1      -8.565   3.313 130.185  0.00  0.00    +0.005 C 
ATOM      8  C   LIG A   1      -8.413   1.781 129.952  0.00  0.00    +0.008 C 
ATOM      9  C   LIG A   1      -7.032   1.208 130.407  0.00  0.00    -0.023 C 
ATOM     10  C   LIG A   1      -5.981   1.827 129.447  0.00  0.00    +0.012 C 
ATOM     11  C   LIG A   1      -6.849   1.598 131.924  0.00  0.00    +0.002 C 
ATOM     12  C   LIG A   1      -5.535   1.066 132.520  0.00  0.00    +0.005 C 
ATOM     13  C   LIG A   1      -5.570  -0.425 132.545  0.00  0.00    +0.009 C 
ATOM     14  C   LIG A   1      -5.648  -0.922 131.115  0.00  0.00    +0.022 C 
ATOM     15  C   LIG A   1      -6.925  -0.420 130.316  0.00  0.00    -0.020 C 
ATOM     16  C   LIG A   1      -8.220  -1.088 130.872  0.00  0.00    +0.012 C 
ATOM     17  C   LIG A   1      -6.748  -0.937 128.848  0.00  0.00    +0.008 C 
ATOM     18  C   LIG A   1      -6.540  -2.456 128.725  0.00  0.00    +0.011 C 
ATOM     19  C   LIG A   1      -5.552  -3.063 129.748  0.00  0.00    -0.011 C 
ATOM     20  C   LIG A   1      -4.111  -3.005 129.200  0.00  0.00    +0.016 C 
ATOM     21  C   LIG A   1      -5.520  -2.380 131.075  0.00  0.00    -0.064 C 
ATOM     22  C   LIG A   1      -5.318  -3.276 132.105  0.00  0.00    -0.027 C 
ATOM     23  C   LIG A   1      -5.379  -4.668 131.589  0.00  0.00    +0.028 C 
ATOM     24  C   LIG A   1      -6.041  -4.456 130.220  0.00  0.00    +0.015 C 
ATOM     25  C   LIG A   1      -8.783   5.095 132.232  0.00  0.00    -0.006 C 
ATOM     26  C   LIG A   1      -7.693   5.981 131.559  0.00  0.00    +0.014 C 
ATOM     27  C   LIG A   1      -9.981   6.079 132.054  0.00  0.00    +0.014 C 
ENDROOT
BRANCH   1  28
ATOM     28  O   LIG A   1     -10.088   3.909 133.989  0.00  0.00    -0.391 OA
ATOM     29  H   LIG A   1     -10.384   3.538 133.137  0.00  0.00    +0.210 HD
ENDBRANCH   1  28
TORSDOF 1
ENDMDL
MODEL 6
REMARK VINA RESULT:      -8.4      3.509      7.328
REMARK  Name = NuBBE_1025
REMARK  7 active torsions:
REMARK  status: ('A' for Active; 'I' for Inactive)
REMARK    1  A    between atoms: O_1  and  C_2
REMARK    2  A    between atoms: C_6  and  C_7
REMARK    3  A    between atoms: C_11  and  C_12
REMARK    4  A    between atoms: C_19  and  C_20
REMARK    5  A    between atoms: C_23  and  C_24
REMARK    6  A    between atoms: C_30  and  C_31
REMARK    7  A    between atoms: C_30  and  C_32
REMARK                            x       y       z     vdW  Elec       q    Type
REMARK                         _______ _______ _______ _____ _____    ______ ____
ROOT
ATOM      1  C   LIG A   1      -7.260  -2.052 123.258  0.00  0.00    +0.120 C 
ATOM      2  C   LIG A   1      -8.095  -3.112 123.909  0.00  0.00    +0.032 C 
ATOM      3  C   LIG A   1      -7.754  -3.284 125.367  0.00  0.00    +0.010 C 
ATOM      4  C   LIG A   1      -7.659  -1.941 126.175  0.00  0.00    -0.025 C 
ATOM      5  C   LIG A   1      -9.155  -1.559 126.420  0.00  0.00    +0.012 C 
ATOM      6  C   LIG A   1      -6.692  -0.898 125.362  0.00  0.00    +0.003 C 
ATOM      7  C   LIG A   1      -6.209   0.266 126.253  0.00  0.00    +0.005 C 
ATOM      8  C   LIG A   1      -5.482  -0.295 127.510  0.00  0.00    +0.008 C 
ATOM      9  C   LIG A   1      -6.399  -1.160 128.436  0.00  0.00    -0.023 C 
ATOM     10  C   LIG A   1      -7.445  -0.178 129.028  0.00  0.00    +0.012 C 
ATOM     11  C   LIG A   1      -7.005  -2.307 127.540  0.00  0.00    +0.002 C 
ATOM     12  C   LIG A   1      -7.911  -3.265 128.333  0.00  0.00    +0.005 C 
ATOM     13  C   LIG A   1      -7.093  -4.002 129.338  0.00  0.00    +0.009 C 
ATOM     14  C   LIG A   1      -6.531  -2.996 130.323  0.00  0.00    +0.022 C 
ATOM     15  C   LIG A   1      -5.606  -1.883 129.668  0.00  0.00    -0.020 C 
ATOM     16  C   LIG A   1      -4.266  -2.505 129.170  0.00  0.00    +0.012 C 
ATOM     17  C   LIG A   1      -5.240  -0.890 130.822  0.00  0.00    +0.008 C 
ATOM     18  C   LIG A   1      -4.585  -1.548 132.048  0.00  0.00    +0.011 C 
ATOM     19  C   LIG A   1      -5.249  -2.865 132.514  0.00  0.00    -0.011 C 
ATOM     20  C   LIG A   1      -6.388  -2.565 133.511  0.00  0.00    +0.016 C 
ATOM     21  C   LIG A   1      -5.855  -3.685 131.424  0.00  0.00    -0.064 C 
ATOM     22  C   LIG A   1      -5.713  -5.036 131.664  0.00  0.00    -0.027 C 
ATOM     23  C   LIG A   1      -4.838  -5.256 132.845  0.00  0.00    +0.028 C 
ATOM     24  C   LIG A   1      -4.179  -3.877 132.995  0.00  0.00    +0.015 C 
ATOM     25  C   LIG A   1      -7.308  -0.609 123.921  0.00  0.00    -0.006 C 
ATOM     26  C   LIG A   1      -8.576   0.246 124.213  0.00  0.00    +0.014 C 
ATOM     27  C   LIG A   1      -6.807   0.189 122.677  0.00  0.00    +0.014 C 
ENDROOT
BRANCH   1  28
ATOM     28  O   LIG A   1      -5.879  -2.518 123.206  0.00  0.00    -0.391 OA
ATOM     29  H   LIG A   1      -5.418  -2.137 122.436  0.00  0.00    +0.210 HD
ENDBRANCH   1  28
TORSDOF 1
ENDMDL
MODEL 7
REMARK VINA RESULT:      -8.4      3.295      8.304
REMARK  Name = NuBBE_1025
REMARK  7 active torsions:
REMARK  status: ('A' for Active; 'I' for Inactive)
REMARK    1  A    between atoms: O_1  and  C_2
REMARK    2  A    between atoms: C_6  and  C_7
REMARK    3  A    between atoms: C_11  and  C_12
REMARK    4  A    between atoms: C_19  and  C_20
REMARK    5  A    between atoms: C_23  and  C_24
REMARK    6  A    between atoms: C_30  and  C_31
REMARK    7  A    between atoms: C_30  and  C_32
REMARK                            x       y       z     vdW  Elec       q    Type
REMARK                         _______ _______ _______ _____ _____    ______ ____
ROOT
ATOM      1  C   LIG A   1      -7.633   2.967 124.158  0.00  0.00    +0.120 C 
ATOM      2  C   LIG A   1      -6.165   3.149 123.917  0.00  0.00    +0.032 C 
ATOM      3  C   LIG A   1      -5.427   3.509 125.181  0.00  0.00    +0.010 C 
ATOM      4  C   LIG A   1      -5.778   2.609 126.419  0.00  0.00    -0.025 C 
ATOM      5  C   LIG A   1      -4.975   1.295 126.151  0.00  0.00    +0.012 C 
ATOM      6  C   LIG A   1      -7.407   2.531 126.574  0.00  0.00    +0.003 C 
ATOM      7  C   LIG A   1      -7.837   2.030 127.969  0.00  0.00    +0.005 C 
ATOM      8  C   LIG A   1      -7.220   2.939 129.073  0.00  0.00    +0.008 C 
ATOM      9  C   LIG A   1      -5.656   2.923 129.101  0.00  0.00    -0.023 C 
ATOM     10  C   LIG A   1      -5.257   1.490 129.545  0.00  0.00    +0.012 C 
ATOM     11  C   LIG A   1      -5.166   3.326 127.658  0.00  0.00    +0.002 C 
ATOM     12  C   LIG A   1      -3.633   3.386 127.545  0.00  0.00    +0.005 C 
ATOM     13  C   LIG A   1      -3.115   4.484 128.410  0.00  0.00    +0.009 C 
ATOM     14  C   LIG A   1      -3.447   4.151 129.851  0.00  0.00    +0.022 C 
ATOM     15  C   LIG A   1      -5.000   3.994 130.146  0.00  0.00    -0.020 C 
ATOM     16  C   LIG A   1      -5.721   5.373 130.047  0.00  0.00    +0.012 C 
ATOM     17  C   LIG A   1      -5.112   3.535 131.639  0.00  0.00    +0.008 C 
ATOM     18  C   LIG A   1      -4.416   4.462 132.648  0.00  0.00    +0.011 C 
ATOM     19  C   LIG A   1      -3.009   4.948 132.225  0.00  0.00    -0.011 C 
ATOM     20  C   LIG A   1      -1.935   3.940 132.686  0.00  0.00    +0.016 C 
ATOM     21  C   LIG A   1      -2.817   5.116 130.755  0.00  0.00    -0.064 C 
ATOM     22  C   LIG A   1      -1.995   6.186 130.467  0.00  0.00    -0.027 C 
ATOM     23  C   LIG A   1      -1.702   6.952 131.707  0.00  0.00    +0.028 C 
ATOM     24  C   LIG A   1      -2.786   6.419 132.656  0.00  0.00    +0.015 C 
ATOM     25  C   LIG A   1      -8.041   1.896 125.258  0.00  0.00    -0.006 C 
ATOM     26  C   LIG A   1      -7.613   0.399 125.313  0.00  0.00    +0.014 C 
ATOM     27  C   LIG A   1      -9.506   1.670 124.770  0.00  0.00    +0.014 C 
ENDROOT
BRANCH   1  28
ATOM     28  O   LIG A   1      -8.210   4.261 124.502  0.00  0.00    -0.391 OA
ATOM     29  H   LIG A   1      -8.104   4.890 123.765  0.00  0.00    +0.210 HD
ENDBRANCH   1  28
TORSDOF 1
ENDMDL
MODEL 8
REMARK VINA RESULT:      -8.3      3.964      7.808
REMARK  Name = NuBBE_1025
REMARK  7 active torsions:
REMARK  status: ('A' for Active; 'I' for Inactive)
REMARK    1  A    between atoms: O_1  and  C_2
REMARK    2  A    between atoms: C_6  and  C_7
REMARK    3  A    between atoms: C_11  and  C_12
REMARK    4  A    between atoms: C_19  and  C_20
REMARK    5  A    between atoms: C_23  and  C_24
REMARK    6  A    between atoms: C_30  and  C_31
REMARK    7  A    between atoms: C_30  and  C_32
REMARK                            x       y       z     vdW  Elec       q    Type
REMARK                         _______ _______ _______ _____ _____    ______ ____
ROOT
ATOM      1  C   LIG A   1      -8.306  -2.968 124.755  0.00  0.00    +0.120 C 
ATOM      2  C   LIG A   1      -9.379  -2.688 125.762  0.00  0.00    +0.032 C 
ATOM      3  C   LIG A   1      -8.864  -2.772 127.176  0.00  0.00    +0.010 C 
ATOM      4  C   LIG A   1      -7.519  -2.000 127.425  0.00  0.00    -0.025 C 
ATOM      5  C   LIG A   1      -7.970  -0.508 127.524  0.00  0.00    +0.012 C 
ATOM      6  C   LIG A   1      -6.437  -2.432 126.273  0.00  0.00    +0.003 C 
ATOM      7  C   LIG A   1      -4.990  -2.061 126.662  0.00  0.00    +0.005 C 
ATOM      8  C   LIG A   1      -4.627  -2.708 128.031  0.00  0.00    +0.008 C 
ATOM      9  C   LIG A   1      -5.508  -2.204 129.220  0.00  0.00    -0.023 C 
ATOM     10  C   LIG A   1      -5.139  -0.708 129.415  0.00  0.00    +0.012 C 
ATOM     11  C   LIG A   1      -7.011  -2.465 128.822  0.00  0.00    +0.002 C 
ATOM     12  C   LIG A   1      -7.999  -2.045 129.923  0.00  0.00    +0.005 C 
ATOM     13  C   LIG A   1      -7.801  -2.908 131.122  0.00  0.00    +0.009 C 
ATOM     14  C   LIG A   1      -6.404  -2.664 131.657  0.00  0.00    +0.022 C 
ATOM     15  C   LIG A   1      -5.241  -2.994 130.626  0.00  0.00    -0.020 C 
ATOM     16  C   LIG A   1      -5.140  -4.530 130.383  0.00  0.00    +0.012 C 
ATOM     17  C   LIG A   1      -3.908  -2.561 131.324  0.00  0.00    +0.008 C 
ATOM     18  C   LIG A   1      -3.668  -3.203 132.700  0.00  0.00    +0.011 C 
ATOM     19  C   LIG A   1      -4.904  -3.233 133.629  0.00  0.00    -0.011 C 
ATOM     20  C   LIG A   1      -4.986  -1.931 134.454  0.00  0.00    +0.016 C 
ATOM     21  C   LIG A   1      -6.216  -3.365 132.929  0.00  0.00    -0.064 C 
ATOM     22  C   LIG A   1      -7.106  -4.130 133.653  0.00  0.00    -0.027 C 
ATOM     23  C   LIG A   1      -6.421  -4.740 134.823  0.00  0.00    +0.028 C 
ATOM     24  C   LIG A   1      -4.945  -4.552 134.442  0.00  0.00    +0.015 C 
ATOM     25  C   LIG A   1      -7.008  -2.055 124.834  0.00  0.00    -0.006 C 
ATOM     26  C   LIG A   1      -6.953  -0.499 124.799  0.00  0.00    +0.014 C 
ATOM     27  C   LIG A   1      -6.508  -2.308 123.378  0.00  0.00    +0.014 C 
ENDROOT
BRANCH   1  28
ATOM     28  O   LIG A   1      -7.921  -4.370 124.868  0.00  0.00    -0.391 OA
ATOM     29  H   LIG A   1      -7.996  -4.673 125.791  0.00  0.00    +0.210 HD
ENDBRANCH   1  28
TORSDOF 1
ENDMDL
MODEL 9
REMARK VINA RESULT:      -8.3      1.873      3.379
REMARK  Name = NuBBE_1025
REMARK  7 active torsions:
REMARK  status: ('A' for Active; 'I' for Inactive)
REMARK    1  A    between atoms: O_1  and  C_2
REMARK    2  A    between atoms: C_6  and  C_7
REMARK    3  A    between atoms: C_11  and  C_12
REMARK    4  A    between atoms: C_19  and  C_20
REMARK    5  A    between atoms: C_23  and  C_24
REMARK    6  A    between atoms: C_30  and  C_31
REMARK    7  A    between atoms: C_30  and  C_32
REMARK                            x       y       z     vdW  Elec       q    Type
REMARK                         _______ _______ _______ _____ _____    ______ ____
ROOT
ATOM      1  C   LIG A   1      -4.663   3.350 131.308  0.00  0.00    +0.120 C 
ATOM      2  C   LIG A   1      -3.944   3.606 130.019  0.00  0.00    +0.032 C 
ATOM      3  C   LIG A   1      -4.328   2.614 128.952  0.00  0.00    +0.010 C 
ATOM      4  C   LIG A   1      -5.875   2.385 128.801  0.00  0.00    -0.025 C 
ATOM      5  C   LIG A   1      -6.351   3.644 128.007  0.00  0.00    +0.012 C 
ATOM      6  C   LIG A   1      -6.513   2.085 130.280  0.00  0.00    +0.003 C 
ATOM      7  C   LIG A   1      -7.917   1.448 130.191  0.00  0.00    +0.005 C 
ATOM      8  C   LIG A   1      -7.856   0.146 129.340  0.00  0.00    +0.008 C 
ATOM      9  C   LIG A   1      -7.423   0.381 127.856  0.00  0.00    -0.023 C 
ATOM     10  C   LIG A   1      -8.577   1.188 127.203  0.00  0.00    +0.012 C 
ATOM     11  C   LIG A   1      -6.036   1.130 127.895  0.00  0.00    +0.002 C 
ATOM     12  C   LIG A   1      -5.467   1.400 126.492  0.00  0.00    +0.005 C 
ATOM     13  C   LIG A   1      -5.146   0.103 125.829  0.00  0.00    +0.009 C 
ATOM     14  C   LIG A   1      -6.437  -0.670 125.649  0.00  0.00    +0.022 C 
ATOM     15  C   LIG A   1      -7.201  -0.995 127.003  0.00  0.00    -0.020 C 
ATOM     16  C   LIG A   1      -6.410  -2.042 127.844  0.00  0.00    +0.012 C 
ATOM     17  C   LIG A   1      -8.548  -1.677 126.587  0.00  0.00    +0.008 C 
ATOM     18  C   LIG A   1      -8.388  -2.918 125.694  0.00  0.00    +0.011 C 
ATOM     19  C   LIG A   1      -7.358  -2.770 124.550  0.00  0.00    -0.011 C 
ATOM     20  C   LIG A   1      -8.035  -2.179 123.295  0.00  0.00    +0.016 C 
ATOM     21  C   LIG A   1      -6.200  -1.879 124.856  0.00  0.00    -0.064 C 
ATOM     22  C   LIG A   1      -5.037  -2.336 124.273  0.00  0.00    -0.027 C 
ATOM     23  C   LIG A   1      -5.260  -3.677 123.672  0.00  0.00    +0.028 C 
ATOM     24  C   LIG A   1      -6.579  -4.093 124.339  0.00  0.00    +0.015 C 
ATOM     25  C   LIG A   1      -6.250   3.329 131.240  0.00  0.00    -0.006 C 
ATOM     26  C   LIG A   1      -7.179   4.446 130.679  0.00  0.00    +0.014 C 
ATOM     27  C   LIG A   1      -6.510   3.591 132.756  0.00  0.00    +0.014 C 
ENDROOT
BRANCH   1  28
ATOM     28  O   LIG A   1      -4.184   2.089 131.863  0.00  0.00    -0.391 OA
ATOM     29  H   LIG A   1      -4.000   1.449 131.151  0.00  0.00    +0.210 HD
ENDBRANCH   1  28
TORSDOF 1
ENDMDL
