MODEL 1
REMARK VINA RESULT:      -8.8      0.000      0.000
REMARK  Name = NuBBE_605
REMARK  15 active torsions:
REMARK  status: ('A' for Active; 'I' for Inactive)
REMARK    1  A    between atoms: C_2  and  C_3
REMARK    2  A    between atoms: C_2  and  C_44
REMARK    3  A    between atoms: C_7  and  C_43
REMARK    4  A    between atoms: C_10  and  C_42
REMARK    5  A    between atoms: C_11  and  C_41
REMARK    6  A    between atoms: C_16  and  C_17
REMARK    7  A    between atoms: C_16  and  C_40
REMARK    8  A    between atoms: C_18  and  O_32
REMARK    9  A    between atoms: C_22  and  C_31
REMARK   10  A    between atoms: O_32  and  C_33
REMARK   11  A    between atoms: C_33  and  C_34
REMARK   12  A    between atoms: C_34  and  C_35
REMARK   13  A    between atoms: C_35  and  C_36
REMARK   14  A    between atoms: C_36  and  C_37
REMARK   15  A    between atoms: C_37  and  C_38
REMARK                            x       y       z     vdW  Elec       q    Type
REMARK                         _______ _______ _______ _____ _____    ______ ____
ROOT
ATOM      1  C   LIG A   1      -7.623  -1.909 124.588  0.00  0.00    +0.018 C 
ATOM      2  C   LIG A   1      -6.523  -2.714 123.851  0.00  0.00    +0.009 C 
ATOM      3  C   LIG A   1      -5.499  -3.115 124.920  0.00  0.00    +0.007 C 
ATOM      4  C   LIG A   1      -5.550  -1.959 125.926  0.00  0.00    -0.028 C 
ATOM      5  C   LIG A   1      -5.075  -2.324 127.339  0.00  0.00    +0.007 C 
ATOM      6  C   LIG A   1      -5.406  -1.219 128.365  0.00  0.00    +0.008 C 
ATOM      7  C   LIG A   1      -6.872  -0.615 128.311  0.00  0.00    -0.023 C 
ATOM      8  C   LIG A   1      -6.968   0.840 129.015  0.00  0.00    -0.023 C 
ATOM      9  C   LIG A   1      -6.598   0.740 130.512  0.00  0.00    +0.008 C 
ATOM     10  C   LIG A   1      -6.753   2.051 131.272  0.00  0.00    +0.005 C 
ATOM     11  C   LIG A   1      -8.173   2.650 131.183  0.00  0.00    +0.004 C 
ATOM     12  C   LIG A   1      -8.360   3.926 132.097  0.00  0.00    +0.005 C 
ATOM     13  C   LIG A   1      -8.510   3.417 133.566  0.00  0.00    +0.015 C 
ATOM     14  C   LIG A   1      -9.668   4.759 131.787  0.00  0.00    +0.182 C 
ATOM     15  C   LIG A   1     -10.565   4.326 130.614  0.00  0.00    +0.046 C 
ATOM     16  C   LIG A   1     -10.231   3.020 129.899  0.00  0.00    +0.011 C 
ATOM     17  C   LIG A   1      -8.705   2.784 129.714  0.00  0.00    -0.025 C 
ATOM     18  C   LIG A   1      -8.454   1.404 128.935  0.00  0.00    +0.002 C 
ATOM     19  C   LIG A   1      -8.997   1.377 127.483  0.00  0.00    +0.005 C 
ATOM     20  C   LIG A   1      -8.829   0.026 126.772  0.00  0.00    +0.005 C 
ATOM     21  C   LIG A   1      -7.375  -0.454 126.822  0.00  0.00    -0.000 C 
ATOM     22  C   LIG A   1      -7.073  -1.729 126.021  0.00  0.00    +0.006 C 
ATOM     23  C   LIG A   1      -8.157   4.003 128.935  0.00  0.00    +0.012 C 
ATOM     24  C   LIG A   1      -7.074   4.796 132.088  0.00  0.00    +0.015 C 
ATOM     25  C   LIG A   1      -5.965   1.814 128.320  0.00  0.00    +0.012 C 
ATOM     26  C   LIG A   1      -7.758  -1.663 129.068  0.00  0.00    +0.012 C 
ATOM     27  C   LIG A   1      -4.730  -0.772 125.368  0.00  0.00    +0.011 C 
ENDROOT
BRANCH   1  29
ATOM     28  C   LIG A   1      -9.639  -2.863 123.334  0.00  0.00    +0.007 C 
ATOM     29  C   LIG A   1      -8.976  -2.618 124.480  0.00  0.00    -0.076 C 
ATOM     30  C   LIG A   1      -9.598  -3.036 125.787  0.00  0.00    +0.038 C 
ENDBRANCH   1  29
BRANCH  14  31
ATOM     31  O   LIG A   1      -9.365   6.169 131.541  0.00  0.00    -0.461 OA
BRANCH  31  32
ATOM     32  C   LIG A   1     -10.270   6.931 130.867  0.00  0.00    +0.307 C 
ATOM     33  O   LIG A   1     -11.442   7.093 131.182  0.00  0.00    -0.251 OA
BRANCH  32  34
ATOM     34  C   LIG A   1      -9.611   7.609 129.688  0.00  0.00    +0.120 C 
BRANCH  34  35
ATOM     35  C   LIG A   1     -10.602   8.135 128.655  0.00  0.00    +0.011 C 
BRANCH  35  36
ATOM     36  C   LIG A   1     -10.812   7.202 127.456  0.00  0.00    +0.000 C 
BRANCH  36  37
ATOM     37  C   LIG A   1     -12.273   7.218 127.002  0.00  0.00    -0.003 C 
ATOM     38  C   LIG A   1     -13.236   6.887 128.131  0.00  0.00    +0.004 C 
ENDBRANCH  36  37
ENDBRANCH  35  36
ENDBRANCH  34  35
ENDBRANCH  32  34
ENDBRANCH  31  32
ENDBRANCH  14  31
TORSDOF 7
ENDMDL
MODEL 2
REMARK VINA RESULT:      -8.8      2.840      4.642
REMARK  Name = NuBBE_605
REMARK  15 active torsions:
REMARK  status: ('A' for Active; 'I' for Inactive)
REMARK    1  A    between atoms: C_2  and  C_3
REMARK    2  A    between atoms: C_2  and  C_44
REMARK    3  A    between atoms: C_7  and  C_43
REMARK    4  A    between atoms: C_10  and  C_42
REMARK    5  A    between atoms: C_11  and  C_41
REMARK    6  A    between atoms: C_16  and  C_17
REMARK    7  A    between atoms: C_16  and  C_40
REMARK    8  A    between atoms: C_18  and  O_32
REMARK    9  A    between atoms: C_22  and  C_31
REMARK   10  A    between atoms: O_32  and  C_33
REMARK   11  A    between atoms: C_33  and  C_34
REMARK   12  A    between atoms: C_34  and  C_35
REMARK   13  A    between atoms: C_35  and  C_36
REMARK   14  A    between atoms: C_36  and  C_37
REMARK   15  A    between atoms: C_37  and  C_38
REMARK                            x       y       z     vdW  Elec       q    Type
REMARK                         _______ _______ _______ _____ _____    ______ ____
ROOT
ATOM      1  C   LIG A   1      -6.110  -3.837 132.229  0.00  0.00    +0.018 C 
ATOM      2  C   LIG A   1      -5.310  -4.950 131.506  0.00  0.00    +0.009 C 
ATOM      3  C   LIG A   1      -4.193  -4.239 130.732  0.00  0.00    +0.007 C 
ATOM      4  C   LIG A   1      -4.813  -2.888 130.356  0.00  0.00    -0.028 C 
ATOM      5  C   LIG A   1      -3.793  -1.775 130.082  0.00  0.00    +0.007 C 
ATOM      6  C   LIG A   1      -4.462  -0.387 129.985  0.00  0.00    +0.008 C 
ATOM      7  C   LIG A   1      -5.524  -0.030 131.108  0.00  0.00    -0.023 C 
ATOM      8  C   LIG A   1      -6.530   1.156 130.654  0.00  0.00    -0.023 C 
ATOM      9  C   LIG A   1      -5.741   2.456 130.378  0.00  0.00    +0.008 C 
ATOM     10  C   LIG A   1      -6.624   3.648 130.034  0.00  0.00    +0.005 C 
ATOM     11  C   LIG A   1      -7.678   3.966 131.116  0.00  0.00    +0.004 C 
ATOM     12  C   LIG A   1      -8.484   5.293 130.819  0.00  0.00    +0.005 C 
ATOM     13  C   LIG A   1      -7.544   6.488 131.178  0.00  0.00    +0.015 C 
ATOM     14  C   LIG A   1      -9.782   5.475 131.704  0.00  0.00    +0.182 C 
ATOM     15  C   LIG A   1     -10.182   4.353 132.677  0.00  0.00    +0.046 C 
ATOM     16  C   LIG A   1      -9.221   3.179 132.855  0.00  0.00    +0.011 C 
ATOM     17  C   LIG A   1      -8.543   2.725 131.531  0.00  0.00    -0.025 C 
ATOM     18  C   LIG A   1      -7.574   1.478 131.811  0.00  0.00    +0.002 C 
ATOM     19  C   LIG A   1      -8.300   0.197 132.297  0.00  0.00    +0.005 C 
ATOM     20  C   LIG A   1      -7.359  -0.968 132.645  0.00  0.00    +0.005 C 
ATOM     21  C   LIG A   1      -6.409  -1.283 131.484  0.00  0.00    -0.000 C 
ATOM     22  C   LIG A   1      -5.519  -2.520 131.678  0.00  0.00    +0.006 C 
ATOM     23  C   LIG A   1      -9.682   2.371 130.545  0.00  0.00    +0.012 C 
ATOM     24  C   LIG A   1      -8.767   5.429 129.298  0.00  0.00    +0.015 C 
ATOM     25  C   LIG A   1      -7.264   0.732 129.343  0.00  0.00    +0.012 C 
ATOM     26  C   LIG A   1      -4.660   0.410 132.340  0.00  0.00    +0.012 C 
ATOM     27  C   LIG A   1      -5.742  -3.084 129.135  0.00  0.00    +0.011 C 
ENDROOT
BRANCH   1  29
ATOM     28  C   LIG A   1      -6.838  -4.807 134.482  0.00  0.00    +0.007 C 
ATOM     29  C   LIG A   1      -6.033  -4.015 133.749  0.00  0.00    -0.076 C 
ATOM     30  C   LIG A   1      -4.976  -3.200 134.446  0.00  0.00    +0.038 C 
ENDBRANCH   1  29
BRANCH  14  31
ATOM     31  O   LIG A   1     -10.967   5.714 130.882  0.00  0.00    -0.461 OA
BRANCH  31  32
ATOM     32  C   LIG A   1     -11.717   6.827 131.111  0.00  0.00    +0.307 C 
ATOM     33  O   LIG A   1     -12.422   7.024 132.092  0.00  0.00    -0.251 OA
BRANCH  32  34
ATOM     34  C   LIG A   1     -11.518   7.832 129.999  0.00  0.00    +0.120 C 
BRANCH  34  35
ATOM     35  C   LIG A   1     -12.725   8.734 129.770  0.00  0.00    +0.011 C 
BRANCH  35  36
ATOM     36  C   LIG A   1     -13.238   8.739 128.325  0.00  0.00    +0.000 C 
BRANCH  36  37
ATOM     37  C   LIG A   1     -13.418   7.312 127.805  0.00  0.00    -0.003 C 
ATOM     38  C   LIG A   1     -12.592   7.039 126.557  0.00  0.00    +0.004 C 
ENDBRANCH  36  37
ENDBRANCH  35  36
ENDBRANCH  34  35
ENDBRANCH  32  34
ENDBRANCH  31  32
ENDBRANCH  14  31
TORSDOF 7
ENDMDL
MODEL 3
REMARK VINA RESULT:      -8.6      4.092      9.136
REMARK  Name = NuBBE_605
REMARK  15 active torsions:
REMARK  status: ('A' for Active; 'I' for Inactive)
REMARK    1  A    between atoms: C_2  and  C_3
REMARK    2  A    between atoms: C_2  and  C_44
REMARK    3  A    between atoms: C_7  and  C_43
REMARK    4  A    between atoms: C_10  and  C_42
REMARK    5  A    between atoms: C_11  and  C_41
REMARK    6  A    between atoms: C_16  and  C_17
REMARK    7  A    between atoms: C_16  and  C_40
REMARK    8  A    between atoms: C_18  and  O_32
REMARK    9  A    between atoms: C_22  and  C_31
REMARK   10  A    between atoms: O_32  and  C_33
REMARK   11  A    between atoms: C_33  and  C_34
REMARK   12  A    between atoms: C_34  and  C_35
REMARK   13  A    between atoms: C_35  and  C_36
REMARK   14  A    between atoms: C_36  and  C_37
REMARK   15  A    between atoms: C_37  and  C_38
REMARK                            x       y       z     vdW  Elec       q    Type
REMARK                         _______ _______ _______ _____ _____    ______ ____
ROOT
ATOM      1  C   LIG A   1      -2.473   3.923 132.408  0.00  0.00    +0.018 C 
ATOM      2  C   LIG A   1      -1.679   5.124 132.981  0.00  0.00    +0.009 C 
ATOM      3  C   LIG A   1      -2.397   6.385 132.485  0.00  0.00    +0.007 C 
ATOM      4  C   LIG A   1      -2.963   5.971 131.123  0.00  0.00    -0.028 C 
ATOM      5  C   LIG A   1      -4.166   6.803 130.655  0.00  0.00    +0.007 C 
ATOM      6  C   LIG A   1      -4.863   6.174 129.429  0.00  0.00    +0.008 C 
ATOM      7  C   LIG A   1      -5.140   4.613 129.491  0.00  0.00    -0.023 C 
ATOM      8  C   LIG A   1      -5.364   3.965 128.024  0.00  0.00    -0.023 C 
ATOM      9  C   LIG A   1      -6.599   4.595 127.340  0.00  0.00    +0.008 C 
ATOM     10  C   LIG A   1      -6.936   3.975 125.990  0.00  0.00    +0.005 C 
ATOM     11  C   LIG A   1      -7.168   2.450 126.054  0.00  0.00    +0.004 C 
ATOM     12  C   LIG A   1      -7.664   1.845 124.681  0.00  0.00    +0.005 C 
ATOM     13  C   LIG A   1      -9.175   2.215 124.539  0.00  0.00    +0.015 C 
ATOM     14  C   LIG A   1      -7.591   0.267 124.603  0.00  0.00    +0.182 C 
ATOM     15  C   LIG A   1      -6.986  -0.508 125.786  0.00  0.00    +0.046 C 
ATOM     16  C   LIG A   1      -6.625   0.272 127.048  0.00  0.00    +0.011 C 
ATOM     17  C   LIG A   1      -6.004   1.669 126.758  0.00  0.00    -0.025 C 
ATOM     18  C   LIG A   1      -5.637   2.402 128.138  0.00  0.00    +0.002 C 
ATOM     19  C   LIG A   1      -4.541   1.691 128.971  0.00  0.00    +0.005 C 
ATOM     20  C   LIG A   1      -4.254   2.350 130.330  0.00  0.00    +0.005 C 
ATOM     21  C   LIG A   1      -3.940   3.841 130.170  0.00  0.00    -0.000 C 
ATOM     22  C   LIG A   1      -3.505   4.565 131.453  0.00  0.00    +0.006 C 
ATOM     23  C   LIG A   1      -4.758   1.428 125.875  0.00  0.00    +0.012 C 
ATOM     24  C   LIG A   1      -6.952   2.542 123.490  0.00  0.00    +0.015 C 
ATOM     25  C   LIG A   1      -4.109   4.249 127.140  0.00  0.00    +0.012 C 
ATOM     26  C   LIG A   1      -6.433   4.477 130.366  0.00  0.00    +0.012 C 
ATOM     27  C   LIG A   1      -1.830   6.019 130.071  0.00  0.00    +0.011 C 
ENDROOT
BRANCH   1  29
ATOM     28  C   LIG A   1      -3.702   3.548 134.621  0.00  0.00    +0.007 C 
ATOM     29  C   LIG A   1      -3.056   3.071 133.540  0.00  0.00    -0.076 C 
ATOM     30  C   LIG A   1      -2.845   1.585 133.411  0.00  0.00    +0.038 C 
ENDBRANCH   1  29
BRANCH  14  31
ATOM     31  O   LIG A   1      -6.846  -0.182 123.427  0.00  0.00    -0.461 OA
BRANCH  31  32
ATOM     32  C   LIG A   1      -6.995  -1.466 123.001  0.00  0.00    +0.307 C 
ATOM     33  O   LIG A   1      -6.093  -2.283 122.868  0.00  0.00    -0.251 OA
BRANCH  32  34
ATOM     34  C   LIG A   1      -8.455  -1.774 122.761  0.00  0.00    +0.120 C 
BRANCH  34  35
ATOM     35  C   LIG A   1      -8.907  -3.097 123.369  0.00  0.00    +0.011 C 
BRANCH  35  36
ATOM     36  C   LIG A   1      -9.383  -2.989 124.823  0.00  0.00    +0.000 C 
BRANCH  36  37
ATOM     37  C   LIG A   1      -8.486  -3.808 125.753  0.00  0.00    -0.003 C 
ATOM     38  C   LIG A   1      -8.815  -3.588 127.221  0.00  0.00    +0.004 C 
ENDBRANCH  36  37
ENDBRANCH  35  36
ENDBRANCH  34  35
ENDBRANCH  32  34
ENDBRANCH  31  32
ENDBRANCH  14  31
TORSDOF 7
ENDMDL
MODEL 4
REMARK VINA RESULT:      -8.6      3.716      9.177
REMARK  Name = NuBBE_605
REMARK  15 active torsions:
REMARK  status: ('A' for Active; 'I' for Inactive)
REMARK    1  A    between atoms: C_2  and  C_3
REMARK    2  A    between atoms: C_2  and  C_44
REMARK    3  A    between atoms: C_7  and  C_43
REMARK    4  A    between atoms: C_10  and  C_42
REMARK    5  A    between atoms: C_11  and  C_41
REMARK    6  A    between atoms: C_16  and  C_17
REMARK    7  A    between atoms: C_16  and  C_40
REMARK    8  A    between atoms: C_18  and  O_32
REMARK    9  A    between atoms: C_22  and  C_31
REMARK   10  A    between atoms: O_32  and  C_33
REMARK   11  A    between atoms: C_33  and  C_34
REMARK   12  A    between atoms: C_34  and  C_35
REMARK   13  A    between atoms: C_35  and  C_36
REMARK   14  A    between atoms: C_36  and  C_37
REMARK   15  A    between atoms: C_37  and  C_38
REMARK                            x       y       z     vdW  Elec       q    Type
REMARK                         _______ _______ _______ _____ _____    ______ ____
ROOT
ATOM      1  C   LIG A   1      -6.157   3.708 134.926  0.00  0.00    +0.018 C 
ATOM      2  C   LIG A   1      -5.095   3.924 136.033  0.00  0.00    +0.009 C 
ATOM      3  C   LIG A   1      -3.814   4.368 135.316  0.00  0.00    +0.007 C 
ATOM      4  C   LIG A   1      -3.885   3.649 133.965  0.00  0.00    -0.028 C 
ATOM      5  C   LIG A   1      -3.066   4.312 132.848  0.00  0.00    +0.007 C 
ATOM      6  C   LIG A   1      -3.392   3.717 131.461  0.00  0.00    +0.008 C 
ATOM      7  C   LIG A   1      -4.928   3.525 131.111  0.00  0.00    -0.023 C 
ATOM      8  C   LIG A   1      -5.162   2.447 129.925  0.00  0.00    -0.023 C 
ATOM      9  C   LIG A   1      -4.480   2.922 128.622  0.00  0.00    +0.008 C 
ATOM     10  C   LIG A   1      -4.731   2.009 127.430  0.00  0.00    +0.005 C 
ATOM     11  C   LIG A   1      -6.229   1.799 127.120  0.00  0.00    +0.004 C 
ATOM     12  C   LIG A   1      -6.473   0.975 125.793  0.00  0.00    +0.005 C 
ATOM     13  C   LIG A   1      -6.214   1.947 124.598  0.00  0.00    +0.015 C 
ATOM     14  C   LIG A   1      -7.955   0.452 125.618  0.00  0.00    +0.182 C 
ATOM     15  C   LIG A   1      -8.970   0.702 126.747  0.00  0.00    +0.046 C 
ATOM     16  C   LIG A   1      -8.539   1.580 127.919  0.00  0.00    +0.011 C 
ATOM     17  C   LIG A   1      -7.068   1.344 128.364  0.00  0.00    -0.025 C 
ATOM     18  C   LIG A   1      -6.715   2.289 129.612  0.00  0.00    +0.002 C 
ATOM     19  C   LIG A   1      -7.528   1.989 130.897  0.00  0.00    +0.005 C 
ATOM     20  C   LIG A   1      -7.246   2.951 132.061  0.00  0.00    +0.005 C 
ATOM     21  C   LIG A   1      -5.747   3.031 132.368  0.00  0.00    -0.000 C 
ATOM     22  C   LIG A   1      -5.370   3.861 133.604  0.00  0.00    +0.006 C 
ATOM     23  C   LIG A   1      -6.944  -0.158 128.716  0.00  0.00    +0.012 C 
ATOM     24  C   LIG A   1      -5.414  -0.151 125.649  0.00  0.00    +0.015 C 
ATOM     25  C   LIG A   1      -4.536   1.079 130.343  0.00  0.00    +0.012 C 
ATOM     26  C   LIG A   1      -5.413   4.950 130.677  0.00  0.00    +0.012 C 
ATOM     27  C   LIG A   1      -3.448   2.177 134.156  0.00  0.00    +0.011 C 
ENDROOT
BRANCH   1  29
ATOM     28  C   LIG A   1      -8.549   4.531 134.544  0.00  0.00    +0.007 C 
ATOM     29  C   LIG A   1      -7.336   4.668 135.112  0.00  0.00    -0.076 C 
ATOM     30  C   LIG A   1      -7.068   5.864 135.987  0.00  0.00    +0.038 C 
ENDBRANCH   1  29
BRANCH  14  31
ATOM     31  O   LIG A   1      -7.994  -0.990 125.377  0.00  0.00    -0.461 OA
BRANCH  31  32
ATOM     32  C   LIG A   1      -8.605  -1.456 124.253  0.00  0.00    +0.307 C 
ATOM     33  O   LIG A   1      -9.682  -1.073 123.815  0.00  0.00    -0.251 OA
BRANCH  32  34
ATOM     34  C   LIG A   1      -7.737  -2.490 123.574  0.00  0.00    +0.120 C 
BRANCH  34  35
ATOM     35  C   LIG A   1      -6.672  -1.887 122.662  0.00  0.00    +0.011 C 
BRANCH  35  36
ATOM     36  C   LIG A   1      -5.281  -2.511 122.826  0.00  0.00    +0.000 C 
BRANCH  36  37
ATOM     37  C   LIG A   1      -5.280  -3.555 123.944  0.00  0.00    -0.003 C 
ATOM     38  C   LIG A   1      -4.382  -4.742 123.631  0.00  0.00    +0.004 C 
ENDBRANCH  36  37
ENDBRANCH  35  36
ENDBRANCH  34  35
ENDBRANCH  32  34
ENDBRANCH  31  32
ENDBRANCH  14  31
TORSDOF 7
ENDMDL
MODEL 5
REMARK VINA RESULT:      -8.5      2.892      4.445
REMARK  Name = NuBBE_605
REMARK  15 active torsions:
REMARK  status: ('A' for Active; 'I' for Inactive)
REMARK    1  A    between atoms: C_2  and  C_3
REMARK    2  A    between atoms: C_2  and  C_44
REMARK    3  A    between atoms: C_7  and  C_43
REMARK    4  A    between atoms: C_10  and  C_42
REMARK    5  A    between atoms: C_11  and  C_41
REMARK    6  A    between atoms: C_16  and  C_17
REMARK    7  A    between atoms: C_16  and  C_40
REMARK    8  A    between atoms: C_18  and  O_32
REMARK    9  A    between atoms: C_22  and  C_31
REMARK   10  A    between atoms: O_32  and  C_33
REMARK   11  A    between atoms: C_33  and  C_34
REMARK   12  A    between atoms: C_34  and  C_35
REMARK   13  A    between atoms: C_35  and  C_36
REMARK   14  A    between atoms: C_36  and  C_37
REMARK   15  A    between atoms: C_37  and  C_38
REMARK                            x       y       z     vdW  Elec       q    Type
REMARK                         _______ _______ _______ _____ _____    ______ ____
ROOT
ATOM      1  C   LIG A   1      -9.127  -1.996 125.170  0.00  0.00    +0.018 C 
ATOM      2  C   LIG A   1      -9.658  -2.160 123.723  0.00  0.00    +0.009 C 
ATOM      3  C   LIG A   1      -8.725  -1.331 122.830  0.00  0.00    +0.007 C 
ATOM      4  C   LIG A   1      -8.290  -0.173 123.734  0.00  0.00    -0.028 C 
ATOM      5  C   LIG A   1      -6.964   0.486 123.328  0.00  0.00    +0.007 C 
ATOM      6  C   LIG A   1      -6.438   1.447 124.417  0.00  0.00    +0.008 C 
ATOM      7  C   LIG A   1      -6.466   0.913 125.910  0.00  0.00    -0.023 C 
ATOM      8  C   LIG A   1      -6.415   2.113 126.997  0.00  0.00    -0.023 C 
ATOM      9  C   LIG A   1      -5.102   2.916 126.851  0.00  0.00    +0.008 C 
ATOM     10  C   LIG A   1      -4.932   4.008 127.899  0.00  0.00    +0.005 C 
ATOM     11  C   LIG A   1      -4.996   3.485 129.350  0.00  0.00    +0.004 C 
ATOM     12  C   LIG A   1      -4.667   4.599 130.422  0.00  0.00    +0.005 C 
ATOM     13  C   LIG A   1      -3.118   4.800 130.410  0.00  0.00    +0.015 C 
ATOM     14  C   LIG A   1      -5.046   4.204 131.905  0.00  0.00    +0.182 C 
ATOM     15  C   LIG A   1      -5.754   2.862 132.160  0.00  0.00    +0.046 C 
ATOM     16  C   LIG A   1      -5.919   1.903 130.984  0.00  0.00    +0.011 C 
ATOM     17  C   LIG A   1      -6.267   2.614 129.646  0.00  0.00    -0.025 C 
ATOM     18  C   LIG A   1      -6.445   1.528 128.477  0.00  0.00    +0.002 C 
ATOM     19  C   LIG A   1      -7.633   0.554 128.681  0.00  0.00    +0.005 C 
ATOM     20  C   LIG A   1      -7.746  -0.537 127.604  0.00  0.00    +0.005 C 
ATOM     21  C   LIG A   1      -7.771   0.070 126.197  0.00  0.00    -0.000 C 
ATOM     22  C   LIG A   1      -8.020  -0.924 125.054  0.00  0.00    +0.006 C 
ATOM     23  C   LIG A   1      -7.563   3.423 129.894  0.00  0.00    +0.012 C 
ATOM     24  C   LIG A   1      -5.267   5.965 129.989  0.00  0.00    +0.015 C 
ATOM     25  C   LIG A   1      -7.617   3.078 126.754  0.00  0.00    +0.012 C 
ATOM     26  C   LIG A   1      -5.198  -0.001 126.025  0.00  0.00    +0.012 C 
ATOM     27  C   LIG A   1      -9.424   0.878 123.784  0.00  0.00    +0.011 C 
ENDROOT
BRANCH   1  29
ATOM     28  C   LIG A   1      -8.914  -3.776 126.996  0.00  0.00    +0.007 C 
ATOM     29  C   LIG A   1      -8.686  -3.348 125.740  0.00  0.00    -0.076 C 
ATOM     30  C   LIG A   1      -7.913  -4.231 124.796  0.00  0.00    +0.038 C 
ENDBRANCH   1  29
BRANCH  14  31
ATOM     31  O   LIG A   1      -5.899   5.214 132.532  0.00  0.00    -0.461 OA
BRANCH  31  32
ATOM     32  C   LIG A   1      -5.996   5.246 133.890  0.00  0.00    +0.307 C 
ATOM     33  O   LIG A   1      -5.068   5.108 134.676  0.00  0.00    -0.251 OA
BRANCH  32  34
ATOM     34  C   LIG A   1      -7.420   5.534 134.307  0.00  0.00    +0.120 C 
BRANCH  34  35
ATOM     35  C   LIG A   1      -8.264   4.278 134.500  0.00  0.00    +0.011 C 
BRANCH  35  36
ATOM     36  C   LIG A   1      -9.118   3.904 133.283  0.00  0.00    +0.000 C 
BRANCH  36  37
ATOM     37  C   LIG A   1      -9.116   2.390 133.060  0.00  0.00    -0.003 C 
ATOM     38  C   LIG A   1     -10.095   1.961 131.978  0.00  0.00    +0.004 C 
ENDBRANCH  36  37
ENDBRANCH  35  36
ENDBRANCH  34  35
ENDBRANCH  32  34
ENDBRANCH  31  32
ENDBRANCH  14  31
TORSDOF 7
ENDMDL
MODEL 6
REMARK VINA RESULT:      -8.5      3.662      5.477
REMARK  Name = NuBBE_605
REMARK  15 active torsions:
REMARK  status: ('A' for Active; 'I' for Inactive)
REMARK    1  A    between atoms: C_2  and  C_3
REMARK    2  A    between atoms: C_2  and  C_44
REMARK    3  A    between atoms: C_7  and  C_43
REMARK    4  A    between atoms: C_10  and  C_42
REMARK    5  A    between atoms: C_11  and  C_41
REMARK    6  A    between atoms: C_16  and  C_17
REMARK    7  A    between atoms: C_16  and  C_40
REMARK    8  A    between atoms: C_18  and  O_32
REMARK    9  A    between atoms: C_22  and  C_31
REMARK   10  A    between atoms: O_32  and  C_33
REMARK   11  A    between atoms: C_33  and  C_34
REMARK   12  A    between atoms: C_34  and  C_35
REMARK   13  A    between atoms: C_35  and  C_36
REMARK   14  A    between atoms: C_36  and  C_37
REMARK   15  A    between atoms: C_37  and  C_38
REMARK                            x       y       z     vdW  Elec       q    Type
REMARK                         _______ _______ _______ _____ _____    ______ ____
ROOT
ATOM      1  C   LIG A   1      -6.100  -4.377 133.467  0.00  0.00    +0.018 C 
ATOM      2  C   LIG A   1      -4.961  -5.423 133.380  0.00  0.00    +0.009 C 
ATOM      3  C   LIG A   1      -3.648  -4.631 133.438  0.00  0.00    +0.007 C 
ATOM      4  C   LIG A   1      -3.995  -3.301 132.761  0.00  0.00    -0.028 C 
ATOM      5  C   LIG A   1      -3.086  -2.129 133.158  0.00  0.00    +0.007 C 
ATOM      6  C   LIG A   1      -3.643  -0.774 132.672  0.00  0.00    +0.008 C 
ATOM      7  C   LIG A   1      -5.187  -0.509 132.921  0.00  0.00    -0.023 C 
ATOM      8  C   LIG A   1      -5.783   0.640 131.946  0.00  0.00    -0.023 C 
ATOM      9  C   LIG A   1      -5.068   1.987 132.202  0.00  0.00    +0.008 C 
ATOM     10  C   LIG A   1      -5.633   3.145 131.390  0.00  0.00    +0.005 C 
ATOM     11  C   LIG A   1      -7.144   3.372 131.611  0.00  0.00    +0.004 C 
ATOM     12  C   LIG A   1      -7.685   4.667 130.882  0.00  0.00    +0.005 C 
ATOM     13  C   LIG A   1      -7.228   5.894 131.734  0.00  0.00    +0.015 C 
ATOM     14  C   LIG A   1      -9.261   4.754 130.800  0.00  0.00    +0.182 C 
ATOM     15  C   LIG A   1     -10.100   3.579 131.334  0.00  0.00    +0.046 C 
ATOM     16  C   LIG A   1      -9.373   2.450 132.060  0.00  0.00    +0.011 C 
ATOM     17  C   LIG A   1      -8.007   2.077 131.419  0.00  0.00    -0.025 C 
ATOM     18  C   LIG A   1      -7.332   0.869 132.233  0.00  0.00    +0.002 C 
ATOM     19  C   LIG A   1      -8.124  -0.462 132.183  0.00  0.00    +0.005 C 
ATOM     20  C   LIG A   1      -7.517  -1.590 133.033  0.00  0.00    +0.005 C 
ATOM     21  C   LIG A   1      -6.042  -1.817 132.687  0.00  0.00    -0.000 C 
ATOM     22  C   LIG A   1      -5.377  -3.014 133.383  0.00  0.00    +0.006 C 
ATOM     23  C   LIG A   1      -8.293   1.700 129.946  0.00  0.00    +0.012 C 
ATOM     24  C   LIG A   1      -6.997   4.841 129.501  0.00  0.00    +0.015 C 
ATOM     25  C   LIG A   1      -5.547   0.227 130.460  0.00  0.00    +0.012 C 
ATOM     26  C   LIG A   1      -5.274  -0.069 134.423  0.00  0.00    +0.012 C 
ATOM     27  C   LIG A   1      -3.982  -3.500 131.227  0.00  0.00    +0.011 C 
ENDROOT
BRANCH   1  29
ATOM     28  C   LIG A   1      -7.584  -3.642 135.417  0.00  0.00    +0.007 C 
ATOM     29  C   LIG A   1      -6.948  -4.604 134.722  0.00  0.00    -0.076 C 
ATOM     30  C   LIG A   1      -7.029  -6.029 135.204  0.00  0.00    +0.038 C 
ENDBRANCH   1  29
BRANCH  14  31
ATOM     31  O   LIG A   1      -9.720   4.961 129.427  0.00  0.00    -0.461 OA
BRANCH  31  32
ATOM     32  C   LIG A   1     -10.082   6.213 129.033  0.00  0.00    +0.307 C 
ATOM     33  O   LIG A   1     -10.059   6.635 127.884  0.00  0.00    -0.251 OA
BRANCH  32  34
ATOM     34  C   LIG A   1     -10.579   7.012 130.216  0.00  0.00    +0.120 C 
BRANCH  34  35
ATOM     35  C   LIG A   1     -12.094   7.179 130.245  0.00  0.00    +0.011 C 
BRANCH  35  36
ATOM     36  C   LIG A   1     -12.582   8.555 129.775  0.00  0.00    +0.000 C 
BRANCH  36  37
ATOM     37  C   LIG A   1     -13.228   8.460 128.391  0.00  0.00    -0.003 C 
ATOM     38  C   LIG A   1     -13.736   7.061 128.081  0.00  0.00    +0.004 C 
ENDBRANCH  36  37
ENDBRANCH  35  36
ENDBRANCH  34  35
ENDBRANCH  32  34
ENDBRANCH  31  32
ENDBRANCH  14  31
TORSDOF 7
ENDMDL
MODEL 7
REMARK VINA RESULT:      -8.5      4.939      8.835
REMARK  Name = NuBBE_605
REMARK  15 active torsions:
REMARK  status: ('A' for Active; 'I' for Inactive)
REMARK    1  A    between atoms: C_2  and  C_3
REMARK    2  A    between atoms: C_2  and  C_44
REMARK    3  A    between atoms: C_7  and  C_43
REMARK    4  A    between atoms: C_10  and  C_42
REMARK    5  A    between atoms: C_11  and  C_41
REMARK    6  A    between atoms: C_16  and  C_17
REMARK    7  A    between atoms: C_16  and  C_40
REMARK    8  A    between atoms: C_18  and  O_32
REMARK    9  A    between atoms: C_22  and  C_31
REMARK   10  A    between atoms: O_32  and  C_33
REMARK   11  A    between atoms: C_33  and  C_34
REMARK   12  A    between atoms: C_34  and  C_35
REMARK   13  A    between atoms: C_35  and  C_36
REMARK   14  A    between atoms: C_36  and  C_37
REMARK   15  A    between atoms: C_37  and  C_38
REMARK                            x       y       z     vdW  Elec       q    Type
REMARK                         _______ _______ _______ _____ _____    ______ ____
ROOT
ATOM      1  C   LIG A   1      -6.439   2.591 124.240  0.00  0.00    +0.018 C 
ATOM      2  C   LIG A   1      -7.096   2.651 122.838  0.00  0.00    +0.009 C 
ATOM      3  C   LIG A   1      -8.375   1.810 122.929  0.00  0.00    +0.007 C 
ATOM      4  C   LIG A   1      -8.024   0.722 123.950  0.00  0.00    -0.028 C 
ATOM      5  C   LIG A   1      -9.236   0.093 124.650  0.00  0.00    +0.007 C 
ATOM      6  C   LIG A   1      -8.820  -0.783 125.852  0.00  0.00    +0.008 C 
ATOM      7  C   LIG A   1      -7.747  -0.167 126.844  0.00  0.00    -0.023 C 
ATOM      8  C   LIG A   1      -6.995  -1.300 127.724  0.00  0.00    -0.023 C 
ATOM      9  C   LIG A   1      -8.012  -2.059 128.606  0.00  0.00    +0.008 C 
ATOM     10  C   LIG A   1      -7.373  -3.083 129.536  0.00  0.00    +0.005 C 
ATOM     11  C   LIG A   1      -6.304  -2.480 130.473  0.00  0.00    +0.004 C 
ATOM     12  C   LIG A   1      -5.759  -3.519 131.533  0.00  0.00    +0.005 C 
ATOM     13  C   LIG A   1      -6.855  -3.660 132.637  0.00  0.00    +0.015 C 
ATOM     14  C   LIG A   1      -4.444  -3.055 132.279  0.00  0.00    +0.182 C 
ATOM     15  C   LIG A   1      -3.783  -1.728 131.865  0.00  0.00    +0.046 C 
ATOM     16  C   LIG A   1      -4.515  -0.845 130.858  0.00  0.00    +0.011 C 
ATOM     17  C   LIG A   1      -5.211  -1.644 129.720  0.00  0.00    -0.025 C 
ATOM     18  C   LIG A   1      -5.930  -0.634 128.702  0.00  0.00    +0.002 C 
ATOM     19  C   LIG A   1      -4.963   0.304 127.936  0.00  0.00    +0.005 C 
ATOM     20  C   LIG A   1      -5.662   1.326 127.026  0.00  0.00    +0.005 C 
ATOM     21  C   LIG A   1      -6.636   0.640 126.063  0.00  0.00    -0.000 C 
ATOM     22  C   LIG A   1      -7.286   1.557 125.017  0.00  0.00    +0.006 C 
ATOM     23  C   LIG A   1      -4.112  -2.486 129.030  0.00  0.00    +0.012 C 
ATOM     24  C   LIG A   1      -5.627  -4.928 130.896  0.00  0.00    +0.015 C 
ATOM     25  C   LIG A   1      -6.308  -2.323 126.765  0.00  0.00    +0.012 C 
ATOM     26  C   LIG A   1      -8.570   0.800 127.762  0.00  0.00    +0.012 C 
ATOM     27  C   LIG A   1      -7.176  -0.367 123.251  0.00  0.00    +0.011 C 
ENDROOT
BRANCH   1  29
ATOM     28  C   LIG A   1      -5.256   4.754 124.927  0.00  0.00    +0.007 C 
ATOM     29  C   LIG A   1      -6.362   3.989 124.862  0.00  0.00    -0.076 C 
ATOM     30  C   LIG A   1      -7.643   4.504 125.465  0.00  0.00    +0.038 C 
ENDBRANCH   1  29
BRANCH  14  31
ATOM     31  O   LIG A   1      -3.386  -4.059 132.182  0.00  0.00    -0.461 OA
BRANCH  31  32
ATOM     32  C   LIG A   1      -2.876  -4.595 133.326  0.00  0.00    +0.307 C 
ATOM     33  O   LIG A   1      -1.950  -4.134 133.979  0.00  0.00    -0.251 OA
BRANCH  32  34
ATOM     34  C   LIG A   1      -3.657  -5.827 133.721  0.00  0.00    +0.120 C 
BRANCH  34  35
ATOM     35  C   LIG A   1      -3.666  -6.087 135.224  0.00  0.00    +0.011 C 
BRANCH  35  36
ATOM     36  C   LIG A   1      -4.985  -6.662 135.752  0.00  0.00    +0.000 C 
BRANCH  36  37
ATOM     37  C   LIG A   1      -6.182  -5.921 135.154  0.00  0.00    -0.003 C 
ATOM     38  C   LIG A   1      -7.452  -6.115 135.968  0.00  0.00    +0.004 C 
ENDBRANCH  36  37
ENDBRANCH  35  36
ENDBRANCH  34  35
ENDBRANCH  32  34
ENDBRANCH  31  32
ENDBRANCH  14  31
TORSDOF 7
ENDMDL
MODEL 8
REMARK VINA RESULT:      -8.5      4.632      7.757
REMARK  Name = NuBBE_605
REMARK  15 active torsions:
REMARK  status: ('A' for Active; 'I' for Inactive)
REMARK    1  A    between atoms: C_2  and  C_3
REMARK    2  A    between atoms: C_2  and  C_44
REMARK    3  A    between atoms: C_7  and  C_43
REMARK    4  A    between atoms: C_10  and  C_42
REMARK    5  A    between atoms: C_11  and  C_41
REMARK    6  A    between atoms: C_16  and  C_17
REMARK    7  A    between atoms: C_16  and  C_40
REMARK    8  A    between atoms: C_18  and  O_32
REMARK    9  A    between atoms: C_22  and  C_31
REMARK   10  A    between atoms: O_32  and  C_33
REMARK   11  A    between atoms: C_33  and  C_34
REMARK   12  A    between atoms: C_34  and  C_35
REMARK   13  A    between atoms: C_35  and  C_36
REMARK   14  A    between atoms: C_36  and  C_37
REMARK   15  A    between atoms: C_37  and  C_38
REMARK                            x       y       z     vdW  Elec       q    Type
REMARK                         _______ _______ _______ _____ _____    ______ ____
ROOT
ATOM      1  C   LIG A   1      -6.959  -3.244 124.407  0.00  0.00    +0.018 C 
ATOM      2  C   LIG A   1      -8.190  -3.319 123.468  0.00  0.00    +0.009 C 
ATOM      3  C   LIG A   1      -9.036  -2.076 123.774  0.00  0.00    +0.007 C 
ATOM      4  C   LIG A   1      -8.784  -1.821 125.264  0.00  0.00    -0.028 C 
ATOM      5  C   LIG A   1      -9.031  -0.374 125.712  0.00  0.00    +0.007 C 
ATOM      6  C   LIG A   1      -8.501  -0.111 127.138  0.00  0.00    +0.008 C 
ATOM      7  C   LIG A   1      -7.047  -0.651 127.467  0.00  0.00    -0.023 C 
ATOM      8  C   LIG A   1      -6.792  -0.812 129.059  0.00  0.00    -0.023 C 
ATOM      9  C   LIG A   1      -6.912   0.558 129.764  0.00  0.00    +0.008 C 
ATOM     10  C   LIG A   1      -6.595   0.512 131.253  0.00  0.00    +0.005 C 
ATOM     11  C   LIG A   1      -5.191  -0.050 131.566  0.00  0.00    +0.004 C 
ATOM     12  C   LIG A   1      -4.817   0.048 133.099  0.00  0.00    +0.005 C 
ATOM     13  C   LIG A   1      -4.443   1.538 133.382  0.00  0.00    +0.015 C 
ATOM     14  C   LIG A   1      -3.553  -0.807 133.513  0.00  0.00    +0.182 C 
ATOM     15  C   LIG A   1      -2.876  -1.694 132.455  0.00  0.00    +0.046 C 
ATOM     16  C   LIG A   1      -3.362  -1.589 131.012  0.00  0.00    +0.011 C 
ATOM     17  C   LIG A   1      -4.904  -1.434 130.885  0.00  0.00    -0.025 C 
ATOM     18  C   LIG A   1      -5.322  -1.356 129.338  0.00  0.00    +0.002 C 
ATOM     19  C   LIG A   1      -5.028  -2.644 128.527  0.00  0.00    +0.005 C 
ATOM     20  C   LIG A   1      -5.352  -2.534 127.029  0.00  0.00    +0.005 C 
ATOM     21  C   LIG A   1      -6.792  -2.062 126.803  0.00  0.00    -0.000 C 
ATOM     22  C   LIG A   1      -7.260  -2.050 125.341  0.00  0.00    +0.006 C 
ATOM     23  C   LIG A   1      -5.536  -2.651 131.601  0.00  0.00    +0.012 C 
ATOM     24  C   LIG A   1      -6.060  -0.243 133.982  0.00  0.00    +0.015 C 
ATOM     25  C   LIG A   1      -7.866  -1.774 129.656  0.00  0.00    +0.012 C 
ATOM     26  C   LIG A   1      -6.081   0.418 126.850  0.00  0.00    +0.012 C 
ATOM     27  C   LIG A   1      -9.649  -2.800 126.094  0.00  0.00    +0.011 C 
ENDROOT
BRANCH   1  29
ATOM     28  C   LIG A   1      -4.568  -3.902 123.778  0.00  0.00    +0.007 C 
ATOM     29  C   LIG A   1      -5.665  -3.143 123.595  0.00  0.00    -0.076 C 
ATOM     30  C   LIG A   1      -5.646  -2.076 122.531  0.00  0.00    +0.038 C 
ENDBRANCH   1  29
BRANCH  14  31
ATOM     31  O   LIG A   1      -3.849  -1.700 134.633  0.00  0.00    -0.461 OA
BRANCH  31  32
ATOM     32  C   LIG A   1      -2.819  -2.207 135.364  0.00  0.00    +0.307 C 
ATOM     33  O   LIG A   1      -1.846  -1.578 135.758  0.00  0.00    -0.251 OA
BRANCH  32  34
ATOM     34  C   LIG A   1      -3.066  -3.665 135.679  0.00  0.00    +0.120 C 
BRANCH  34  35
ATOM     35  C   LIG A   1      -3.856  -4.396 134.599  0.00  0.00    +0.011 C 
BRANCH  35  36
ATOM     36  C   LIG A   1      -4.984  -5.282 135.140  0.00  0.00    +0.000 C 
BRANCH  36  37
ATOM     37  C   LIG A   1      -6.165  -5.315 134.169  0.00  0.00    -0.003 C 
ATOM     38  C   LIG A   1      -7.228  -4.282 134.511  0.00  0.00    +0.004 C 
ENDBRANCH  36  37
ENDBRANCH  35  36
ENDBRANCH  34  35
ENDBRANCH  32  34
ENDBRANCH  31  32
ENDBRANCH  14  31
TORSDOF 7
ENDMDL
MODEL 9
REMARK VINA RESULT:      -8.5      3.742      9.517
REMARK  Name = NuBBE_605
REMARK  15 active torsions:
REMARK  status: ('A' for Active; 'I' for Inactive)
REMARK    1  A    between atoms: C_2  and  C_3
REMARK    2  A    between atoms: C_2  and  C_44
REMARK    3  A    between atoms: C_7  and  C_43
REMARK    4  A    between atoms: C_10  and  C_42
REMARK    5  A    between atoms: C_11  and  C_41
REMARK    6  A    between atoms: C_16  and  C_17
REMARK    7  A    between atoms: C_16  and  C_40
REMARK    8  A    between atoms: C_18  and  O_32
REMARK    9  A    between atoms: C_22  and  C_31
REMARK   10  A    between atoms: O_32  and  C_33
REMARK   11  A    between atoms: C_33  and  C_34
REMARK   12  A    between atoms: C_34  and  C_35
REMARK   13  A    between atoms: C_35  and  C_36
REMARK   14  A    between atoms: C_36  and  C_37
REMARK   15  A    between atoms: C_37  and  C_38
REMARK                            x       y       z     vdW  Elec       q    Type
REMARK                         _______ _______ _______ _____ _____    ______ ____
ROOT
ATOM      1  C   LIG A   1      -3.443   6.535 134.195  0.00  0.00    +0.018 C 
ATOM      2  C   LIG A   1      -2.449   7.724 134.189  0.00  0.00    +0.009 C 
ATOM      3  C   LIG A   1      -2.612   8.410 132.826  0.00  0.00    +0.007 C 
ATOM      4  C   LIG A   1      -2.980   7.260 131.882  0.00  0.00    -0.028 C 
ATOM      5  C   LIG A   1      -3.733   7.694 130.616  0.00  0.00    +0.007 C 
ATOM      6  C   LIG A   1      -4.319   6.489 129.849  0.00  0.00    +0.008 C 
ATOM      7  C   LIG A   1      -5.080   5.398 130.713  0.00  0.00    -0.023 C 
ATOM      8  C   LIG A   1      -5.183   3.970 129.954  0.00  0.00    -0.023 C 
ATOM      9  C   LIG A   1      -5.984   4.115 128.640  0.00  0.00    +0.008 C 
ATOM     10  C   LIG A   1      -6.207   2.797 127.910  0.00  0.00    +0.005 C 
ATOM     11  C   LIG A   1      -6.916   1.729 128.770  0.00  0.00    +0.004 C 
ATOM     12  C   LIG A   1      -7.278   0.423 127.956  0.00  0.00    +0.005 C 
ATOM     13  C   LIG A   1      -8.529   0.761 127.085  0.00  0.00    +0.015 C 
ATOM     14  C   LIG A   1      -7.690  -0.809 128.857  0.00  0.00    +0.182 C 
ATOM     15  C   LIG A   1      -7.624  -0.667 130.387  0.00  0.00    +0.046 C 
ATOM     16  C   LIG A   1      -7.309   0.709 130.968  0.00  0.00    +0.011 C 
ATOM     17  C   LIG A   1      -6.234   1.492 130.162  0.00  0.00    -0.025 C 
ATOM     18  C   LIG A   1      -5.953   2.911 130.859  0.00  0.00    +0.002 C 
ATOM     19  C   LIG A   1      -5.337   2.819 132.279  0.00  0.00    +0.005 C 
ATOM     20  C   LIG A   1      -5.149   4.177 132.974  0.00  0.00    +0.005 C 
ATOM     21  C   LIG A   1      -4.355   5.148 132.094  0.00  0.00    -0.000 C 
ATOM     22  C   LIG A   1      -3.994   6.488 132.751  0.00  0.00    +0.006 C 
ATOM     23  C   LIG A   1      -4.970   0.601 130.122  0.00  0.00    +0.012 C 
ATOM     24  C   LIG A   1      -6.149   0.082 126.946  0.00  0.00    +0.015 C 
ATOM     25  C   LIG A   1      -3.746   3.468 129.608  0.00  0.00    +0.012 C 
ATOM     26  C   LIG A   1      -6.503   6.008 130.952  0.00  0.00    +0.012 C 
ATOM     27  C   LIG A   1      -1.695   6.485 131.508  0.00  0.00    +0.011 C 
ENDROOT
BRANCH   1  29
ATOM     28  C   LIG A   1      -5.683   6.089 135.348  0.00  0.00    +0.007 C 
ATOM     29  C   LIG A   1      -4.489   6.709 135.300  0.00  0.00    -0.076 C 
ATOM     30  C   LIG A   1      -4.126   7.682 136.391  0.00  0.00    +0.038 C 
ENDBRANCH   1  29
BRANCH  14  31
ATOM     31  O   LIG A   1      -6.895  -1.996 128.545  0.00  0.00    -0.461 OA
BRANCH  31  32
ATOM     32  C   LIG A   1      -7.364  -3.221 128.912  0.00  0.00    +0.307 C 
ATOM     33  O   LIG A   1      -6.803  -4.002 129.668  0.00  0.00    -0.251 OA
BRANCH  32  34
ATOM     34  C   LIG A   1      -8.720  -3.470 128.294  0.00  0.00    +0.120 C 
BRANCH  34  35
ATOM     35  C   LIG A   1      -8.670  -3.710 126.789  0.00  0.00    +0.011 C 
BRANCH  35  36
ATOM     36  C   LIG A   1      -9.454  -2.683 125.964  0.00  0.00    +0.000 C 
BRANCH  36  37
ATOM     37  C   LIG A   1      -8.783  -2.444 124.610  0.00  0.00    -0.003 C 
ATOM     38  C   LIG A   1      -9.406  -3.273 123.498  0.00  0.00    +0.004 C 
ENDBRANCH  36  37
ENDBRANCH  35  36
ENDBRANCH  34  35
ENDBRANCH  32  34
ENDBRANCH  31  32
ENDBRANCH  14  31
TORSDOF 7
ENDMDL
