MODEL 1
REMARK VINA RESULT:      -8.0      0.000      0.000
REMARK  Name = NuBBE_2361
REMARK  12 active torsions:
REMARK  status: ('A' for Active; 'I' for Inactive)
REMARK    1  A    between atoms: C_1  and  C_2
REMARK    2  A    between atoms: C_3  and  O_29
REMARK    3  A    between atoms: C_11  and  C_12
REMARK    4  A    between atoms: C_17  and  C_19
REMARK    5  A    between atoms: C_19  and  C_21
REMARK    6  A    between atoms: C_19  and  C_22
REMARK    7  A    between atoms: C_22  and  C_23
REMARK    8  A    between atoms: C_23  and  C_24
REMARK    9  A    between atoms: C_24  and  C_25
REMARK   10  A    between atoms: C_25  and  C_26
REMARK   11  A    between atoms: C_25  and  C_27
REMARK   12  A    between atoms: C_31  and  O_32
REMARK                            x       y       z     vdW  Elec       q    Type
REMARK                         _______ _______ _______ _____ _____    ______ ____
ROOT
ATOM      1  C   LIG A   1      -6.732  -2.589 125.381  0.00  0.00    +0.014 C 
ATOM      2  C   LIG A   1      -8.197  -2.094 125.578  0.00  0.00    +0.007 C 
ATOM      3  C   LIG A   1      -8.371  -0.625 125.047  0.00  0.00    +0.131 C 
ATOM      4  C   LIG A   1      -7.643   0.372 125.944  0.00  0.00    +0.166 C 
ATOM      5  C   LIG A   1      -7.959   0.311 127.427  0.00  0.00    +0.081 C 
ATOM      6  C   LIG A   1      -7.700  -1.116 127.907  0.00  0.00    +0.003 C 
ATOM      7  C   LIG A   1      -8.586  -2.135 127.115  0.00  0.00    +0.002 C 
ATOM      8  C   LIG A   1      -8.637  -3.571 127.735  0.00  0.00    +0.005 C 
ATOM      9  C   LIG A   1      -8.548  -3.662 129.277  0.00  0.00    +0.007 C 
ATOM     10  C   LIG A   1      -7.442  -2.748 129.845  0.00  0.00    -0.026 C 
ATOM     11  C   LIG A   1      -6.079  -3.178 129.250  0.00  0.00    +0.012 C 
ATOM     12  C   LIG A   1      -7.889  -1.322 129.406  0.00  0.00    -0.001 C 
ATOM     13  C   LIG A   1      -7.140  -0.415 130.354  0.00  0.00    +0.004 C 
ATOM     14  C   LIG A   1      -7.378  -1.103 131.694  0.00  0.00    +0.004 C 
ATOM     15  C   LIG A   1      -7.388  -2.639 131.425  0.00  0.00    -0.002 C 
ATOM     16  O   LIG A   1      -6.886   1.253 125.483  0.00  0.00    -0.294 OA
ATOM     17  C   LIG A   1      -7.984  -0.519 123.561  0.00  0.00    +0.074 C 
ATOM     18  C   LIG A   1      -8.807  -1.473 122.692  0.00  0.00    +0.118 C 
ATOM     19  C   LIG A   1      -8.869  -2.910 123.223  0.00  0.00    +0.032 C 
ATOM     20  C   LIG A   1      -9.130  -3.012 124.736  0.00  0.00    +0.012 C 
ENDROOT
BRANCH  15  21
ATOM     21  C   LIG A   1      -6.223  -3.358 132.215  0.00  0.00    -0.010 C 
ATOM     22  C   LIG A   1      -6.749  -4.256 133.348  0.00  0.00    +0.008 C 
BRANCH  21  23
ATOM     23  C   LIG A   1      -5.193  -2.335 132.783  0.00  0.00    +0.003 C 
BRANCH  23  24
ATOM     24  C   LIG A   1      -3.833  -2.235 132.059  0.00  0.00    +0.000 C 
BRANCH  24  25
ATOM     25  C   LIG A   1      -3.568  -0.891 131.367  0.00  0.00    +0.003 C 
BRANCH  25  26
ATOM     26  C   LIG A   1      -3.998   0.327 132.215  0.00  0.00    -0.017 C 
ATOM     27  C   LIG A   1      -3.013   0.630 133.347  0.00  0.00    +0.007 C 
ATOM     28  C   LIG A   1      -4.139   1.568 131.328  0.00  0.00    +0.007 C 
ENDBRANCH  25  26
ENDBRANCH  24  25
ENDBRANCH  23  24
ENDBRANCH  21  23
ENDBRANCH  15  21
BRANCH   3  29
ATOM     29  O   LIG A   1      -9.762  -0.240 125.150  0.00  0.00    -0.380 OA
ATOM     30  H   LIG A   1     -10.194  -0.540 124.323  0.00  0.00    +0.211 HD
ENDBRANCH   3  29
BRANCH  18  31
ATOM     31  O   LIG A   1     -10.137  -0.969 122.571  0.00  0.00    -0.392 OA
ATOM     32  H   LIG A   1     -10.135  -0.065 122.945  0.00  0.00    +0.210 HD
ENDBRANCH  18  31
TORSDOF 7
ENDMDL
MODEL 2
REMARK VINA RESULT:      -7.9      2.876      7.379
REMARK  Name = NuBBE_2361
REMARK  12 active torsions:
REMARK  status: ('A' for Active; 'I' for Inactive)
REMARK    1  A    between atoms: C_1  and  C_2
REMARK    2  A    between atoms: C_3  and  O_29
REMARK    3  A    between atoms: C_11  and  C_12
REMARK    4  A    between atoms: C_17  and  C_19
REMARK    5  A    between atoms: C_19  and  C_21
REMARK    6  A    between atoms: C_19  and  C_22
REMARK    7  A    between atoms: C_22  and  C_23
REMARK    8  A    between atoms: C_23  and  C_24
REMARK    9  A    between atoms: C_24  and  C_25
REMARK   10  A    between atoms: C_25  and  C_26
REMARK   11  A    between atoms: C_25  and  C_27
REMARK   12  A    between atoms: C_31  and  O_32
REMARK                            x       y       z     vdW  Elec       q    Type
REMARK                         _______ _______ _______ _____ _____    ______ ____
ROOT
ATOM      1  C   LIG A   1      -7.700  -0.733 130.616  0.00  0.00    +0.014 C 
ATOM      2  C   LIG A   1      -6.927  -2.076 130.788  0.00  0.00    +0.007 C 
ATOM      3  C   LIG A   1      -5.426  -1.816 131.177  0.00  0.00    +0.131 C 
ATOM      4  C   LIG A   1      -4.651  -1.223 130.003  0.00  0.00    +0.166 C 
ATOM      5  C   LIG A   1      -4.727  -1.975 128.688  0.00  0.00    +0.081 C 
ATOM      6  C   LIG A   1      -6.201  -2.133 128.319  0.00  0.00    +0.003 C 
ATOM      7  C   LIG A   1      -6.972  -2.909 129.439  0.00  0.00    +0.002 C 
ATOM      8  C   LIG A   1      -8.399  -3.400 129.025  0.00  0.00    +0.005 C 
ATOM      9  C   LIG A   1      -8.591  -3.796 127.542  0.00  0.00    +0.007 C 
ATOM     10  C   LIG A   1      -7.955  -2.766 126.585  0.00  0.00    -0.026 C 
ATOM     11  C   LIG A   1      -8.622  -1.388 126.814  0.00  0.00    +0.012 C 
ATOM     12  C   LIG A   1      -6.446  -2.797 126.968  0.00  0.00    -0.001 C 
ATOM     13  C   LIG A   1      -5.765  -2.217 125.750  0.00  0.00    +0.004 C 
ATOM     14  C   LIG A   1      -6.462  -2.965 124.620  0.00  0.00    +0.004 C 
ATOM     15  C   LIG A   1      -7.947  -3.169 125.052  0.00  0.00    -0.002 C 
ATOM     16  O   LIG A   1      -3.919  -0.218 130.129  0.00  0.00    -0.294 OA
ATOM     17  C   LIG A   1      -5.321  -0.988 132.470  0.00  0.00    +0.074 C 
ATOM     18  C   LIG A   1      -6.037  -1.670 133.639  0.00  0.00    +0.118 C 
ATOM     19  C   LIG A   1      -7.457  -2.145 133.314  0.00  0.00    +0.032 C 
ATOM     20  C   LIG A   1      -7.586  -2.862 131.958  0.00  0.00    +0.012 C 
ENDROOT
BRANCH  15  21
ATOM     21  C   LIG A   1      -8.931  -2.445 124.051  0.00  0.00    -0.010 C 
ATOM     22  C   LIG A   1      -9.796  -3.437 123.256  0.00  0.00    +0.008 C 
BRANCH  21  23
ATOM     23  C   LIG A   1      -8.169  -1.502 123.071  0.00  0.00    +0.003 C 
BRANCH  23  24
ATOM     24  C   LIG A   1      -8.328   0.018 123.294  0.00  0.00    +0.000 C 
BRANCH  24  25
ATOM     25  C   LIG A   1      -7.024   0.765 123.604  0.00  0.00    +0.003 C 
BRANCH  25  26
ATOM     26  C   LIG A   1      -7.160   1.774 124.767  0.00  0.00    -0.017 C 
ATOM     27  C   LIG A   1      -8.602   1.899 125.268  0.00  0.00    +0.007 C 
ATOM     28  C   LIG A   1      -6.258   1.362 125.934  0.00  0.00    +0.007 C 
ENDBRANCH  25  26
ENDBRANCH  24  25
ENDBRANCH  23  24
ENDBRANCH  21  23
ENDBRANCH  15  21
BRANCH   3  29
ATOM     29  O   LIG A   1      -4.770  -3.081 131.430  0.00  0.00    -0.380 OA
ATOM     30  H   LIG A   1      -4.893  -3.270 132.383  0.00  0.00    +0.211 HD
ENDBRANCH   3  29
BRANCH  18  31
ATOM     31  O   LIG A   1      -5.264  -2.790 134.075  0.00  0.00    -0.392 OA
ATOM     32  H   LIG A   1      -4.428  -2.435 134.437  0.00  0.00    +0.210 HD
ENDBRANCH  18  31
TORSDOF 7
ENDMDL
MODEL 3
REMARK VINA RESULT:      -7.9      2.769      4.533
REMARK  Name = NuBBE_2361
REMARK  12 active torsions:
REMARK  status: ('A' for Active; 'I' for Inactive)
REMARK    1  A    between atoms: C_1  and  C_2
REMARK    2  A    between atoms: C_3  and  O_29
REMARK    3  A    between atoms: C_11  and  C_12
REMARK    4  A    between atoms: C_17  and  C_19
REMARK    5  A    between atoms: C_19  and  C_21
REMARK    6  A    between atoms: C_19  and  C_22
REMARK    7  A    between atoms: C_22  and  C_23
REMARK    8  A    between atoms: C_23  and  C_24
REMARK    9  A    between atoms: C_24  and  C_25
REMARK   10  A    between atoms: C_25  and  C_26
REMARK   11  A    between atoms: C_25  and  C_27
REMARK   12  A    between atoms: C_31  and  O_32
REMARK                            x       y       z     vdW  Elec       q    Type
REMARK                         _______ _______ _______ _____ _____    ______ ____
ROOT
ATOM      1  C   LIG A   1      -6.220  -1.642 125.819  0.00  0.00    +0.014 C 
ATOM      2  C   LIG A   1      -7.750  -1.354 125.899  0.00  0.00    +0.007 C 
ATOM      3  C   LIG A   1      -8.306  -0.876 124.508  0.00  0.00    +0.131 C 
ATOM      4  C   LIG A   1      -7.801   0.524 124.169  0.00  0.00    +0.166 C 
ATOM      5  C   LIG A   1      -8.018   1.599 125.217  0.00  0.00    +0.081 C 
ATOM      6  C   LIG A   1      -7.393   1.117 126.525  0.00  0.00    +0.003 C 
ATOM      7  C   LIG A   1      -8.040  -0.233 126.982  0.00  0.00    +0.002 C 
ATOM      8  C   LIG A   1      -7.705  -0.648 128.453  0.00  0.00    +0.005 C 
ATOM      9  C   LIG A   1      -7.519   0.502 129.472  0.00  0.00    +0.007 C 
ATOM     10  C   LIG A   1      -6.645   1.639 128.902  0.00  0.00    -0.026 C 
ATOM     11  C   LIG A   1      -5.250   1.071 128.547  0.00  0.00    +0.012 C 
ATOM     12  C   LIG A   1      -7.450   2.130 127.664  0.00  0.00    -0.001 C 
ATOM     13  C   LIG A   1      -6.901   3.516 127.417  0.00  0.00    +0.004 C 
ATOM     14  C   LIG A   1      -6.896   4.101 128.826  0.00  0.00    +0.004 C 
ATOM     15  C   LIG A   1      -6.540   2.938 129.803  0.00  0.00    -0.002 C 
ATOM     16  O   LIG A   1      -7.308   0.801 123.054  0.00  0.00    -0.294 OA
ATOM     17  C   LIG A   1      -8.031  -1.917 123.409  0.00  0.00    +0.074 C 
ATOM     18  C   LIG A   1      -8.636  -3.280 123.755  0.00  0.00    +0.118 C 
ATOM     19  C   LIG A   1      -8.317  -3.766 125.174  0.00  0.00    +0.032 C 
ATOM     20  C   LIG A   1      -8.469  -2.687 126.259  0.00  0.00    +0.012 C 
ENDROOT
BRANCH  15  21
ATOM     21  C   LIG A   1      -5.197   3.243 130.578  0.00  0.00    -0.010 C 
ATOM     22  C   LIG A   1      -5.408   3.357 132.097  0.00  0.00    +0.008 C 
BRANCH  21  23
ATOM     23  C   LIG A   1      -4.498   4.529 130.040  0.00  0.00    +0.003 C 
BRANCH  23  24
ATOM     24  C   LIG A   1      -3.028   4.390 129.589  0.00  0.00    +0.000 C 
BRANCH  24  25
ATOM     25  C   LIG A   1      -2.774   4.709 128.109  0.00  0.00    +0.003 C 
BRANCH  25  26
ATOM     26  C   LIG A   1      -2.953   3.485 127.183  0.00  0.00    -0.017 C 
ATOM     27  C   LIG A   1      -3.854   3.786 125.981  0.00  0.00    +0.007 C 
ATOM     28  C   LIG A   1      -1.591   2.998 126.679  0.00  0.00    +0.007 C 
ENDBRANCH  25  26
ENDBRANCH  24  25
ENDBRANCH  23  24
ENDBRANCH  21  23
ENDBRANCH  15  21
BRANCH   3  29
ATOM     29  O   LIG A   1      -9.742  -0.721 124.594  0.00  0.00    -0.380 OA
ATOM     30  H   LIG A   1     -10.010  -1.109 125.452  0.00  0.00    +0.211 HD
ENDBRANCH   3  29
BRANCH  18  31
ATOM     31  O   LIG A   1     -10.055  -3.217 123.598  0.00  0.00    -0.392 OA
ATOM     32  H   LIG A   1     -10.369  -2.470 124.144  0.00  0.00    +0.210 HD
ENDBRANCH  18  31
TORSDOF 7
ENDMDL
MODEL 4
REMARK VINA RESULT:      -7.6      3.218      7.865
REMARK  Name = NuBBE_2361
REMARK  12 active torsions:
REMARK  status: ('A' for Active; 'I' for Inactive)
REMARK    1  A    between atoms: C_1  and  C_2
REMARK    2  A    between atoms: C_3  and  O_29
REMARK    3  A    between atoms: C_11  and  C_12
REMARK    4  A    between atoms: C_17  and  C_19
REMARK    5  A    between atoms: C_19  and  C_21
REMARK    6  A    between atoms: C_19  and  C_22
REMARK    7  A    between atoms: C_22  and  C_23
REMARK    8  A    between atoms: C_23  and  C_24
REMARK    9  A    between atoms: C_24  and  C_25
REMARK   10  A    between atoms: C_25  and  C_26
REMARK   11  A    between atoms: C_25  and  C_27
REMARK   12  A    between atoms: C_31  and  O_32
REMARK                            x       y       z     vdW  Elec       q    Type
REMARK                         _______ _______ _______ _____ _____    ______ ____
ROOT
ATOM      1  C   LIG A   1      -3.939  -1.894 129.839  0.00  0.00    +0.014 C 
ATOM      2  C   LIG A   1      -5.159  -1.740 130.797  0.00  0.00    +0.007 C 
ATOM      3  C   LIG A   1      -5.411  -3.066 131.604  0.00  0.00    +0.131 C 
ATOM      4  C   LIG A   1      -5.942  -4.169 130.692  0.00  0.00    +0.166 C 
ATOM      5  C   LIG A   1      -7.156  -3.830 129.848  0.00  0.00    +0.081 C 
ATOM      6  C   LIG A   1      -6.829  -2.582 129.030  0.00  0.00    +0.003 C 
ATOM      7  C   LIG A   1      -6.464  -1.385 129.969  0.00  0.00    +0.002 C 
ATOM      8  C   LIG A   1      -6.423   0.009 129.259  0.00  0.00    +0.005 C 
ATOM      9  C   LIG A   1      -7.418   0.220 128.093  0.00  0.00    +0.007 C 
ATOM     10  C   LIG A   1      -7.455  -0.993 127.140  0.00  0.00    -0.026 C 
ATOM     11  C   LIG A   1      -6.041  -1.207 126.545  0.00  0.00    +0.012 C 
ATOM     12  C   LIG A   1      -7.926  -2.160 128.057  0.00  0.00    -0.001 C 
ATOM     13  C   LIG A   1      -8.448  -3.185 127.077  0.00  0.00    +0.004 C 
ATOM     14  C   LIG A   1      -9.292  -2.321 126.147  0.00  0.00    +0.004 C 
ATOM     15  C   LIG A   1      -8.568  -0.946 126.014  0.00  0.00    -0.002 C 
ATOM     16  O   LIG A   1      -5.460  -5.323 130.693  0.00  0.00    -0.294 OA
ATOM     17  C   LIG A   1      -4.167  -3.474 132.411  0.00  0.00    +0.074 C 
ATOM     18  C   LIG A   1      -3.730  -2.369 133.376  0.00  0.00    +0.118 C 
ATOM     19  C   LIG A   1      -3.634  -0.979 132.737  0.00  0.00    +0.032 C 
ATOM     20  C   LIG A   1      -4.821  -0.622 131.825  0.00  0.00    +0.012 C 
ENDROOT
BRANCH  15  21
ATOM     21  C   LIG A   1      -8.148  -0.672 124.515  0.00  0.00    -0.010 C 
ATOM     22  C   LIG A   1      -8.855   0.559 123.923  0.00  0.00    +0.008 C 
BRANCH  21  23
ATOM     23  C   LIG A   1      -8.397  -1.915 123.608  0.00  0.00    +0.003 C 
BRANCH  23  24
ATOM     24  C   LIG A   1      -7.152  -2.677 123.106  0.00  0.00    +0.000 C 
BRANCH  24  25
ATOM     25  C   LIG A   1      -6.595  -3.720 124.086  0.00  0.00    +0.003 C 
BRANCH  25  26
ATOM     26  C   LIG A   1      -5.050  -3.758 124.123  0.00  0.00    -0.017 C 
ATOM     27  C   LIG A   1      -4.482  -5.057 123.544  0.00  0.00    +0.007 C 
ATOM     28  C   LIG A   1      -4.472  -2.569 123.349  0.00  0.00    +0.007 C 
ENDBRANCH  25  26
ENDBRANCH  24  25
ENDBRANCH  23  24
ENDBRANCH  21  23
ENDBRANCH  15  21
BRANCH   3  29
ATOM     29  O   LIG A   1      -6.481  -2.851 132.555  0.00  0.00    -0.380 OA
ATOM     30  H   LIG A   1      -7.152  -3.542 132.376  0.00  0.00    +0.211 HD
ENDBRANCH   3  29
BRANCH  18  31
ATOM     31  O   LIG A   1      -4.647  -2.311 134.470  0.00  0.00    -0.392 OA
ATOM     32  H   LIG A   1      -5.455  -1.872 134.141  0.00  0.00    +0.210 HD
ENDBRANCH  18  31
TORSDOF 7
ENDMDL
MODEL 5
REMARK VINA RESULT:      -7.6      4.062      8.008
REMARK  Name = NuBBE_2361
REMARK  12 active torsions:
REMARK  status: ('A' for Active; 'I' for Inactive)
REMARK    1  A    between atoms: C_1  and  C_2
REMARK    2  A    between atoms: C_3  and  O_29
REMARK    3  A    between atoms: C_11  and  C_12
REMARK    4  A    between atoms: C_17  and  C_19
REMARK    5  A    between atoms: C_19  and  C_21
REMARK    6  A    between atoms: C_19  and  C_22
REMARK    7  A    between atoms: C_22  and  C_23
REMARK    8  A    between atoms: C_23  and  C_24
REMARK    9  A    between atoms: C_24  and  C_25
REMARK   10  A    between atoms: C_25  and  C_26
REMARK   11  A    between atoms: C_25  and  C_27
REMARK   12  A    between atoms: C_31  and  O_32
REMARK                            x       y       z     vdW  Elec       q    Type
REMARK                         _______ _______ _______ _____ _____    ______ ____
ROOT
ATOM      1  C   LIG A   1      -6.792   4.106 130.735  0.00  0.00    +0.014 C 
ATOM      2  C   LIG A   1      -8.320   3.800 130.707  0.00  0.00    +0.007 C 
ATOM      3  C   LIG A   1      -8.845   3.420 132.140  0.00  0.00    +0.131 C 
ATOM      4  C   LIG A   1      -8.319   2.053 132.570  0.00  0.00    +0.166 C 
ATOM      5  C   LIG A   1      -8.545   0.902 131.608  0.00  0.00    +0.081 C 
ATOM      6  C   LIG A   1      -7.950   1.293 130.256  0.00  0.00    +0.003 C 
ATOM      7  C   LIG A   1      -8.619   2.599 129.714  0.00  0.00    +0.002 C 
ATOM      8  C   LIG A   1      -8.317   2.909 128.210  0.00  0.00    +0.005 C 
ATOM      9  C   LIG A   1      -8.139   1.690 127.275  0.00  0.00    +0.007 C 
ATOM     10  C   LIG A   1      -7.242   0.605 127.908  0.00  0.00    -0.026 C 
ATOM     11  C   LIG A   1      -5.846   1.210 128.194  0.00  0.00    +0.012 C 
ATOM     12  C   LIG A   1      -8.019   0.199 129.195  0.00  0.00    -0.001 C 
ATOM     13  C   LIG A   1      -7.451  -1.161 129.531  0.00  0.00    +0.004 C 
ATOM     14  C   LIG A   1      -7.466  -1.847 128.169  0.00  0.00    +0.004 C 
ATOM     15  C   LIG A   1      -7.141  -0.756 127.103  0.00  0.00    -0.002 C 
ATOM     16  O   LIG A   1      -7.802   1.862 133.692  0.00  0.00    -0.294 OA
ATOM     17  C   LIG A   1      -8.560   4.541 133.154  0.00  0.00    +0.074 C 
ATOM     18  C   LIG A   1      -9.186   5.869 132.721  0.00  0.00    +0.118 C 
ATOM     19  C   LIG A   1      -8.899   6.253 131.265  0.00  0.00    +0.032 C 
ATOM     20  C   LIG A   1      -9.060   5.096 130.264  0.00  0.00    +0.012 C 
ENDROOT
BRANCH  15  21
ATOM     21  C   LIG A   1      -5.810  -1.104 126.326  0.00  0.00    -0.010 C 
ATOM     22  C   LIG A   1      -5.672  -0.314 125.014  0.00  0.00    +0.008 C 
BRANCH  21  23
ATOM     23  C   LIG A   1      -5.689  -2.632 126.041  0.00  0.00    +0.003 C 
BRANCH  23  24
ATOM     24  C   LIG A   1      -6.088  -3.115 124.630  0.00  0.00    +0.000 C 
BRANCH  24  25
ATOM     25  C   LIG A   1      -7.511  -3.679 124.519  0.00  0.00    +0.003 C 
BRANCH  25  26
ATOM     26  C   LIG A   1      -8.505  -2.699 123.852  0.00  0.00    -0.017 C 
ATOM     27  C   LIG A   1      -7.892  -1.970 122.653  0.00  0.00    +0.007 C 
ATOM     28  C   LIG A   1      -9.761  -3.447 123.396  0.00  0.00    +0.007 C 
ENDBRANCH  25  26
ENDBRANCH  24  25
ENDBRANCH  23  24
ENDBRANCH  21  23
ENDBRANCH  15  21
BRANCH   3  29
ATOM     29  O   LIG A   1     -10.281   3.245 132.093  0.00  0.00    -0.380 OA
ATOM     30  H   LIG A   1     -10.464   2.361 132.471  0.00  0.00    +0.211 HD
ENDBRANCH   3  29
BRANCH  18  31
ATOM     31  O   LIG A   1     -10.600   5.805 132.911  0.00  0.00    -0.392 OA
ATOM     32  H   LIG A   1     -10.950   5.187 132.239  0.00  0.00    +0.210 HD
ENDBRANCH  18  31
TORSDOF 7
ENDMDL
MODEL 6
REMARK VINA RESULT:      -7.4      1.765      2.865
REMARK  Name = NuBBE_2361
REMARK  12 active torsions:
REMARK  status: ('A' for Active; 'I' for Inactive)
REMARK    1  A    between atoms: C_1  and  C_2
REMARK    2  A    between atoms: C_3  and  O_29
REMARK    3  A    between atoms: C_11  and  C_12
REMARK    4  A    between atoms: C_17  and  C_19
REMARK    5  A    between atoms: C_19  and  C_21
REMARK    6  A    between atoms: C_19  and  C_22
REMARK    7  A    between atoms: C_22  and  C_23
REMARK    8  A    between atoms: C_23  and  C_24
REMARK    9  A    between atoms: C_24  and  C_25
REMARK   10  A    between atoms: C_25  and  C_26
REMARK   11  A    between atoms: C_25  and  C_27
REMARK   12  A    between atoms: C_31  and  O_32
REMARK                            x       y       z     vdW  Elec       q    Type
REMARK                         _______ _______ _______ _____ _____    ______ ____
ROOT
ATOM      1  C   LIG A   1      -6.919  -1.566 124.804  0.00  0.00    +0.014 C 
ATOM      2  C   LIG A   1      -8.406  -1.343 125.215  0.00  0.00    +0.007 C 
ATOM      3  C   LIG A   1      -8.811   0.169 125.067  0.00  0.00    +0.131 C 
ATOM      4  C   LIG A   1      -8.123   1.025 126.126  0.00  0.00    +0.166 C 
ATOM      5  C   LIG A   1      -8.279   0.581 127.569  0.00  0.00    +0.081 C 
ATOM      6  C   LIG A   1      -7.800  -0.867 127.670  0.00  0.00    +0.003 C 
ATOM      7  C   LIG A   1      -8.631  -1.792 126.720  0.00  0.00    +0.002 C 
ATOM      8  C   LIG A   1      -8.443  -3.324 126.976  0.00  0.00    +0.005 C 
ATOM      9  C   LIG A   1      -8.189  -3.754 128.440  0.00  0.00    +0.007 C 
ATOM     10  C   LIG A   1      -7.151  -2.846 129.135  0.00  0.00    -0.026 C 
ATOM     11  C   LIG A   1      -5.813  -2.930 128.361  0.00  0.00    +0.012 C 
ATOM     12  C   LIG A   1      -7.811  -1.437 129.085  0.00  0.00    -0.001 C 
ATOM     13  C   LIG A   1      -7.087  -0.674 130.170  0.00  0.00    +0.004 C 
ATOM     14  C   LIG A   1      -7.103  -1.679 131.317  0.00  0.00    +0.004 C 
ATOM     15  C   LIG A   1      -6.951  -3.097 130.686  0.00  0.00    -0.002 C 
ATOM     16  O   LIG A   1      -7.530   2.088 125.840  0.00  0.00    -0.294 OA
ATOM     17  C   LIG A   1      -8.591   0.667 123.628  0.00  0.00    +0.074 C 
ATOM     18  C   LIG A   1      -9.375  -0.168 122.613  0.00  0.00    +0.118 C 
ATOM     19  C   LIG A   1      -9.207  -1.682 122.784  0.00  0.00    +0.032 C 
ATOM     20  C   LIG A   1      -9.300  -2.166 124.242  0.00  0.00    +0.012 C 
ENDROOT
BRANCH  15  21
ATOM     21  C   LIG A   1      -5.634  -3.805 131.197  0.00  0.00    -0.010 C 
ATOM     22  C   LIG A   1      -5.571  -5.289 130.798  0.00  0.00    +0.008 C 
BRANCH  21  23
ATOM     23  C   LIG A   1      -5.463  -3.664 132.741  0.00  0.00    +0.003 C 
BRANCH  23  24
ATOM     24  C   LIG A   1      -5.821  -4.895 133.601  0.00  0.00    +0.000 C 
BRANCH  24  25
ATOM     25  C   LIG A   1      -6.383  -4.569 134.992  0.00  0.00    +0.003 C 
BRANCH  25  26
ATOM     26  C   LIG A   1      -7.928  -4.591 135.046  0.00  0.00    -0.017 C 
ATOM     27  C   LIG A   1      -8.464  -4.591 136.481  0.00  0.00    +0.007 C 
ATOM     28  C   LIG A   1      -8.501  -3.385 134.297  0.00  0.00    +0.007 C 
ENDBRANCH  25  26
ENDBRANCH  24  25
ENDBRANCH  23  24
ENDBRANCH  21  23
ENDBRANCH  15  21
BRANCH   3  29
ATOM     29  O   LIG A   1     -10.221   0.317 125.356  0.00  0.00    -0.380 OA
ATOM     30  H   LIG A   1     -10.296   1.056 125.995  0.00  0.00    +0.211 HD
ENDBRANCH   3  29
BRANCH  18  31
ATOM     31  O   LIG A   1     -10.763   0.156 122.709  0.00  0.00    -0.392 OA
ATOM     32  H   LIG A   1     -10.839   1.123 122.586  0.00  0.00    +0.210 HD
ENDBRANCH  18  31
TORSDOF 7
ENDMDL
MODEL 7
REMARK VINA RESULT:      -7.4      4.680      8.469
REMARK  Name = NuBBE_2361
REMARK  12 active torsions:
REMARK  status: ('A' for Active; 'I' for Inactive)
REMARK    1  A    between atoms: C_1  and  C_2
REMARK    2  A    between atoms: C_3  and  O_29
REMARK    3  A    between atoms: C_11  and  C_12
REMARK    4  A    between atoms: C_17  and  C_19
REMARK    5  A    between atoms: C_19  and  C_21
REMARK    6  A    between atoms: C_19  and  C_22
REMARK    7  A    between atoms: C_22  and  C_23
REMARK    8  A    between atoms: C_23  and  C_24
REMARK    9  A    between atoms: C_24  and  C_25
REMARK   10  A    between atoms: C_25  and  C_26
REMARK   11  A    between atoms: C_25  and  C_27
REMARK   12  A    between atoms: C_31  and  O_32
REMARK                            x       y       z     vdW  Elec       q    Type
REMARK                         _______ _______ _______ _____ _____    ______ ____
ROOT
ATOM      1  C   LIG A   1      -3.141   3.460 128.106  0.00  0.00    +0.014 C 
ATOM      2  C   LIG A   1      -4.167   4.623 128.255  0.00  0.00    +0.007 C 
ATOM      3  C   LIG A   1      -4.476   4.911 129.769  0.00  0.00    +0.131 C 
ATOM      4  C   LIG A   1      -5.287   3.775 130.388  0.00  0.00    +0.166 C 
ATOM      5  C   LIG A   1      -6.557   3.371 129.662  0.00  0.00    +0.081 C 
ATOM      6  C   LIG A   1      -6.188   3.029 128.220  0.00  0.00    +0.003 C 
ATOM      7  C   LIG A   1      -5.521   4.256 127.514  0.00  0.00    +0.002 C 
ATOM      8  C   LIG A   1      -5.395   4.123 125.960  0.00  0.00    +0.005 C 
ATOM      9  C   LIG A   1      -6.517   3.336 125.240  0.00  0.00    +0.007 C 
ATOM     10  C   LIG A   1      -6.865   2.026 125.979  0.00  0.00    -0.026 C 
ATOM     11  C   LIG A   1      -5.603   1.133 126.041  0.00  0.00    +0.012 C 
ATOM     12  C   LIG A   1      -7.350   2.515 127.375  0.00  0.00    -0.001 C 
ATOM     13  C   LIG A   1      -8.152   1.345 127.896  0.00  0.00    +0.004 C 
ATOM     14  C   LIG A   1      -8.999   0.986 126.681  0.00  0.00    +0.004 C 
ATOM     15  C   LIG A   1      -8.119   1.237 125.418  0.00  0.00    -0.002 C 
ATOM     16  O   LIG A   1      -4.976   3.254 131.481  0.00  0.00    -0.294 OA
ATOM     17  C   LIG A   1      -3.192   5.251 130.546  0.00  0.00    +0.074 C 
ATOM     18  C   LIG A   1      -2.465   6.453 129.940  0.00  0.00    +0.118 C 
ATOM     19  C   LIG A   1      -2.275   6.372 128.421  0.00  0.00    +0.032 C 
ATOM     20  C   LIG A   1      -3.525   5.907 127.654  0.00  0.00    +0.012 C 
ENDROOT
BRANCH  15  21
ATOM     21  C   LIG A   1      -7.898  -0.103 124.609  0.00  0.00    -0.010 C 
ATOM     22  C   LIG A   1      -8.625  -0.098 123.254  0.00  0.00    +0.008 C 
BRANCH  21  23
ATOM     23  C   LIG A   1      -8.323  -1.355 125.436  0.00  0.00    +0.003 C 
BRANCH  23  24
ATOM     24  C   LIG A   1      -7.231  -2.406 125.726  0.00  0.00    +0.000 C 
BRANCH  24  25
ATOM     25  C   LIG A   1      -6.866  -3.303 124.535  0.00  0.00    +0.003 C 
BRANCH  25  26
ATOM     26  C   LIG A   1      -5.516  -2.929 123.881  0.00  0.00    -0.017 C 
ATOM     27  C   LIG A   1      -4.581  -4.133 123.738  0.00  0.00    +0.007 C 
ATOM     28  C   LIG A   1      -5.749  -2.308 122.501  0.00  0.00    +0.007 C 
ENDBRANCH  25  26
ENDBRANCH  24  25
ENDBRANCH  23  24
ENDBRANCH  21  23
ENDBRANCH  15  21
BRANCH   3  29
ATOM     29  O   LIG A   1      -5.349   6.061 129.870  0.00  0.00    -0.380 OA
ATOM     30  H   LIG A   1      -5.524   6.356 128.952  0.00  0.00    +0.211 HD
ENDBRANCH   3  29
BRANCH  18  31
ATOM     31  O   LIG A   1      -3.188   7.645 130.251  0.00  0.00    -0.392 OA
ATOM     32  H   LIG A   1      -3.647   7.921 129.433  0.00  0.00    +0.210 HD
ENDBRANCH  18  31
TORSDOF 7
ENDMDL
MODEL 8
REMARK VINA RESULT:      -7.4      3.801      8.087
REMARK  Name = NuBBE_2361
REMARK  12 active torsions:
REMARK  status: ('A' for Active; 'I' for Inactive)
REMARK    1  A    between atoms: C_1  and  C_2
REMARK    2  A    between atoms: C_3  and  O_29
REMARK    3  A    between atoms: C_11  and  C_12
REMARK    4  A    between atoms: C_17  and  C_19
REMARK    5  A    between atoms: C_19  and  C_21
REMARK    6  A    between atoms: C_19  and  C_22
REMARK    7  A    between atoms: C_22  and  C_23
REMARK    8  A    between atoms: C_23  and  C_24
REMARK    9  A    between atoms: C_24  and  C_25
REMARK   10  A    between atoms: C_25  and  C_26
REMARK   11  A    between atoms: C_25  and  C_27
REMARK   12  A    between atoms: C_31  and  O_32
REMARK                            x       y       z     vdW  Elec       q    Type
REMARK                         _______ _______ _______ _____ _____    ______ ____
ROOT
ATOM      1  C   LIG A   1      -3.169   3.309 128.614  0.00  0.00    +0.014 C 
ATOM      2  C   LIG A   1      -4.137   4.512 128.401  0.00  0.00    +0.007 C 
ATOM      3  C   LIG A   1      -4.717   5.017 129.772  0.00  0.00    +0.131 C 
ATOM      4  C   LIG A   1      -5.696   4.003 130.359  0.00  0.00    +0.166 C 
ATOM      5  C   LIG A   1      -6.822   3.540 129.453  0.00  0.00    +0.081 C 
ATOM      6  C   LIG A   1      -6.200   2.990 128.171  0.00  0.00    +0.003 C 
ATOM      7  C   LIG A   1      -5.340   4.086 127.459  0.00  0.00    +0.002 C 
ATOM      8  C   LIG A   1      -4.923   3.734 125.992  0.00  0.00    +0.005 C 
ATOM      9  C   LIG A   1      -5.926   2.889 125.172  0.00  0.00    +0.007 C 
ATOM     10  C   LIG A   1      -6.485   1.706 125.990  0.00  0.00    -0.026 C 
ATOM     11  C   LIG A   1      -5.312   0.792 126.420  0.00  0.00    +0.012 C 
ATOM     12  C   LIG A   1      -7.203   2.399 127.185  0.00  0.00    -0.001 C 
ATOM     13  C   LIG A   1      -8.156   1.337 127.683  0.00  0.00    +0.004 C 
ATOM     14  C   LIG A   1      -8.771   0.838 126.380  0.00  0.00    +0.004 C 
ATOM     15  C   LIG A   1      -7.650   0.884 125.297  0.00  0.00    -0.002 C 
ATOM     16  O   LIG A   1      -5.633   3.630 131.550  0.00  0.00    -0.294 OA
ATOM     17  C   LIG A   1      -3.591   5.422 130.739  0.00  0.00    +0.074 C 
ATOM     18  C   LIG A   1      -2.693   6.506 130.140  0.00  0.00    +0.118 C 
ATOM     19  C   LIG A   1      -2.216   6.209 128.713  0.00  0.00    +0.032 C 
ATOM     20  C   LIG A   1      -3.319   5.680 127.779  0.00  0.00    +0.012 C 
ENDROOT
BRANCH  15  21
ATOM     21  C   LIG A   1      -7.352  -0.561 124.731  0.00  0.00    -0.010 C 
ATOM     22  C   LIG A   1      -7.021  -0.547 123.229  0.00  0.00    +0.008 C 
BRANCH  21  23
ATOM     23  C   LIG A   1      -8.531  -1.544 125.005  0.00  0.00    +0.003 C 
BRANCH  23  24
ATOM     24  C   LIG A   1      -8.238  -2.750 125.923  0.00  0.00    +0.000 C 
BRANCH  24  25
ATOM     25  C   LIG A   1      -7.302  -2.451 127.103  0.00  0.00    +0.003 C 
BRANCH  25  26
ATOM     26  C   LIG A   1      -7.729  -3.151 128.413  0.00  0.00    -0.017 C 
ATOM     27  C   LIG A   1      -7.919  -2.166 129.569  0.00  0.00    +0.007 C 
ATOM     28  C   LIG A   1      -9.030  -3.929 128.198  0.00  0.00    +0.007 C 
ENDBRANCH  25  26
ENDBRANCH  24  25
ENDBRANCH  23  24
ENDBRANCH  21  23
ENDBRANCH  15  21
BRANCH   3  29
ATOM     29  O   LIG A   1      -5.525   6.195 129.545  0.00  0.00    -0.380 OA
ATOM     30  H   LIG A   1      -6.154   5.965 128.831  0.00  0.00    +0.211 HD
ENDBRANCH   3  29
BRANCH  18  31
ATOM     31  O   LIG A   1      -3.393   7.751 130.141  0.00  0.00    -0.392 OA
ATOM     32  H   LIG A   1      -3.004   8.298 129.430  0.00  0.00    +0.210 HD
ENDBRANCH  18  31
TORSDOF 7
ENDMDL
MODEL 9
REMARK VINA RESULT:      -7.3      3.924      8.695
REMARK  Name = NuBBE_2361
REMARK  12 active torsions:
REMARK  status: ('A' for Active; 'I' for Inactive)
REMARK    1  A    between atoms: C_1  and  C_2
REMARK    2  A    between atoms: C_3  and  O_29
REMARK    3  A    between atoms: C_11  and  C_12
REMARK    4  A    between atoms: C_17  and  C_19
REMARK    5  A    between atoms: C_19  and  C_21
REMARK    6  A    between atoms: C_19  and  C_22
REMARK    7  A    between atoms: C_22  and  C_23
REMARK    8  A    between atoms: C_23  and  C_24
REMARK    9  A    between atoms: C_24  and  C_25
REMARK   10  A    between atoms: C_25  and  C_26
REMARK   11  A    between atoms: C_25  and  C_27
REMARK   12  A    between atoms: C_31  and  O_32
REMARK                            x       y       z     vdW  Elec       q    Type
REMARK                         _______ _______ _______ _____ _____    ______ ____
ROOT
ATOM      1  C   LIG A   1      -5.771  -2.527 134.271  0.00  0.00    +0.014 C 
ATOM      2  C   LIG A   1      -4.441  -3.175 133.780  0.00  0.00    +0.007 C 
ATOM      3  C   LIG A   1      -3.218  -2.227 134.056  0.00  0.00    +0.131 C 
ATOM      4  C   LIG A   1      -3.258  -1.004 133.143  0.00  0.00    +0.166 C 
ATOM      5  C   LIG A   1      -3.390  -1.268 131.655  0.00  0.00    +0.081 C 
ATOM      6  C   LIG A   1      -4.634  -2.128 131.437  0.00  0.00    +0.003 C 
ATOM      7  C   LIG A   1      -4.520  -3.475 132.225  0.00  0.00    +0.002 C 
ATOM      8  C   LIG A   1      -5.581  -4.554 131.825  0.00  0.00    +0.005 C 
ATOM      9  C   LIG A   1      -6.034  -4.563 130.345  0.00  0.00    +0.007 C 
ATOM     10  C   LIG A   1      -6.326  -3.139 129.825  0.00  0.00    -0.026 C 
ATOM     11  C   LIG A   1      -7.456  -2.514 130.679  0.00  0.00    +0.012 C 
ATOM     12  C   LIG A   1      -4.958  -2.411 129.974  0.00  0.00    -0.001 C 
ATOM     13  C   LIG A   1      -5.083  -1.239 129.028  0.00  0.00    +0.004 C 
ATOM     14  C   LIG A   1      -5.662  -1.905 127.785  0.00  0.00    +0.004 C 
ATOM     15  C   LIG A   1      -6.629  -3.026 128.274  0.00  0.00    -0.002 C 
ATOM     16  O   LIG A   1      -3.105   0.157 133.579  0.00  0.00    -0.294 OA
ATOM     17  C   LIG A   1      -3.105  -1.881 135.551  0.00  0.00    +0.074 C 
ATOM     18  C   LIG A   1      -2.976  -3.137 136.415  0.00  0.00    +0.118 C 
ATOM     19  C   LIG A   1      -4.009  -4.225 136.100  0.00  0.00    +0.032 C 
ATOM     20  C   LIG A   1      -4.215  -4.481 134.596  0.00  0.00    +0.012 C 
ENDROOT
BRANCH  15  21
ATOM     21  C   LIG A   1      -8.107  -2.750 127.787  0.00  0.00    -0.010 C 
ATOM     22  C   LIG A   1      -8.986  -4.011 127.831  0.00  0.00    +0.008 C 
BRANCH  21  23
ATOM     23  C   LIG A   1      -8.138  -2.131 126.356  0.00  0.00    +0.003 C 
BRANCH  23  24
ATOM     24  C   LIG A   1      -8.638  -3.038 125.212  0.00  0.00    +0.000 C 
BRANCH  24  25
ATOM     25  C   LIG A   1      -7.531  -3.761 124.431  0.00  0.00    +0.003 C 
BRANCH  25  26
ATOM     26  C   LIG A   1      -6.278  -2.886 124.199  0.00  0.00    -0.017 C 
ATOM     27  C   LIG A   1      -5.011  -3.722 123.994  0.00  0.00    +0.007 C 
ATOM     28  C   LIG A   1      -6.482  -1.978 122.984  0.00  0.00    +0.007 C 
ENDBRANCH  25  26
ENDBRANCH  24  25
ENDBRANCH  23  24
ENDBRANCH  21  23
ENDBRANCH  15  21
BRANCH   3  29
ATOM     29  O   LIG A   1      -1.994  -2.903 133.684  0.00  0.00    -0.380 OA
ATOM     30  H   LIG A   1      -1.987  -3.750 134.176  0.00  0.00    +0.211 HD
ENDBRANCH   3  29
BRANCH  18  31
ATOM     31  O   LIG A   1      -1.666  -3.686 136.254  0.00  0.00    -0.392 OA
ATOM     32  H   LIG A   1      -1.118  -3.330 136.981  0.00  0.00    +0.210 HD
ENDBRANCH  18  31
TORSDOF 7
ENDMDL
