MODEL 1
REMARK VINA RESULT:      -6.3      0.000      0.000
REMARK  Name = NuBBE_1115
REMARK  7 active torsions:
REMARK  status: ('A' for Active; 'I' for Inactive)
REMARK    1  A    between atoms: O_1  and  C_2
REMARK    2  A    between atoms: C_2  and  C_3
REMARK    3  A    between atoms: C_5  and  O_6
REMARK    4  A    between atoms: O_6  and  C_7
REMARK    5  A    between atoms: C_8  and  O_9
REMARK    6  A    between atoms: C_10  and  O_11
REMARK    7  A    between atoms: O_11  and  C_12
REMARK                            x       y       z     vdW  Elec       q    Type
REMARK                         _______ _______ _______ _____ _____    ______ ____
ROOT
ATOM      1  C   LIG A   1     -13.040   9.410 129.640  0.00  0.00    +0.066 A 
ATOM      2  C   LIG A   1     -12.806   8.869 128.370  0.00  0.00    +0.064 A 
ATOM      3  C   LIG A   1     -12.459   7.520 128.219  0.00  0.00    +0.166 A 
ATOM      4  C   LIG A   1     -12.308   6.737 129.366  0.00  0.00    +0.201 A 
ATOM      5  C   LIG A   1     -12.530   7.274 130.648  0.00  0.00    +0.166 A 
ATOM      6  C   LIG A   1     -12.899   8.610 130.782  0.00  0.00    +0.064 A 
ENDROOT
BRANCH   1   7
ATOM      7  C   LIG A   1     -13.383  10.840 129.836  0.00  0.00    +0.337 C 
ATOM      8  O   LIG A   1     -13.349  11.378 130.934  0.00  0.00    -0.245 OA
BRANCH   7   9
ATOM      9  O   LIG A   1     -13.780  11.476 128.718  0.00  0.00    -0.477 OA
ATOM     10  H   LIG A   1     -14.713  11.761 128.702  0.00  0.00    +0.295 HD
ENDBRANCH   7   9
ENDBRANCH   1   7
BRANCH   3  11
ATOM     11  O   LIG A   1     -12.301   7.151 126.910  0.00  0.00    -0.491 OA
ATOM     12  C   LIG A   1     -11.083   7.503 126.267  0.00  0.00    +0.277 C 
ENDBRANCH   3  11
BRANCH   4  13
ATOM     13  O   LIG A   1     -11.917   5.424 129.301  0.00  0.00    -0.501 OA
ATOM     14  H   LIG A   1     -12.475   5.020 128.607  0.00  0.00    +0.292 HD
ENDBRANCH   4  13
BRANCH   5  15
ATOM     15  O   LIG A   1     -12.337   6.385 131.677  0.00  0.00    -0.491 OA
ATOM     16  C   LIG A   1     -11.036   6.349 132.254  0.00  0.00    +0.277 C 
ENDBRANCH   5  15
TORSDOF 5
ENDMDL
MODEL 2
REMARK VINA RESULT:      -5.9      1.446      3.875
REMARK  Name = NuBBE_1115
REMARK  7 active torsions:
REMARK  status: ('A' for Active; 'I' for Inactive)
REMARK    1  A    between atoms: O_1  and  C_2
REMARK    2  A    between atoms: C_2  and  C_3
REMARK    3  A    between atoms: C_5  and  O_6
REMARK    4  A    between atoms: O_6  and  C_7
REMARK    5  A    between atoms: C_8  and  O_9
REMARK    6  A    between atoms: C_10  and  O_11
REMARK    7  A    between atoms: O_11  and  C_12
REMARK                            x       y       z     vdW  Elec       q    Type
REMARK                         _______ _______ _______ _____ _____    ______ ____
ROOT
ATOM      1  C   LIG A   1     -11.190   7.536 127.887  0.00  0.00    +0.066 A 
ATOM      2  C   LIG A   1     -12.159   8.541 127.994  0.00  0.00    +0.064 A 
ATOM      3  C   LIG A   1     -12.790   8.799 129.218  0.00  0.00    +0.166 A 
ATOM      4  C   LIG A   1     -12.463   8.003 130.319  0.00  0.00    +0.201 A 
ATOM      5  C   LIG A   1     -11.499   6.983 130.219  0.00  0.00    +0.166 A 
ATOM      6  C   LIG A   1     -10.861   6.754 129.002  0.00  0.00    +0.064 A 
ENDROOT
BRANCH   1   7
ATOM      7  C   LIG A   1     -10.523   7.220 126.601  0.00  0.00    +0.337 C 
ATOM      8  O   LIG A   1      -9.713   6.310 126.488  0.00  0.00    -0.245 OA
BRANCH   7   9
ATOM      9  O   LIG A   1     -10.846   8.046 125.587  0.00  0.00    -0.477 OA
ATOM     10  H   LIG A   1     -10.404   8.916 125.594  0.00  0.00    +0.295 HD
ENDBRANCH   7   9
ENDBRANCH   1   7
BRANCH   3  11
ATOM     11  O   LIG A   1     -13.683   9.835 129.153  0.00  0.00    -0.491 OA
ATOM     12  C   LIG A   1     -13.402  10.999 129.919  0.00  0.00    +0.277 C 
ENDBRANCH   3  11
BRANCH   4  13
ATOM     13  O   LIG A   1     -13.078   8.160 131.535  0.00  0.00    -0.501 OA
ATOM     14  H   LIG A   1     -12.745   7.428 132.092  0.00  0.00    +0.292 HD
ENDBRANCH   4  13
BRANCH   5  15
ATOM     15  O   LIG A   1     -11.290   6.283 131.382  0.00  0.00    -0.491 OA
ATOM     16  C   LIG A   1      -9.938   6.129 131.801  0.00  0.00    +0.277 C 
ENDBRANCH   5  15
TORSDOF 5
ENDMDL
MODEL 3
REMARK VINA RESULT:      -5.7      1.584      4.374
REMARK  Name = NuBBE_1115
REMARK  7 active torsions:
REMARK  status: ('A' for Active; 'I' for Inactive)
REMARK    1  A    between atoms: O_1  and  C_2
REMARK    2  A    between atoms: C_2  and  C_3
REMARK    3  A    between atoms: C_5  and  O_6
REMARK    4  A    between atoms: O_6  and  C_7
REMARK    5  A    between atoms: C_8  and  O_9
REMARK    6  A    between atoms: C_10  and  O_11
REMARK    7  A    between atoms: O_11  and  C_12
REMARK                            x       y       z     vdW  Elec       q    Type
REMARK                         _______ _______ _______ _____ _____    ______ ____
ROOT
ATOM      1  C   LIG A   1     -11.278   7.348 128.020  0.00  0.00    +0.066 A 
ATOM      2  C   LIG A   1     -11.100   6.321 128.955  0.00  0.00    +0.064 A 
ATOM      3  C   LIG A   1     -11.696   6.394 130.221  0.00  0.00    +0.166 A 
ATOM      4  C   LIG A   1     -12.438   7.533 130.545  0.00  0.00    +0.201 A 
ATOM      5  C   LIG A   1     -12.614   8.575 129.616  0.00  0.00    +0.166 A 
ATOM      6  C   LIG A   1     -12.036   8.479 128.353  0.00  0.00    +0.064 A 
ENDROOT
BRANCH   1   7
ATOM      7  C   LIG A   1     -10.639   7.314 126.682  0.00  0.00    +0.337 C 
ATOM      8  O   LIG A   1     -10.947   8.090 125.788  0.00  0.00    -0.245 OA
BRANCH   7   9
ATOM      9  O   LIG A   1      -9.732   6.331 126.522  0.00  0.00    -0.477 OA
ATOM     10  H   LIG A   1      -8.959   6.369 127.116  0.00  0.00    +0.295 HD
ENDBRANCH   7   9
ENDBRANCH   1   7
BRANCH   3  11
ATOM     11  O   LIG A   1     -11.447   5.293 130.995  0.00  0.00    -0.491 OA
ATOM     12  C   LIG A   1     -10.818   4.178 130.376  0.00  0.00    +0.277 C 
ENDBRANCH   3  11
BRANCH   4  13
ATOM     13  O   LIG A   1     -13.006   7.700 131.783  0.00  0.00    -0.501 OA
ATOM     14  H   LIG A   1     -13.953   7.487 131.666  0.00  0.00    +0.292 HD
ENDBRANCH   4  13
BRANCH   5  15
ATOM     15  O   LIG A   1     -13.361   9.630 130.081  0.00  0.00    -0.491 OA
ATOM     16  C   LIG A   1     -13.496  10.749 129.212  0.00  0.00    +0.277 C 
ENDBRANCH   5  15
TORSDOF 5
ENDMDL
MODEL 4
REMARK VINA RESULT:      -5.2      3.566      6.184
REMARK  Name = NuBBE_1115
REMARK  7 active torsions:
REMARK  status: ('A' for Active; 'I' for Inactive)
REMARK    1  A    between atoms: O_1  and  C_2
REMARK    2  A    between atoms: C_2  and  C_3
REMARK    3  A    between atoms: C_5  and  O_6
REMARK    4  A    between atoms: O_6  and  C_7
REMARK    5  A    between atoms: C_8  and  O_9
REMARK    6  A    between atoms: C_10  and  O_11
REMARK    7  A    between atoms: O_11  and  C_12
REMARK                            x       y       z     vdW  Elec       q    Type
REMARK                         _______ _______ _______ _____ _____    ______ ____
ROOT
ATOM      1  C   LIG A   1      -8.912   5.493 132.641  0.00  0.00    +0.066 A 
ATOM      2  C   LIG A   1      -7.800   6.093 132.037  0.00  0.00    +0.064 A 
ATOM      3  C   LIG A   1      -7.958   6.951 130.941  0.00  0.00    +0.166 A 
ATOM      4  C   LIG A   1      -9.244   7.162 130.438  0.00  0.00    +0.201 A 
ATOM      5  C   LIG A   1     -10.366   6.556 131.032  0.00  0.00    +0.166 A 
ATOM      6  C   LIG A   1     -10.198   5.724 132.136  0.00  0.00    +0.064 A 
ENDROOT
BRANCH   1   7
ATOM      7  C   LIG A   1      -8.777   4.558 133.786  0.00  0.00    +0.337 C 
ATOM      8  O   LIG A   1      -7.709   4.362 134.350  0.00  0.00    -0.245 OA
BRANCH   7   9
ATOM      9  O   LIG A   1      -9.912   3.913 134.116  0.00  0.00    -0.477 OA
ATOM     10  H   LIG A   1     -10.374   3.469 133.380  0.00  0.00    +0.295 HD
ENDBRANCH   7   9
ENDBRANCH   1   7
BRANCH   3  11
ATOM     11  O   LIG A   1      -6.774   7.476 130.496  0.00  0.00    -0.491 OA
ATOM     12  C   LIG A   1      -5.571   6.931 131.023  0.00  0.00    +0.277 C 
ENDBRANCH   3  11
BRANCH   4  13
ATOM     13  O   LIG A   1      -9.472   7.946 129.335  0.00  0.00    -0.501 OA
ATOM     14  H   LIG A   1     -10.338   8.373 129.493  0.00  0.00    +0.292 HD
ENDBRANCH   4  13
BRANCH   5  15
ATOM     15  O   LIG A   1     -11.562   6.853 130.423  0.00  0.00    -0.491 OA
ATOM     16  C   LIG A   1     -12.618   7.292 131.270  0.00  0.00    +0.277 C 
ENDBRANCH   5  15
TORSDOF 5
ENDMDL
MODEL 5
REMARK VINA RESULT:      -5.0      2.352      4.479
REMARK  Name = NuBBE_1115
REMARK  7 active torsions:
REMARK  status: ('A' for Active; 'I' for Inactive)
REMARK    1  A    between atoms: O_1  and  C_2
REMARK    2  A    between atoms: C_2  and  C_3
REMARK    3  A    between atoms: C_5  and  O_6
REMARK    4  A    between atoms: O_6  and  C_7
REMARK    5  A    between atoms: C_8  and  O_9
REMARK    6  A    between atoms: C_10  and  O_11
REMARK    7  A    between atoms: O_11  and  C_12
REMARK                            x       y       z     vdW  Elec       q    Type
REMARK                         _______ _______ _______ _____ _____    ______ ____
ROOT
ATOM      1  C   LIG A   1     -10.620   6.634 130.503  0.00  0.00    +0.066 A 
ATOM      2  C   LIG A   1      -9.747   5.879 129.710  0.00  0.00    +0.064 A 
ATOM      3  C   LIG A   1      -9.662   6.100 128.329  0.00  0.00    +0.166 A 
ATOM      4  C   LIG A   1     -10.499   7.060 127.754  0.00  0.00    +0.201 A 
ATOM      5  C   LIG A   1     -11.388   7.815 128.541  0.00  0.00    +0.166 A 
ATOM      6  C   LIG A   1     -11.444   7.603 129.916  0.00  0.00    +0.064 A 
ENDROOT
BRANCH   1   7
ATOM      7  C   LIG A   1     -10.752   6.407 131.963  0.00  0.00    +0.337 C 
ATOM      8  O   LIG A   1      -9.797   6.463 132.725  0.00  0.00    -0.245 OA
BRANCH   7   9
ATOM      9  O   LIG A   1     -11.997   6.088 132.367  0.00  0.00    -0.477 OA
ATOM     10  H   LIG A   1     -12.130   6.046 133.333  0.00  0.00    +0.295 HD
ENDBRANCH   7   9
ENDBRANCH   1   7
BRANCH   3  11
ATOM     11  O   LIG A   1      -8.737   5.301 127.714  0.00  0.00    -0.491 OA
ATOM     12  C   LIG A   1      -8.125   4.279 128.491  0.00  0.00    +0.277 C 
ENDBRANCH   3  11
BRANCH   4  13
ATOM     13  O   LIG A   1     -10.513   7.293 126.402  0.00  0.00    -0.501 OA
ATOM     14  H   LIG A   1      -9.654   6.960 126.072  0.00  0.00    +0.292 HD
ENDBRANCH   4  13
BRANCH   5  15
ATOM     15  O   LIG A   1     -12.149   8.714 127.833  0.00  0.00    -0.491 OA
ATOM     16  C   LIG A   1     -13.548   8.715 128.100  0.00  0.00    +0.277 C 
ENDBRANCH   5  15
TORSDOF 5
ENDMDL
MODEL 6
REMARK VINA RESULT:      -4.9      3.570      6.284
REMARK  Name = NuBBE_1115
REMARK  7 active torsions:
REMARK  status: ('A' for Active; 'I' for Inactive)
REMARK    1  A    between atoms: O_1  and  C_2
REMARK    2  A    between atoms: C_2  and  C_3
REMARK    3  A    between atoms: C_5  and  O_6
REMARK    4  A    between atoms: O_6  and  C_7
REMARK    5  A    between atoms: C_8  and  O_9
REMARK    6  A    between atoms: C_10  and  O_11
REMARK    7  A    between atoms: O_11  and  C_12
REMARK                            x       y       z     vdW  Elec       q    Type
REMARK                         _______ _______ _______ _____ _____    ______ ____
ROOT
ATOM      1  C   LIG A   1      -9.053   5.246 132.635  0.00  0.00    +0.066 A 
ATOM      2  C   LIG A   1     -10.287   5.550 132.047  0.00  0.00    +0.064 A 
ATOM      3  C   LIG A   1     -10.368   6.447 130.975  0.00  0.00    +0.166 A 
ATOM      4  C   LIG A   1      -9.195   7.065 130.531  0.00  0.00    +0.201 A 
ATOM      5  C   LIG A   1      -7.952   6.774 131.122  0.00  0.00    +0.166 A 
ATOM      6  C   LIG A   1      -7.883   5.862 132.171  0.00  0.00    +0.064 A 
ENDROOT
BRANCH   1   7
ATOM      7  C   LIG A   1      -8.937   4.321 133.789  0.00  0.00    +0.337 C 
ATOM      8  O   LIG A   1      -9.146   3.120 133.690  0.00  0.00    -0.245 OA
BRANCH   7   9
ATOM      9  O   LIG A   1      -8.632   4.921 134.956  0.00  0.00    -0.477 OA
ATOM     10  H   LIG A   1      -7.684   5.098 135.105  0.00  0.00    +0.295 HD
ENDBRANCH   7   9
ENDBRANCH   1   7
BRANCH   3  11
ATOM     11  O   LIG A   1     -11.642   6.603 130.500  0.00  0.00    -0.491 OA
ATOM     12  C   LIG A   1     -12.588   7.243 131.347  0.00  0.00    +0.277 C 
ENDBRANCH   3  11
BRANCH   4  13
ATOM     13  O   LIG A   1      -9.203   7.995 129.523  0.00  0.00    -0.501 OA
ATOM     14  H   LIG A   1      -8.278   8.044 129.207  0.00  0.00    +0.292 HD
ENDBRANCH   4  13
BRANCH   5  15
ATOM     15  O   LIG A   1      -6.892   7.464 130.584  0.00  0.00    -0.491 OA
ATOM     16  C   LIG A   1      -5.591   6.986 130.905  0.00  0.00    +0.277 C 
ENDBRANCH   5  15
TORSDOF 5
ENDMDL
MODEL 7
REMARK VINA RESULT:      -4.9      2.351      3.099
REMARK  Name = NuBBE_1115
REMARK  7 active torsions:
REMARK  status: ('A' for Active; 'I' for Inactive)
REMARK    1  A    between atoms: O_1  and  C_2
REMARK    2  A    between atoms: C_2  and  C_3
REMARK    3  A    between atoms: C_5  and  O_6
REMARK    4  A    between atoms: O_6  and  C_7
REMARK    5  A    between atoms: C_8  and  O_9
REMARK    6  A    between atoms: C_10  and  O_11
REMARK    7  A    between atoms: O_11  and  C_12
REMARK                            x       y       z     vdW  Elec       q    Type
REMARK                         _______ _______ _______ _____ _____    ______ ____
ROOT
ATOM      1  C   LIG A   1     -11.570   7.082 130.381  0.00  0.00    +0.066 A 
ATOM      2  C   LIG A   1     -11.224   7.168 129.027  0.00  0.00    +0.064 A 
ATOM      3  C   LIG A   1     -10.099   6.496 128.532  0.00  0.00    +0.166 A 
ATOM      4  C   LIG A   1      -9.305   5.773 129.427  0.00  0.00    +0.201 A 
ATOM      5  C   LIG A   1      -9.637   5.690 130.791  0.00  0.00    +0.166 A 
ATOM      6  C   LIG A   1     -10.772   6.342 131.266  0.00  0.00    +0.064 A 
ENDROOT
BRANCH   1   7
ATOM      7  C   LIG A   1     -12.739   7.802 130.942  0.00  0.00    +0.337 C 
ATOM      8  O   LIG A   1     -13.481   7.300 131.775  0.00  0.00    -0.245 OA
BRANCH   7   9
ATOM      9  O   LIG A   1     -12.940   9.029 130.424  0.00  0.00    -0.477 OA
ATOM     10  H   LIG A   1     -13.566   9.074 129.676  0.00  0.00    +0.295 HD
ENDBRANCH   7   9
ENDBRANCH   1   7
BRANCH   3  11
ATOM     11  O   LIG A   1      -9.927   6.659 127.184  0.00  0.00    -0.491 OA
ATOM     12  C   LIG A   1     -10.867   7.471 126.492  0.00  0.00    +0.277 C 
ENDBRANCH   3  11
BRANCH   4  13
ATOM     13  O   LIG A   1      -8.158   5.135 129.026  0.00  0.00    -0.501 OA
ATOM     14  H   LIG A   1      -8.403   4.644 128.216  0.00  0.00    +0.292 HD
ENDBRANCH   4  13
BRANCH   5  15
ATOM     15  O   LIG A   1      -8.759   4.951 131.546  0.00  0.00    -0.491 OA
ATOM     16  C   LIG A   1      -9.259   3.740 132.102  0.00  0.00    +0.277 C 
ENDBRANCH   5  15
TORSDOF 5
ENDMDL
MODEL 8
REMARK VINA RESULT:      -4.9      7.731      9.853
REMARK  Name = NuBBE_1115
REMARK  7 active torsions:
REMARK  status: ('A' for Active; 'I' for Inactive)
REMARK    1  A    between atoms: O_1  and  C_2
REMARK    2  A    between atoms: C_2  and  C_3
REMARK    3  A    between atoms: C_5  and  O_6
REMARK    4  A    between atoms: O_6  and  C_7
REMARK    5  A    between atoms: C_8  and  O_9
REMARK    6  A    between atoms: C_10  and  O_11
REMARK    7  A    between atoms: O_11  and  C_12
REMARK                            x       y       z     vdW  Elec       q    Type
REMARK                         _______ _______ _______ _____ _____    ______ ____
ROOT
ATOM      1  C   LIG A   1      -6.273   3.876 123.047  0.00  0.00    +0.066 A 
ATOM      2  C   LIG A   1      -5.733   4.626 124.099  0.00  0.00    +0.064 A 
ATOM      3  C   LIG A   1      -6.365   4.663 125.349  0.00  0.00    +0.166 A 
ATOM      4  C   LIG A   1      -7.568   3.972 125.510  0.00  0.00    +0.201 A 
ATOM      5  C   LIG A   1      -8.124   3.224 124.456  0.00  0.00    +0.166 A 
ATOM      6  C   LIG A   1      -7.473   3.175 123.226  0.00  0.00    +0.064 A 
ENDROOT
BRANCH   1   7
ATOM      7  C   LIG A   1      -5.644   3.836 121.705  0.00  0.00    +0.337 C 
ATOM      8  O   LIG A   1      -5.671   2.839 120.997  0.00  0.00    -0.245 OA
BRANCH   7   9
ATOM      9  O   LIG A   1      -5.002   4.968 121.356  0.00  0.00    -0.477 OA
ATOM     10  H   LIG A   1      -4.032   4.952 121.458  0.00  0.00    +0.295 HD
ENDBRANCH   7   9
ENDBRANCH   1   7
BRANCH   3  11
ATOM     11  O   LIG A   1      -5.686   5.415 126.270  0.00  0.00    -0.491 OA
ATOM     12  C   LIG A   1      -4.611   4.796 126.965  0.00  0.00    +0.277 C 
ENDBRANCH   3  11
BRANCH   4  13
ATOM     13  O   LIG A   1      -8.272   4.006 126.687  0.00  0.00    -0.501 OA
ATOM     14  H   LIG A   1      -7.738   3.492 127.326  0.00  0.00    +0.292 HD
ENDBRANCH   4  13
BRANCH   5  15
ATOM     15  O   LIG A   1      -9.312   2.605 124.764  0.00  0.00    -0.491 OA
ATOM     16  C   LIG A   1      -9.815   1.678 123.807  0.00  0.00    +0.277 C 
ENDBRANCH   5  15
TORSDOF 5
ENDMDL
MODEL 9
REMARK VINA RESULT:      -4.9      3.830      6.454
REMARK  Name = NuBBE_1115
REMARK  7 active torsions:
REMARK  status: ('A' for Active; 'I' for Inactive)
REMARK    1  A    between atoms: O_1  and  C_2
REMARK    2  A    between atoms: C_2  and  C_3
REMARK    3  A    between atoms: C_5  and  O_6
REMARK    4  A    between atoms: O_6  and  C_7
REMARK    5  A    between atoms: C_8  and  O_9
REMARK    6  A    between atoms: C_10  and  O_11
REMARK    7  A    between atoms: O_11  and  C_12
REMARK                            x       y       z     vdW  Elec       q    Type
REMARK                         _______ _______ _______ _____ _____    ______ ____
ROOT
ATOM      1  C   LIG A   1      -7.528   6.574 131.386  0.00  0.00    +0.066 A 
ATOM      2  C   LIG A   1      -7.938   5.690 132.391  0.00  0.00    +0.064 A 
ATOM      3  C   LIG A   1      -9.294   5.388 132.568  0.00  0.00    +0.166 A 
ATOM      4  C   LIG A   1     -10.232   6.021 131.749  0.00  0.00    +0.201 A 
ATOM      5  C   LIG A   1      -9.831   6.920 130.743  0.00  0.00    +0.166 A 
ATOM      6  C   LIG A   1      -8.478   7.192 130.561  0.00  0.00    +0.064 A 
ENDROOT
BRANCH   1   7
ATOM      7  C   LIG A   1      -6.102   6.936 131.189  0.00  0.00    +0.337 C 
ATOM      8  O   LIG A   1      -5.720   7.602 130.237  0.00  0.00    -0.245 OA
BRANCH   7   9
ATOM      9  O   LIG A   1      -5.265   6.429 132.114  0.00  0.00    -0.477 OA
ATOM     10  H   LIG A   1      -4.472   6.964 132.304  0.00  0.00    +0.295 HD
ENDBRANCH   7   9
ENDBRANCH   1   7
BRANCH   3  11
ATOM     11  O   LIG A   1      -9.515   4.482 133.570  0.00  0.00    -0.491 OA
ATOM     12  C   LIG A   1      -8.567   3.435 133.735  0.00  0.00    +0.277 C 
ENDBRANCH   3  11
BRANCH   4  13
ATOM     13  O   LIG A   1     -11.581   5.818 131.899  0.00  0.00    -0.501 OA
ATOM     14  H   LIG A   1     -12.008   6.612 131.521  0.00  0.00    +0.292 HD
ENDBRANCH   4  13
BRANCH   5  15
ATOM     15  O   LIG A   1     -10.866   7.467 130.024  0.00  0.00    -0.491 OA
ATOM     16  C   LIG A   1     -10.535   8.035 128.762  0.00  0.00    +0.277 C 
ENDBRANCH   5  15
TORSDOF 5
ENDMDL
