MODEL 1
REMARK VINA RESULT:      -7.0      0.000      0.000
REMARK  Name = NuBBE_414
REMARK  12 active torsions:
REMARK  status: ('A' for Active; 'I' for Inactive)
REMARK    1  A    between atoms: O_1  and  C_2
REMARK    2  A    between atoms: C_2  and  C_3
REMARK    3  A    between atoms: C_3  and  C_4
REMARK    4  A    between atoms: C_4  and  C_5
REMARK    5  A    between atoms: C_10  and  C_12
REMARK    6  A    between atoms: C_15  and  O_16
REMARK    7  A    between atoms: C_17  and  O_18
REMARK    8  A    between atoms: O_18  and  C_19
REMARK    9  A    between atoms: C_21  and  C_23
REMARK   10  A    between atoms: C_23  and  O_24
REMARK   11  A    between atoms: C_25  and  O_26
REMARK   12  A    between atoms: O_26  and  C_27
REMARK                            x       y       z     vdW  Elec       q    Type
REMARK                         _______ _______ _______ _____ _____    ______ ____
ROOT
ATOM      1  C   LIG A   1     -11.650   7.645 130.053  0.00  0.00    -0.043 A 
ATOM      2  C   LIG A   1     -10.844   7.034 131.020  0.00  0.00    +0.011 A 
ATOM      3  C   LIG A   1      -9.769   6.259 130.600  0.00  0.00    +0.007 A 
ATOM      4  C   LIG A   1      -9.481   6.103 129.252  0.00  0.00    +0.166 A 
ATOM      5  O   LIG A   1      -8.392   5.301 129.028  0.00  0.00    -0.480 OA
ATOM      6  C   LIG A   1      -7.858   4.963 130.328  0.00  0.00    +0.213 C 
ATOM      7  C   LIG A   1      -8.799   5.493 131.433  0.00  0.00    +0.093 C 
ATOM      8  C   LIG A   1     -10.246   6.708 128.267  0.00  0.00    +0.162 A 
ATOM      9  C   LIG A   1     -11.337   7.479 128.688  0.00  0.00    +0.053 A 
ENDROOT
BRANCH   6  10
ATOM     10  C   LIG A   1      -6.420   5.448 130.441  0.00  0.00    -0.003 A 
ATOM     11  C   LIG A   1      -6.133   6.601 131.177  0.00  0.00    +0.011 A 
ATOM     12  C   LIG A   1      -4.812   7.034 131.339  0.00  0.00    +0.049 A 
ATOM     13  C   LIG A   1      -3.761   6.310 130.764  0.00  0.00    +0.159 A 
ATOM     14  C   LIG A   1      -4.024   5.160 130.024  0.00  0.00    +0.162 A 
ATOM     15  C   LIG A   1      -5.354   4.750 129.846  0.00  0.00    +0.056 A 
BRANCH  13  16
ATOM     16  O   LIG A   1      -2.483   6.773 130.928  0.00  0.00    -0.503 OA
ATOM     17  H   LIG A   1      -2.425   7.678 130.595  0.00  0.00    +0.292 HD
ENDBRANCH  13  16
BRANCH  14  18
ATOM     18  O   LIG A   1      -3.106   4.364 129.382  0.00  0.00    -0.491 OA
ATOM     19  C   LIG A   1      -2.772   4.746 128.055  0.00  0.00    +0.277 C 
ENDBRANCH  14  18
ENDBRANCH   6  10
BRANCH   8  20
ATOM     20  O   LIG A   1     -10.075   6.661 126.914  0.00  0.00    -0.491 OA
ATOM     21  C   LIG A   1     -10.846   7.563 126.129  0.00  0.00    +0.277 C 
ENDBRANCH   8  20
BRANCH   1  22
ATOM     22  C   LIG A   1     -12.834   8.492 130.459  0.00  0.00    +0.037 C 
BRANCH  22  23
ATOM     23  C   LIG A   1     -13.088   9.681 129.525  0.00  0.00    +0.032 C 
BRANCH  23  24
ATOM     24  C   LIG A   1     -13.448  10.969 130.256  0.00  0.00    +0.156 C 
BRANCH  24  25
ATOM     25  O   LIG A   1     -13.338  12.073 129.367  0.00  0.00    -0.395 OA
ATOM     26  H   LIG A   1     -14.190  12.147 128.903  0.00  0.00    +0.209 HD
ENDBRANCH  24  25
ENDBRANCH  23  24
ENDBRANCH  22  23
ENDBRANCH   1  22
BRANCH   7  27
ATOM     27  C   LIG A   1      -9.456   4.330 132.186  0.00  0.00    +0.168 C 
BRANCH  27  28
ATOM     28  O   LIG A   1     -10.408   3.636 131.384  0.00  0.00    -0.394 OA
ATOM     29  H   LIG A   1     -11.296   3.949 131.624  0.00  0.00    +0.209 HD
ENDBRANCH  27  28
ENDBRANCH   7  27
TORSDOF 10
ENDMDL
MODEL 2
REMARK VINA RESULT:      -7.0      6.672      8.948
REMARK  Name = NuBBE_414
REMARK  12 active torsions:
REMARK  status: ('A' for Active; 'I' for Inactive)
REMARK    1  A    between atoms: O_1  and  C_2
REMARK    2  A    between atoms: C_2  and  C_3
REMARK    3  A    between atoms: C_3  and  C_4
REMARK    4  A    between atoms: C_4  and  C_5
REMARK    5  A    between atoms: C_10  and  C_12
REMARK    6  A    between atoms: C_15  and  O_16
REMARK    7  A    between atoms: C_17  and  O_18
REMARK    8  A    between atoms: O_18  and  C_19
REMARK    9  A    between atoms: C_21  and  C_23
REMARK   10  A    between atoms: C_23  and  O_24
REMARK   11  A    between atoms: C_25  and  O_26
REMARK   12  A    between atoms: O_26  and  C_27
REMARK                            x       y       z     vdW  Elec       q    Type
REMARK                         _______ _______ _______ _____ _____    ______ ____
ROOT
ATOM      1  C   LIG A   1      -6.319   3.543 122.883  0.00  0.00    -0.043 A 
ATOM      2  C   LIG A   1      -6.003   3.356 124.233  0.00  0.00    +0.011 A 
ATOM      3  C   LIG A   1      -6.949   2.770 125.066  0.00  0.00    +0.007 A 
ATOM      4  C   LIG A   1      -8.180   2.357 124.574  0.00  0.00    +0.166 A 
ATOM      5  O   LIG A   1      -8.984   1.809 125.540  0.00  0.00    -0.480 OA
ATOM      6  C   LIG A   1      -8.199   1.773 126.754  0.00  0.00    +0.213 C 
ATOM      7  C   LIG A   1      -6.854   2.500 126.528  0.00  0.00    +0.093 C 
ATOM      8  C   LIG A   1      -8.520   2.509 123.239  0.00  0.00    +0.162 A 
ATOM      9  C   LIG A   1      -7.573   3.111 122.402  0.00  0.00    +0.053 A 
ENDROOT
BRANCH   6  10
ATOM     10  C   LIG A   1      -8.066   0.339 127.244  0.00  0.00    -0.003 A 
ATOM     11  C   LIG A   1      -7.625   0.089 128.547  0.00  0.00    +0.011 A 
ATOM     12  C   LIG A   1      -7.547  -1.219 129.036  0.00  0.00    +0.049 A 
ATOM     13  C   LIG A   1      -7.915  -2.296 128.220  0.00  0.00    +0.159 A 
ATOM     14  C   LIG A   1      -8.354  -2.071 126.917  0.00  0.00    +0.162 A 
ATOM     15  C   LIG A   1      -8.403  -0.757 126.429  0.00  0.00    +0.056 A 
BRANCH  13  16
ATOM     16  O   LIG A   1      -7.809  -3.564 128.725  0.00  0.00    -0.503 OA
ATOM     17  H   LIG A   1      -7.865  -3.531 129.690  0.00  0.00    +0.292 HD
ENDBRANCH  13  16
BRANCH  14  18
ATOM     18  O   LIG A   1      -8.721  -3.021 125.996  0.00  0.00    -0.491 OA
ATOM     19  C   LIG A   1      -7.737  -3.365 125.030  0.00  0.00    +0.277 C 
ENDBRANCH  14  18
ENDBRANCH   6  10
BRANCH   8  20
ATOM     20  O   LIG A   1      -9.675   2.139 122.613  0.00  0.00    -0.491 OA
ATOM     21  C   LIG A   1      -9.971   0.749 122.562  0.00  0.00    +0.277 C 
ENDBRANCH   8  20
BRANCH   1  22
ATOM     22  C   LIG A   1      -5.327   4.182 121.940  0.00  0.00    +0.037 C 
BRANCH  22  23
ATOM     23  C   LIG A   1      -5.713   4.051 120.461  0.00  0.00    +0.032 C 
BRANCH  23  24
ATOM     24  C   LIG A   1      -5.414   5.298 119.638  0.00  0.00    +0.156 C 
BRANCH  24  25
ATOM     25  O   LIG A   1      -4.667   6.222 120.418  0.00  0.00    -0.395 OA
ATOM     26  H   LIG A   1      -5.238   6.996 120.563  0.00  0.00    +0.209 HD
ENDBRANCH  24  25
ENDBRANCH  23  24
ENDBRANCH  22  23
ENDBRANCH   1  22
BRANCH   7  27
ATOM     27  C   LIG A   1      -6.787   3.783 127.364  0.00  0.00    +0.168 C 
BRANCH  27  28
ATOM     28  O   LIG A   1      -7.765   4.740 126.964  0.00  0.00    -0.394 OA
ATOM     29  H   LIG A   1      -8.516   4.683 127.577  0.00  0.00    +0.209 HD
ENDBRANCH  27  28
ENDBRANCH   7  27
TORSDOF 10
ENDMDL
MODEL 3
REMARK VINA RESULT:      -6.8      1.809      7.621
REMARK  Name = NuBBE_414
REMARK  12 active torsions:
REMARK  status: ('A' for Active; 'I' for Inactive)
REMARK    1  A    between atoms: O_1  and  C_2
REMARK    2  A    between atoms: C_2  and  C_3
REMARK    3  A    between atoms: C_3  and  C_4
REMARK    4  A    between atoms: C_4  and  C_5
REMARK    5  A    between atoms: C_10  and  C_12
REMARK    6  A    between atoms: C_15  and  O_16
REMARK    7  A    between atoms: C_17  and  O_18
REMARK    8  A    between atoms: O_18  and  C_19
REMARK    9  A    between atoms: C_21  and  C_23
REMARK   10  A    between atoms: C_23  and  O_24
REMARK   11  A    between atoms: C_25  and  O_26
REMARK   12  A    between atoms: O_26  and  C_27
REMARK                            x       y       z     vdW  Elec       q    Type
REMARK                         _______ _______ _______ _____ _____    ______ ____
ROOT
ATOM      1  C   LIG A   1      -5.005   3.948 129.788  0.00  0.00    -0.043 A 
ATOM      2  C   LIG A   1      -6.302   3.562 130.141  0.00  0.00    +0.011 A 
ATOM      3  C   LIG A   1      -7.111   4.474 130.810  0.00  0.00    +0.007 A 
ATOM      4  C   LIG A   1      -6.657   5.751 131.110  0.00  0.00    +0.166 A 
ATOM      5  O   LIG A   1      -7.587   6.505 131.777  0.00  0.00    -0.480 OA
ATOM      6  C   LIG A   1      -8.787   5.702 131.853  0.00  0.00    +0.213 C 
ATOM      7  C   LIG A   1      -8.502   4.283 131.312  0.00  0.00    +0.093 C 
ATOM      8  C   LIG A   1      -5.385   6.174 130.759  0.00  0.00    +0.162 A 
ATOM      9  C   LIG A   1      -4.564   5.253 130.096  0.00  0.00    +0.053 A 
ENDROOT
BRANCH   6  10
ATOM     10  C   LIG A   1      -9.937   6.419 131.163  0.00  0.00    -0.003 A 
ATOM     11  C   LIG A   1     -11.215   6.387 131.730  0.00  0.00    +0.011 A 
ATOM     12  C   LIG A   1     -12.276   7.086 131.142  0.00  0.00    +0.049 A 
ATOM     13  C   LIG A   1     -12.064   7.829 129.975  0.00  0.00    +0.159 A 
ATOM     14  C   LIG A   1     -10.799   7.872 129.391  0.00  0.00    +0.162 A 
ATOM     15  C   LIG A   1      -9.750   7.147 129.974  0.00  0.00    +0.056 A 
BRANCH  13  16
ATOM     16  O   LIG A   1     -13.128   8.485 129.416  0.00  0.00    -0.503 OA
ATOM     17  H   LIG A   1     -13.571   9.012 130.094  0.00  0.00    +0.292 HD
ENDBRANCH  13  16
BRANCH  14  18
ATOM     18  O   LIG A   1     -10.446   8.533 128.239  0.00  0.00    -0.491 OA
ATOM     19  C   LIG A   1     -10.778   7.880 127.020  0.00  0.00    +0.277 C 
ENDBRANCH  14  18
ENDBRANCH   6  10
BRANCH   8  20
ATOM     20  O   LIG A   1      -4.811   7.394 130.970  0.00  0.00    -0.491 OA
ATOM     21  C   LIG A   1      -4.230   8.042 129.845  0.00  0.00    +0.277 C 
ENDBRANCH   8  20
BRANCH   1  22
ATOM     22  C   LIG A   1      -4.085   2.992 129.065  0.00  0.00    +0.037 C 
BRANCH  22  23
ATOM     23  C   LIG A   1      -2.955   3.688 128.298  0.00  0.00    +0.032 C 
BRANCH  23  24
ATOM     24  C   LIG A   1      -2.662   3.063 126.939  0.00  0.00    +0.156 C 
BRANCH  24  25
ATOM     25  O   LIG A   1      -1.341   2.537 126.926  0.00  0.00    -0.395 OA
ATOM     26  H   LIG A   1      -1.423   1.569 126.882  0.00  0.00    +0.209 HD
ENDBRANCH  24  25
ENDBRANCH  23  24
ENDBRANCH  22  23
ENDBRANCH   1  22
BRANCH   7  27
ATOM     27  C   LIG A   1      -8.587   3.248 132.438  0.00  0.00    +0.168 C 
BRANCH  27  28
ATOM     28  O   LIG A   1      -9.926   2.817 132.676  0.00  0.00    -0.394 OA
ATOM     29  H   LIG A   1     -10.468   3.599 132.869  0.00  0.00    +0.209 HD
ENDBRANCH  27  28
ENDBRANCH   7  27
TORSDOF 10
ENDMDL
MODEL 4
REMARK VINA RESULT:      -6.8      6.683     10.259
REMARK  Name = NuBBE_414
REMARK  12 active torsions:
REMARK  status: ('A' for Active; 'I' for Inactive)
REMARK    1  A    between atoms: O_1  and  C_2
REMARK    2  A    between atoms: C_2  and  C_3
REMARK    3  A    between atoms: C_3  and  C_4
REMARK    4  A    between atoms: C_4  and  C_5
REMARK    5  A    between atoms: C_10  and  C_12
REMARK    6  A    between atoms: C_15  and  O_16
REMARK    7  A    between atoms: C_17  and  O_18
REMARK    8  A    between atoms: O_18  and  C_19
REMARK    9  A    between atoms: C_21  and  C_23
REMARK   10  A    between atoms: C_23  and  O_24
REMARK   11  A    between atoms: C_25  and  O_26
REMARK   12  A    between atoms: O_26  and  C_27
REMARK                            x       y       z     vdW  Elec       q    Type
REMARK                         _______ _______ _______ _____ _____    ______ ____
ROOT
ATOM      1  C   LIG A   1      -6.355  -1.646 123.684  0.00  0.00    -0.043 A 
ATOM      2  C   LIG A   1      -5.716  -1.015 124.756  0.00  0.00    +0.011 A 
ATOM      3  C   LIG A   1      -6.441  -0.113 125.528  0.00  0.00    +0.007 A 
ATOM      4  C   LIG A   1      -7.778   0.148 125.261  0.00  0.00    +0.166 A 
ATOM      5  O   LIG A   1      -8.325   1.066 126.119  0.00  0.00    -0.480 OA
ATOM      6  C   LIG A   1      -7.300   1.380 127.090  0.00  0.00    +0.213 C 
ATOM      7  C   LIG A   1      -5.973   0.697 126.688  0.00  0.00    +0.093 C 
ATOM      8  C   LIG A   1      -8.448  -0.474 124.219  0.00  0.00    +0.162 A 
ATOM      9  C   LIG A   1      -7.715  -1.372 123.432  0.00  0.00    +0.053 A 
ENDROOT
BRANCH   6  10
ATOM     10  C   LIG A   1      -7.788   1.035 128.489  0.00  0.00    -0.003 A 
ATOM     11  C   LIG A   1      -7.544  -0.237 129.014  0.00  0.00    +0.011 A 
ATOM     12  C   LIG A   1      -7.935  -0.558 130.319  0.00  0.00    +0.049 A 
ATOM     13  C   LIG A   1      -8.575   0.399 131.115  0.00  0.00    +0.159 A 
ATOM     14  C   LIG A   1      -8.831   1.673 130.611  0.00  0.00    +0.162 A 
ATOM     15  C   LIG A   1      -8.458   1.975 129.293  0.00  0.00    +0.056 A 
BRANCH  13  16
ATOM     16  O   LIG A   1      -8.960   0.045 132.380  0.00  0.00    -0.503 OA
ATOM     17  H   LIG A   1      -8.494   0.597 133.023  0.00  0.00    +0.292 HD
ENDBRANCH  13  16
BRANCH  14  18
ATOM     18  O   LIG A   1      -9.469   2.703 131.259  0.00  0.00    -0.491 OA
ATOM     19  C   LIG A   1     -10.342   3.492 130.462  0.00  0.00    +0.277 C 
ENDBRANCH  14  18
ENDBRANCH   6  10
BRANCH   8  20
ATOM     20  O   LIG A   1      -9.753  -0.332 123.848  0.00  0.00    -0.491 OA
ATOM     21  C   LIG A   1     -10.036   0.588 122.801  0.00  0.00    +0.277 C 
ENDBRANCH   8  20
BRANCH   1  22
ATOM     22  C   LIG A   1      -5.608  -2.629 122.812  0.00  0.00    +0.037 C 
BRANCH  22  23
ATOM     23  C   LIG A   1      -4.431  -3.309 123.521  0.00  0.00    +0.032 C 
BRANCH  23  24
ATOM     24  C   LIG A   1      -4.684  -4.772 123.863  0.00  0.00    +0.156 C 
BRANCH  24  25
ATOM     25  O   LIG A   1      -4.062  -5.607 122.895  0.00  0.00    -0.395 OA
ATOM     26  H   LIG A   1      -3.531  -5.027 122.321  0.00  0.00    +0.209 HD
ENDBRANCH  24  25
ENDBRANCH  23  24
ENDBRANCH  22  23
ENDBRANCH   1  22
BRANCH   7  27
ATOM     27  C   LIG A   1      -4.925   1.744 126.295  0.00  0.00    +0.168 C 
BRANCH  27  28
ATOM     28  O   LIG A   1      -3.783   1.712 127.148  0.00  0.00    -0.394 OA
ATOM     29  H   LIG A   1      -3.321   0.869 127.008  0.00  0.00    +0.209 HD
ENDBRANCH  27  28
ENDBRANCH   7  27
TORSDOF 10
ENDMDL
MODEL 5
REMARK VINA RESULT:      -6.7      6.249      9.719
REMARK  Name = NuBBE_414
REMARK  12 active torsions:
REMARK  status: ('A' for Active; 'I' for Inactive)
REMARK    1  A    between atoms: O_1  and  C_2
REMARK    2  A    between atoms: C_2  and  C_3
REMARK    3  A    between atoms: C_3  and  C_4
REMARK    4  A    between atoms: C_4  and  C_5
REMARK    5  A    between atoms: C_10  and  C_12
REMARK    6  A    between atoms: C_15  and  O_16
REMARK    7  A    between atoms: C_17  and  O_18
REMARK    8  A    between atoms: O_18  and  C_19
REMARK    9  A    between atoms: C_21  and  C_23
REMARK   10  A    between atoms: C_23  and  O_24
REMARK   11  A    between atoms: C_25  and  O_26
REMARK   12  A    between atoms: O_26  and  C_27
REMARK                            x       y       z     vdW  Elec       q    Type
REMARK                         _______ _______ _______ _____ _____    ______ ____
ROOT
ATOM      1  C   LIG A   1      -6.476  -1.921 124.818  0.00  0.00    -0.043 A 
ATOM      2  C   LIG A   1      -6.374  -0.619 124.316  0.00  0.00    +0.011 A 
ATOM      3  C   LIG A   1      -6.523   0.449 125.193  0.00  0.00    +0.007 A 
ATOM      4  C   LIG A   1      -6.749   0.239 126.547  0.00  0.00    +0.166 A 
ATOM      5  O   LIG A   1      -6.876   1.406 127.254  0.00  0.00    -0.480 OA
ATOM      6  C   LIG A   1      -6.630   2.481 126.318  0.00  0.00    +0.213 C 
ATOM      7  C   LIG A   1      -6.487   1.908 124.890  0.00  0.00    +0.093 C 
ATOM      8  C   LIG A   1      -6.837  -1.036 127.082  0.00  0.00    +0.162 A 
ATOM      9  C   LIG A   1      -6.700  -2.113 126.197  0.00  0.00    +0.053 A 
ENDROOT
BRANCH   6  10
ATOM     10  C   LIG A   1      -5.446   3.314 126.783  0.00  0.00    -0.003 A 
ATOM     11  C   LIG A   1      -4.177   3.078 126.244  0.00  0.00    +0.011 A 
ATOM     12  C   LIG A   1      -3.084   3.869 126.618  0.00  0.00    +0.049 A 
ATOM     13  C   LIG A   1      -3.254   4.910 127.538  0.00  0.00    +0.159 A 
ATOM     14  C   LIG A   1      -4.508   5.161 128.090  0.00  0.00    +0.162 A 
ATOM     15  C   LIG A   1      -5.590   4.346 127.728  0.00  0.00    +0.056 A 
BRANCH  13  16
ATOM     16  O   LIG A   1      -2.159   5.651 127.893  0.00  0.00    -0.503 OA
ATOM     17  H   LIG A   1      -2.394   6.239 128.624  0.00  0.00    +0.292 HD
ENDBRANCH  13  16
BRANCH  14  18
ATOM     18  O   LIG A   1      -4.822   6.125 129.018  0.00  0.00    -0.491 OA
ATOM     19  C   LIG A   1      -5.383   5.655 130.236  0.00  0.00    +0.277 C 
ENDBRANCH  14  18
ENDBRANCH   6  10
BRANCH   8  20
ATOM     20  O   LIG A   1      -7.037  -1.395 128.384  0.00  0.00    -0.491 OA
ATOM     21  C   LIG A   1      -7.871  -2.521 128.626  0.00  0.00    +0.277 C 
ENDBRANCH   8  20
BRANCH   1  22
ATOM     22  C   LIG A   1      -6.328  -3.114 123.904  0.00  0.00    +0.037 C 
BRANCH  22  23
ATOM     23  C   LIG A   1      -4.909  -3.295 123.353  0.00  0.00    +0.032 C 
BRANCH  23  24
ATOM     24  C   LIG A   1      -4.206  -4.544 123.869  0.00  0.00    +0.156 C 
BRANCH  24  25
ATOM     25  O   LIG A   1      -4.208  -5.548 122.863  0.00  0.00    -0.395 OA
ATOM     26  H   LIG A   1      -3.654  -6.278 123.190  0.00  0.00    +0.209 HD
ENDBRANCH  24  25
ENDBRANCH  23  24
ENDBRANCH  22  23
ENDBRANCH   1  22
BRANCH   7  27
ATOM     27  C   LIG A   1      -7.657   2.357 124.008  0.00  0.00    +0.168 C 
BRANCH  27  28
ATOM     28  O   LIG A   1      -7.981   3.732 124.200  0.00  0.00    -0.394 OA
ATOM     29  H   LIG A   1      -8.648   3.794 124.904  0.00  0.00    +0.209 HD
ENDBRANCH  27  28
ENDBRANCH   7  27
TORSDOF 10
ENDMDL
MODEL 6
REMARK VINA RESULT:      -6.7      2.934      7.053
REMARK  Name = NuBBE_414
REMARK  12 active torsions:
REMARK  status: ('A' for Active; 'I' for Inactive)
REMARK    1  A    between atoms: O_1  and  C_2
REMARK    2  A    between atoms: C_2  and  C_3
REMARK    3  A    between atoms: C_3  and  C_4
REMARK    4  A    between atoms: C_4  and  C_5
REMARK    5  A    between atoms: C_10  and  C_12
REMARK    6  A    between atoms: C_15  and  O_16
REMARK    7  A    between atoms: C_17  and  O_18
REMARK    8  A    between atoms: O_18  and  C_19
REMARK    9  A    between atoms: C_21  and  C_23
REMARK   10  A    between atoms: C_23  and  O_24
REMARK   11  A    between atoms: C_25  and  O_26
REMARK   12  A    between atoms: O_26  and  C_27
REMARK                            x       y       z     vdW  Elec       q    Type
REMARK                         _______ _______ _______ _____ _____    ______ ____
ROOT
ATOM      1  C   LIG A   1      -7.598   1.953 127.843  0.00  0.00    -0.043 A 
ATOM      2  C   LIG A   1      -8.747   2.062 128.634  0.00  0.00    +0.011 A 
ATOM      3  C   LIG A   1      -8.885   3.170 129.462  0.00  0.00    +0.007 A 
ATOM      4  C   LIG A   1      -7.917   4.165 129.497  0.00  0.00    +0.166 A 
ATOM      5  O   LIG A   1      -8.218   5.173 130.375  0.00  0.00    -0.480 OA
ATOM      6  C   LIG A   1      -9.531   4.876 130.905  0.00  0.00    +0.213 C 
ATOM      7  C   LIG A   1      -9.992   3.487 130.408  0.00  0.00    +0.093 C 
ATOM      8  C   LIG A   1      -6.775   4.099 128.714  0.00  0.00    +0.162 A 
ATOM      9  C   LIG A   1      -6.629   2.977 127.889  0.00  0.00    +0.053 A 
ENDROOT
BRANCH   6  10
ATOM     10  C   LIG A   1     -10.491   6.011 130.582  0.00  0.00    -0.003 A 
ATOM     11  C   LIG A   1     -11.576   6.263 131.426  0.00  0.00    +0.011 A 
ATOM     12  C   LIG A   1     -12.440   7.336 131.178  0.00  0.00    +0.049 A 
ATOM     13  C   LIG A   1     -12.221   8.172 130.077  0.00  0.00    +0.159 A 
ATOM     14  C   LIG A   1     -11.148   7.938 129.221  0.00  0.00    +0.162 A 
ATOM     15  C   LIG A   1     -10.304   6.844 129.464  0.00  0.00    +0.056 A 
BRANCH  13  16
ATOM     16  O   LIG A   1     -13.097   9.201 129.855  0.00  0.00    -0.503 OA
ATOM     17  H   LIG A   1     -13.232   9.307 128.904  0.00  0.00    +0.292 HD
ENDBRANCH  13  16
BRANCH  14  18
ATOM     18  O   LIG A   1     -10.822   8.652 128.093  0.00  0.00    -0.491 OA
ATOM     19  C   LIG A   1     -10.963   7.962 126.858  0.00  0.00    +0.277 C 
ENDBRANCH  14  18
ENDBRANCH   6  10
BRANCH   8  20
ATOM     20  O   LIG A   1      -5.754   5.000 128.630  0.00  0.00    -0.491 OA
ATOM     21  C   LIG A   1      -4.734   4.739 127.674  0.00  0.00    +0.277 C 
ENDBRANCH   8  20
BRANCH   1  22
ATOM     22  C   LIG A   1      -7.400   0.765 126.932  0.00  0.00    +0.037 C 
BRANCH  22  23
ATOM     23  C   LIG A   1      -8.513   0.595 125.892  0.00  0.00    +0.032 C 
BRANCH  23  24
ATOM     24  C   LIG A   1      -8.465   1.623 124.768  0.00  0.00    +0.156 C 
BRANCH  24  25
ATOM     25  O   LIG A   1      -9.612   2.460 124.833  0.00  0.00    -0.395 OA
ATOM     26  H   LIG A   1     -10.021   2.312 125.703  0.00  0.00    +0.209 HD
ENDBRANCH  24  25
ENDBRANCH  23  24
ENDBRANCH  22  23
ENDBRANCH   1  22
BRANCH   7  27
ATOM     27  C   LIG A   1     -10.075   2.497 131.575  0.00  0.00    +0.168 C 
BRANCH  27  28
ATOM     28  O   LIG A   1      -9.822   3.120 132.832  0.00  0.00    -0.394 OA
ATOM     29  H   LIG A   1      -9.336   2.493 133.392  0.00  0.00    +0.209 HD
ENDBRANCH  27  28
ENDBRANCH   7  27
TORSDOF 10
ENDMDL
MODEL 7
REMARK VINA RESULT:      -6.6      6.903     10.057
REMARK  Name = NuBBE_414
REMARK  12 active torsions:
REMARK  status: ('A' for Active; 'I' for Inactive)
REMARK    1  A    between atoms: O_1  and  C_2
REMARK    2  A    between atoms: C_2  and  C_3
REMARK    3  A    between atoms: C_3  and  C_4
REMARK    4  A    between atoms: C_4  and  C_5
REMARK    5  A    between atoms: C_10  and  C_12
REMARK    6  A    between atoms: C_15  and  O_16
REMARK    7  A    between atoms: C_17  and  O_18
REMARK    8  A    between atoms: O_18  and  C_19
REMARK    9  A    between atoms: C_21  and  C_23
REMARK   10  A    between atoms: C_23  and  O_24
REMARK   11  A    between atoms: C_25  and  O_26
REMARK   12  A    between atoms: O_26  and  C_27
REMARK                            x       y       z     vdW  Elec       q    Type
REMARK                         _______ _______ _______ _____ _____    ______ ____
ROOT
ATOM      1  C   LIG A   1      -6.611  -1.953 123.760  0.00  0.00    -0.043 A 
ATOM      2  C   LIG A   1      -6.640  -0.554 123.792  0.00  0.00    +0.011 A 
ATOM      3  C   LIG A   1      -7.491   0.076 124.693  0.00  0.00    +0.007 A 
ATOM      4  C   LIG A   1      -8.285  -0.658 125.563  0.00  0.00    +0.166 A 
ATOM      5  O   LIG A   1      -9.062   0.130 126.371  0.00  0.00    -0.480 OA
ATOM      6  C   LIG A   1      -8.696   1.499 126.081  0.00  0.00    +0.213 C 
ATOM      7  C   LIG A   1      -7.717   1.536 124.887  0.00  0.00    +0.093 C 
ATOM      8  C   LIG A   1      -8.268  -2.044 125.573  0.00  0.00    +0.162 A 
ATOM      9  C   LIG A   1      -7.421  -2.681 124.657  0.00  0.00    +0.053 A 
ENDROOT
BRANCH   6  10
ATOM     10  C   LIG A   1      -8.179   2.177 127.341  0.00  0.00    -0.003 A 
ATOM     11  C   LIG A   1      -8.506   1.652 128.595  0.00  0.00    +0.011 A 
ATOM     12  C   LIG A   1      -7.997   2.227 129.765  0.00  0.00    +0.049 A 
ATOM     13  C   LIG A   1      -7.148   3.337 129.688  0.00  0.00    +0.159 A 
ATOM     14  C   LIG A   1      -6.811   3.878 128.449  0.00  0.00    +0.162 A 
ATOM     15  C   LIG A   1      -7.349   3.311 127.285  0.00  0.00    +0.056 A 
BRANCH  13  16
ATOM     16  O   LIG A   1      -6.682   3.885 130.853  0.00  0.00    -0.503 OA
ATOM     17  H   LIG A   1      -6.469   4.816 130.707  0.00  0.00    +0.292 HD
ENDBRANCH  13  16
BRANCH  14  18
ATOM     18  O   LIG A   1      -6.016   4.975 128.218  0.00  0.00    -0.491 OA
ATOM     19  C   LIG A   1      -4.645   4.705 127.956  0.00  0.00    +0.277 C 
ENDBRANCH  14  18
ENDBRANCH   6  10
BRANCH   8  20
ATOM     20  O   LIG A   1      -8.974  -2.893 126.375  0.00  0.00    -0.491 OA
ATOM     21  C   LIG A   1      -8.416  -3.203 127.645  0.00  0.00    +0.277 C 
ENDBRANCH   8  20
BRANCH   1  22
ATOM     22  C   LIG A   1      -5.708  -2.684 122.795  0.00  0.00    +0.037 C 
BRANCH  22  23
ATOM     23  C   LIG A   1      -4.482  -3.320 123.460  0.00  0.00    +0.032 C 
BRANCH  23  24
ATOM     24  C   LIG A   1      -4.681  -4.783 123.839  0.00  0.00    +0.156 C 
BRANCH  24  25
ATOM     25  O   LIG A   1      -4.084  -5.619 122.856  0.00  0.00    -0.395 OA
ATOM     26  H   LIG A   1      -4.801  -5.935 122.280  0.00  0.00    +0.209 HD
ENDBRANCH  24  25
ENDBRANCH  23  24
ENDBRANCH  22  23
ENDBRANCH   1  22
BRANCH   7  27
ATOM     27  C   LIG A   1      -8.373   2.200 123.671  0.00  0.00    +0.168 C 
BRANCH  27  28
ATOM     28  O   LIG A   1      -9.795   2.220 123.768  0.00  0.00    -0.394 OA
ATOM     29  H   LIG A   1     -10.052   2.964 124.337  0.00  0.00    +0.209 HD
ENDBRANCH  27  28
ENDBRANCH   7  27
TORSDOF 10
ENDMDL
MODEL 8
REMARK VINA RESULT:      -6.5      2.083      7.310
REMARK  Name = NuBBE_414
REMARK  12 active torsions:
REMARK  status: ('A' for Active; 'I' for Inactive)
REMARK    1  A    between atoms: O_1  and  C_2
REMARK    2  A    between atoms: C_2  and  C_3
REMARK    3  A    between atoms: C_3  and  C_4
REMARK    4  A    between atoms: C_4  and  C_5
REMARK    5  A    between atoms: C_10  and  C_12
REMARK    6  A    between atoms: C_15  and  O_16
REMARK    7  A    between atoms: C_17  and  O_18
REMARK    8  A    between atoms: O_18  and  C_19
REMARK    9  A    between atoms: C_21  and  C_23
REMARK   10  A    between atoms: C_23  and  O_24
REMARK   11  A    between atoms: C_25  and  O_26
REMARK   12  A    between atoms: O_26  and  C_27
REMARK                            x       y       z     vdW  Elec       q    Type
REMARK                         _______ _______ _______ _____ _____    ______ ____
ROOT
ATOM      1  C   LIG A   1      -6.060   4.727 132.142  0.00  0.00    -0.043 A 
ATOM      2  C   LIG A   1      -6.969   4.484 131.107  0.00  0.00    +0.011 A 
ATOM      3  C   LIG A   1      -8.308   4.803 131.306  0.00  0.00    +0.007 A 
ATOM      4  C   LIG A   1      -8.741   5.370 132.497  0.00  0.00    +0.166 A 
ATOM      5  O   LIG A   1     -10.090   5.609 132.515  0.00  0.00    -0.480 OA
ATOM      6  C   LIG A   1     -10.586   5.255 131.204  0.00  0.00    +0.213 C 
ATOM      7  C   LIG A   1      -9.455   4.608 130.374  0.00  0.00    +0.093 C 
ATOM      8  C   LIG A   1      -7.864   5.643 133.536  0.00  0.00    +0.162 A 
ATOM      9  C   LIG A   1      -6.518   5.309 133.342  0.00  0.00    +0.053 A 
ENDROOT
BRANCH   6  10
ATOM     10  C   LIG A   1     -11.234   6.466 130.549  0.00  0.00    -0.003 A 
ATOM     11  C   LIG A   1     -12.311   7.100 131.176  0.00  0.00    +0.011 A 
ATOM     12  C   LIG A   1     -12.886   8.248 130.619  0.00  0.00    +0.049 A 
ATOM     13  C   LIG A   1     -12.383   8.775 129.424  0.00  0.00    +0.159 A 
ATOM     14  C   LIG A   1     -11.312   8.158 128.781  0.00  0.00    +0.162 A 
ATOM     15  C   LIG A   1     -10.760   6.994 129.334  0.00  0.00    +0.056 A 
BRANCH  13  16
ATOM     16  O   LIG A   1     -12.981   9.889 128.898  0.00  0.00    -0.503 OA
ATOM     17  H   LIG A   1     -12.327  10.401 128.402  0.00  0.00    +0.292 HD
ENDBRANCH  13  16
BRANCH  14  18
ATOM     18  O   LIG A   1     -10.729   8.542 127.597  0.00  0.00    -0.491 OA
ATOM     19  C   LIG A   1     -10.948   7.680 126.488  0.00  0.00    +0.277 C 
ENDBRANCH  14  18
ENDBRANCH   6  10
BRANCH   8  20
ATOM     20  O   LIG A   1      -8.138   6.209 134.747  0.00  0.00    -0.491 OA
ATOM     21  C   LIG A   1      -7.472   5.670 135.882  0.00  0.00    +0.277 C 
ENDBRANCH   8  20
BRANCH   1  22
ATOM     22  C   LIG A   1      -4.596   4.391 131.976  0.00  0.00    +0.037 C 
BRANCH  22  23
ATOM     23  C   LIG A   1      -4.070   4.619 130.554  0.00  0.00    +0.032 C 
BRANCH  23  24
ATOM     24  C   LIG A   1      -3.754   6.077 130.244  0.00  0.00    +0.156 C 
BRANCH  24  25
ATOM     25  O   LIG A   1      -4.742   6.608 129.371  0.00  0.00    -0.395 OA
ATOM     26  H   LIG A   1      -4.351   7.389 128.943  0.00  0.00    +0.209 HD
ENDBRANCH  24  25
ENDBRANCH  23  24
ENDBRANCH  22  23
ENDBRANCH   1  22
BRANCH   7  27
ATOM     27  C   LIG A   1      -9.758   3.129 130.110  0.00  0.00    +0.168 C 
BRANCH  27  28
ATOM     28  O   LIG A   1      -9.116   2.649 128.931  0.00  0.00    -0.394 OA
ATOM     29  H   LIG A   1      -8.440   2.002 129.193  0.00  0.00    +0.209 HD
ENDBRANCH  27  28
ENDBRANCH   7  27
TORSDOF 10
ENDMDL
MODEL 9
REMARK VINA RESULT:      -6.5      3.195      7.573
REMARK  Name = NuBBE_414
REMARK  12 active torsions:
REMARK  status: ('A' for Active; 'I' for Inactive)
REMARK    1  A    between atoms: O_1  and  C_2
REMARK    2  A    between atoms: C_2  and  C_3
REMARK    3  A    between atoms: C_3  and  C_4
REMARK    4  A    between atoms: C_4  and  C_5
REMARK    5  A    between atoms: C_10  and  C_12
REMARK    6  A    between atoms: C_15  and  O_16
REMARK    7  A    between atoms: C_17  and  O_18
REMARK    8  A    between atoms: O_18  and  C_19
REMARK    9  A    between atoms: C_21  and  C_23
REMARK   10  A    between atoms: C_23  and  O_24
REMARK   11  A    between atoms: C_25  and  O_26
REMARK   12  A    between atoms: O_26  and  C_27
REMARK                            x       y       z     vdW  Elec       q    Type
REMARK                         _______ _______ _______ _____ _____    ______ ____
ROOT
ATOM      1  C   LIG A   1      -7.828   1.635 128.345  0.00  0.00    -0.043 A 
ATOM      2  C   LIG A   1      -8.742   2.030 129.328  0.00  0.00    +0.011 A 
ATOM      3  C   LIG A   1      -8.750   3.358 129.738  0.00  0.00    +0.007 A 
ATOM      4  C   LIG A   1      -7.886   4.288 129.176  0.00  0.00    +0.166 A 
ATOM      5  O   LIG A   1      -8.032   5.542 129.708  0.00  0.00    -0.480 OA
ATOM      6  C   LIG A   1      -9.137   5.467 130.637  0.00  0.00    +0.213 C 
ATOM      7  C   LIG A   1      -9.599   4.000 130.781  0.00  0.00    +0.093 C 
ATOM      8  C   LIG A   1      -6.981   3.937 128.186  0.00  0.00    +0.162 A 
ATOM      9  C   LIG A   1      -6.963   2.596 127.781  0.00  0.00    +0.053 A 
ENDROOT
BRANCH   6  10
ATOM     10  C   LIG A   1     -10.234   6.435 130.218  0.00  0.00    -0.003 A 
ATOM     11  C   LIG A   1     -11.302   6.688 131.084  0.00  0.00    +0.011 A 
ATOM     12  C   LIG A   1     -12.294   7.615 130.742  0.00  0.00    +0.049 A 
ATOM     13  C   LIG A   1     -12.221   8.303 129.525  0.00  0.00    +0.159 A 
ATOM     14  C   LIG A   1     -11.167   8.064 128.646  0.00  0.00    +0.162 A 
ATOM     15  C   LIG A   1     -10.194   7.113 128.987  0.00  0.00    +0.056 A 
BRANCH  13  16
ATOM     16  O   LIG A   1     -13.218   9.189 129.216  0.00  0.00    -0.503 OA
ATOM     17  H   LIG A   1     -13.210   9.361 128.264  0.00  0.00    +0.292 HD
ENDBRANCH  13  16
BRANCH  14  18
ATOM     18  O   LIG A   1     -10.976   8.639 127.413  0.00  0.00    -0.491 OA
ATOM     19  C   LIG A   1     -10.953   7.746 126.307  0.00  0.00    +0.277 C 
ENDBRANCH  14  18
ENDBRANCH   6  10
BRANCH   8  20
ATOM     20  O   LIG A   1      -6.090   4.737 127.533  0.00  0.00    -0.491 OA
ATOM     21  C   LIG A   1      -5.751   4.379 126.199  0.00  0.00    +0.277 C 
ENDBRANCH   8  20
BRANCH   1  22
ATOM     22  C   LIG A   1      -7.777   0.202 127.871  0.00  0.00    +0.037 C 
BRANCH  22  23
ATOM     23  C   LIG A   1      -7.557  -0.812 129.000  0.00  0.00    +0.032 C 
BRANCH  23  24
ATOM     24  C   LIG A   1      -7.504  -2.258 128.523  0.00  0.00    +0.156 C 
BRANCH  24  25
ATOM     25  O   LIG A   1      -8.476  -3.029 129.217  0.00  0.00    -0.395 OA
ATOM     26  H   LIG A   1      -9.335  -2.595 129.076  0.00  0.00    +0.209 HD
ENDBRANCH  24  25
ENDBRANCH  23  24
ENDBRANCH  22  23
ENDBRANCH   1  22
BRANCH   7  27
ATOM     27  C   LIG A   1      -9.302   3.477 132.191  0.00  0.00    +0.168 C 
BRANCH  27  28
ATOM     28  O   LIG A   1     -10.155   2.395 132.556  0.00  0.00    -0.394 OA
ATOM     29  H   LIG A   1     -10.828   2.288 131.864  0.00  0.00    +0.209 HD
ENDBRANCH  27  28
ENDBRANCH   7  27
TORSDOF 10
ENDMDL
