MODEL 1
REMARK VINA RESULT:      -8.9      0.000      0.000
REMARK  Name = NuBBE_1249
REMARK  14 active torsions:
REMARK  status: ('A' for Active; 'I' for Inactive)
REMARK    1  A    between atoms: O_1  and  C_2
REMARK    2  A    between atoms: C_3  and  C_34
REMARK    3  A    between atoms: C_6  and  O_21
REMARK    4  A    between atoms: C_7  and  C_8
REMARK    5  A    between atoms: C_10  and  O_12
REMARK    6  A    between atoms: C_13  and  O_15
REMARK    7  A    between atoms: C_16  and  O_20
REMARK    8  A    between atoms: C_25  and  C_27
REMARK    9  A    between atoms: C_30  and  O_33
REMARK   10  A    between atoms: C_37  and  C_39
REMARK   11  A    between atoms: C_39  and  O_40
REMARK   12  A    between atoms: C_41  and  O_49
REMARK   13  A    between atoms: C_43  and  O_48
REMARK   14  A    between atoms: C_45  and  O_47
REMARK                            x       y       z     vdW  Elec       q    Type
REMARK                         _______ _______ _______ _____ _____    ______ ____
ROOT
ATOM      1  C   LIG A   1      -7.204   3.807 128.311  0.00  0.00    +0.135 A 
ATOM      2  C   LIG A   1      -6.509   4.510 129.337  0.00  0.00    +0.069 A 
ATOM      3  C   LIG A   1      -5.144   4.809 129.117  0.00  0.00    +0.152 A 
ATOM      4  C   LIG A   1      -4.523   4.372 127.938  0.00  0.00    +0.106 A 
ATOM      5  C   LIG A   1      -5.229   3.646 126.965  0.00  0.00    +0.140 A 
ATOM      6  C   LIG A   1      -6.596   3.377 127.106  0.00  0.00    +0.068 A 
ATOM      7  C   LIG A   1      -3.104   4.678 127.731  0.00  0.00    +0.197 A 
ATOM      8  O   LIG A   1      -2.511   4.331 126.707  0.00  0.00    -0.287 OA
ATOM      9  C   LIG A   1      -2.412   5.419 128.775  0.00  0.00    +0.098 A 
ATOM     10  C   LIG A   1      -3.094   5.817 129.858  0.00  0.00    +0.139 A 
ATOM     11  O   LIG A   1      -4.442   5.523 130.074  0.00  0.00    -0.454 OA
ENDROOT
BRANCH   6  12
ATOM     12  C   LIG A   1      -7.322   2.615 125.985  0.00  0.00    +0.186 C 
ATOM     13  C   LIG A   1      -7.988   3.539 124.915  0.00  0.00    +0.179 C 
ATOM     14  C   LIG A   1      -8.667   2.681 123.837  0.00  0.00    +0.176 C 
ATOM     15  C   LIG A   1      -9.668   1.726 124.498  0.00  0.00    +0.171 C 
ATOM     16  C   LIG A   1      -8.964   0.915 125.586  0.00  0.00    +0.194 C 
ATOM     17  O   LIG A   1      -8.339   1.759 126.559  0.00  0.00    -0.366 OA
BRANCH  13  18
ATOM     18  O   LIG A   1      -9.013   4.375 125.487  0.00  0.00    -0.386 OA
ATOM     19  H   LIG A   1      -8.746   4.599 126.397  0.00  0.00    +0.210 HD
ENDBRANCH  13  18
BRANCH  14  20
ATOM     20  O   LIG A   1      -7.703   1.927 123.090  0.00  0.00    -0.387 OA
ATOM     21  H   LIG A   1      -7.673   2.338 122.203  0.00  0.00    +0.210 HD
ENDBRANCH  14  20
BRANCH  15  22
ATOM     22  O   LIG A   1     -10.220   0.853 123.509  0.00  0.00    -0.387 OA
ATOM     23  H   LIG A   1     -10.121   1.305 122.651  0.00  0.00    +0.210 HD
ENDBRANCH  15  22
ENDBRANCH   6  12
BRANCH  10  24
ATOM     24  C   LIG A   1      -2.411   6.600 130.922  0.00  0.00    +0.018 A 
ATOM     25  C   LIG A   1      -1.122   6.250 131.380  0.00  0.00    +0.015 A 
ATOM     26  C   LIG A   1      -0.478   6.977 132.388  0.00  0.00    +0.046 A 
ATOM     27  C   LIG A   1      -1.115   8.077 132.942  0.00  0.00    +0.117 A 
ATOM     28  C   LIG A   1      -2.380   8.451 132.509  0.00  0.00    +0.046 A 
ATOM     29  C   LIG A   1      -3.026   7.717 131.505  0.00  0.00    +0.015 A 
BRANCH  27  30
ATOM     30  O   LIG A   1      -0.526   8.821 133.920  0.00  0.00    -0.507 OA
ATOM     31  H   LIG A   1       0.399   8.990 133.673  0.00  0.00    +0.292 HD
ENDBRANCH  27  30
ENDBRANCH  10  24
BRANCH   2  32
ATOM     32  C   LIG A   1      -7.220   4.897 130.647  0.00  0.00    +0.187 C 
ATOM     33  O   LIG A   1      -7.870   3.709 131.159  0.00  0.00    -0.361 OA
ATOM     34  C   LIG A   1      -8.631   3.931 132.353  0.00  0.00    +0.175 C 
ATOM     35  C   LIG A   1      -9.778   4.913 132.079  0.00  0.00    +0.176 C 
ATOM     36  C   LIG A   1      -9.160   6.243 131.656  0.00  0.00    +0.177 C 
ATOM     37  C   LIG A   1      -8.195   6.095 130.473  0.00  0.00    +0.179 C 
BRANCH  37  38
ATOM     38  O   LIG A   1      -7.458   7.330 130.359  0.00  0.00    -0.386 OA
ATOM     39  H   LIG A   1      -6.707   7.228 130.978  0.00  0.00    +0.210 HD
ENDBRANCH  37  38
BRANCH  36  40
ATOM     40  O   LIG A   1     -10.198   7.180 131.311  0.00  0.00    -0.387 OA
ATOM     41  H   LIG A   1     -10.998   6.627 131.186  0.00  0.00    +0.210 HD
ENDBRANCH  36  40
BRANCH  35  42
ATOM     42  O   LIG A   1     -10.599   5.182 133.226  0.00  0.00    -0.387 OA
ATOM     43  H   LIG A   1     -11.334   5.761 132.924  0.00  0.00    +0.210 HD
ENDBRANCH  35  42
BRANCH  34  44
ATOM     44  C   LIG A   1      -9.152   2.584 132.877  0.00  0.00    +0.190 C 
BRANCH  44  45
ATOM     45  O   LIG A   1     -10.362   2.217 132.211  0.00  0.00    -0.392 OA
ATOM     46  H   LIG A   1     -10.212   2.365 131.257  0.00  0.00    +0.209 HD
ENDBRANCH  44  45
ENDBRANCH  34  44
ENDBRANCH   2  32
BRANCH   1  47
ATOM     47  O   LIG A   1      -8.533   3.548 128.543  0.00  0.00    -0.506 OA
ATOM     48  H   LIG A   1      -8.597   2.657 128.951  0.00  0.00    +0.292 HD
ENDBRANCH   1  47
BRANCH   5  49
ATOM     49  O   LIG A   1      -4.600   3.153 125.845  0.00  0.00    -0.505 OA
ATOM     50  H   LIG A   1      -5.275   2.783 125.229  0.00  0.00    +0.292 HD
ENDBRANCH   5  49
TORSDOF 14
ENDMDL
MODEL 2
REMARK VINA RESULT:      -8.5      4.226      7.770
REMARK  Name = NuBBE_1249
REMARK  14 active torsions:
REMARK  status: ('A' for Active; 'I' for Inactive)
REMARK    1  A    between atoms: O_1  and  C_2
REMARK    2  A    between atoms: C_3  and  C_34
REMARK    3  A    between atoms: C_6  and  O_21
REMARK    4  A    between atoms: C_7  and  C_8
REMARK    5  A    between atoms: C_10  and  O_12
REMARK    6  A    between atoms: C_13  and  O_15
REMARK    7  A    between atoms: C_16  and  O_20
REMARK    8  A    between atoms: C_25  and  C_27
REMARK    9  A    between atoms: C_30  and  O_33
REMARK   10  A    between atoms: C_37  and  C_39
REMARK   11  A    between atoms: C_39  and  O_40
REMARK   12  A    between atoms: C_41  and  O_49
REMARK   13  A    between atoms: C_43  and  O_48
REMARK   14  A    between atoms: C_45  and  O_47
REMARK                            x       y       z     vdW  Elec       q    Type
REMARK                         _______ _______ _______ _____ _____    ______ ____
ROOT
ATOM      1  C   LIG A   1      -7.194   1.597 128.227  0.00  0.00    +0.135 A 
ATOM      2  C   LIG A   1      -7.926   2.798 127.999  0.00  0.00    +0.069 A 
ATOM      3  C   LIG A   1      -8.660   3.333 129.082  0.00  0.00    +0.152 A 
ATOM      4  C   LIG A   1      -8.680   2.651 130.308  0.00  0.00    +0.106 A 
ATOM      5  C   LIG A   1      -7.979   1.447 130.485  0.00  0.00    +0.140 A 
ATOM      6  C   LIG A   1      -7.187   0.908 129.465  0.00  0.00    +0.068 A 
ATOM      7  C   LIG A   1      -9.457   3.212 131.416  0.00  0.00    +0.197 A 
ATOM      8  O   LIG A   1      -9.498   2.663 132.520  0.00  0.00    -0.287 OA
ATOM      9  C   LIG A   1     -10.178   4.454 131.178  0.00  0.00    +0.098 A 
ATOM     10  C   LIG A   1     -10.082   5.048 129.981  0.00  0.00    +0.139 A 
ATOM     11  O   LIG A   1      -9.355   4.520 128.912  0.00  0.00    -0.454 OA
ENDROOT
BRANCH   6  12
ATOM     12  C   LIG A   1      -6.410  -0.391 129.737  0.00  0.00    +0.186 C 
ATOM     13  C   LIG A   1      -4.908  -0.169 130.106  0.00  0.00    +0.179 C 
ATOM     14  C   LIG A   1      -4.233  -1.522 130.373  0.00  0.00    +0.176 C 
ATOM     15  C   LIG A   1      -4.412  -2.434 129.154  0.00  0.00    +0.171 C 
ATOM     16  C   LIG A   1      -5.896  -2.538 128.804  0.00  0.00    +0.194 C 
ATOM     17  O   LIG A   1      -6.481  -1.252 128.574  0.00  0.00    -0.366 OA
BRANCH  13  18
ATOM     18  O   LIG A   1      -4.176   0.457 129.034  0.00  0.00    -0.386 OA
ATOM     19  H   LIG A   1      -4.599   1.312 128.838  0.00  0.00    +0.210 HD
ENDBRANCH  13  18
BRANCH  14  20
ATOM     20  O   LIG A   1      -4.784  -2.157 131.535  0.00  0.00    -0.387 OA
ATOM     21  H   LIG A   1      -5.643  -1.719 131.696  0.00  0.00    +0.210 HD
ENDBRANCH  14  20
BRANCH  15  22
ATOM     22  O   LIG A   1      -3.879  -3.729 129.443  0.00  0.00    -0.387 OA
ATOM     23  H   LIG A   1      -3.019  -3.785 128.986  0.00  0.00    +0.210 HD
ENDBRANCH  15  22
ENDBRANCH   6  12
BRANCH  10  24
ATOM     24  C   LIG A   1     -10.789   6.332 129.727  0.00  0.00    +0.018 A 
ATOM     25  C   LIG A   1     -10.390   7.198 128.686  0.00  0.00    +0.015 A 
ATOM     26  C   LIG A   1     -11.045   8.412 128.448  0.00  0.00    +0.046 A 
ATOM     27  C   LIG A   1     -12.121   8.768 129.246  0.00  0.00    +0.117 A 
ATOM     28  C   LIG A   1     -12.543   7.935 130.274  0.00  0.00    +0.046 A 
ATOM     29  C   LIG A   1     -11.881   6.723 130.515  0.00  0.00    +0.015 A 
BRANCH  27  30
ATOM     30  O   LIG A   1     -12.797   9.935 129.049  0.00  0.00    -0.507 OA
ATOM     31  H   LIG A   1     -12.935  10.368 129.909  0.00  0.00    +0.292 HD
ENDBRANCH  27  30
ENDBRANCH  10  24
BRANCH   2  32
ATOM     32  C   LIG A   1      -7.933   3.463 126.610  0.00  0.00    +0.187 C 
ATOM     33  O   LIG A   1      -8.570   2.545 125.689  0.00  0.00    -0.361 OA
ATOM     34  C   LIG A   1      -8.593   3.005 124.332  0.00  0.00    +0.175 C 
ATOM     35  C   LIG A   1      -7.163   3.163 123.797  0.00  0.00    +0.176 C 
ATOM     36  C   LIG A   1      -6.464   4.221 124.645  0.00  0.00    +0.177 C 
ATOM     37  C   LIG A   1      -6.517   3.906 126.145  0.00  0.00    +0.179 C 
BRANCH  37  38
ATOM     38  O   LIG A   1      -6.104   5.092 126.853  0.00  0.00    -0.386 OA
ATOM     39  H   LIG A   1      -5.747   5.683 126.158  0.00  0.00    +0.210 HD
ENDBRANCH  37  38
BRANCH  36  40
ATOM     40  O   LIG A   1      -5.090   4.352 124.234  0.00  0.00    -0.387 OA
ATOM     41  H   LIG A   1      -4.649   3.550 124.587  0.00  0.00    +0.210 HD
ENDBRANCH  36  40
BRANCH  35  42
ATOM     42  O   LIG A   1      -7.099   3.612 122.434  0.00  0.00    -0.387 OA
ATOM     43  H   LIG A   1      -8.014   3.859 122.171  0.00  0.00    +0.210 HD
ENDBRANCH  35  42
BRANCH  34  44
ATOM     44  C   LIG A   1      -9.412   2.023 123.480  0.00  0.00    +0.190 C 
BRANCH  44  45
ATOM     45  O   LIG A   1     -10.636   1.687 124.136  0.00  0.00    -0.392 OA
ATOM     46  H   LIG A   1     -11.330   1.678 123.449  0.00  0.00    +0.209 HD
ENDBRANCH  44  45
ENDBRANCH  34  44
ENDBRANCH   2  32
BRANCH   1  47
ATOM     47  O   LIG A   1      -6.474   1.110 127.163  0.00  0.00    -0.506 OA
ATOM     48  H   LIG A   1      -6.772   0.190 126.996  0.00  0.00    +0.292 HD
ENDBRANCH   1  47
BRANCH   5  49
ATOM     49  O   LIG A   1      -8.060   0.741 131.664  0.00  0.00    -0.505 OA
ATOM     50  H   LIG A   1      -9.006   0.653 131.925  0.00  0.00    +0.292 HD
ENDBRANCH   5  49
TORSDOF 14
ENDMDL
MODEL 3
REMARK VINA RESULT:      -8.0      1.549      7.995
REMARK  Name = NuBBE_1249
REMARK  14 active torsions:
REMARK  status: ('A' for Active; 'I' for Inactive)
REMARK    1  A    between atoms: O_1  and  C_2
REMARK    2  A    between atoms: C_3  and  C_34
REMARK    3  A    between atoms: C_6  and  O_21
REMARK    4  A    between atoms: C_7  and  C_8
REMARK    5  A    between atoms: C_10  and  O_12
REMARK    6  A    between atoms: C_13  and  O_15
REMARK    7  A    between atoms: C_16  and  O_20
REMARK    8  A    between atoms: C_25  and  C_27
REMARK    9  A    between atoms: C_30  and  O_33
REMARK   10  A    between atoms: C_37  and  C_39
REMARK   11  A    between atoms: C_39  and  O_40
REMARK   12  A    between atoms: C_41  and  O_49
REMARK   13  A    between atoms: C_43  and  O_48
REMARK   14  A    between atoms: C_45  and  O_47
REMARK                            x       y       z     vdW  Elec       q    Type
REMARK                         _______ _______ _______ _____ _____    ______ ____
ROOT
ATOM      1  C   LIG A   1      -5.749   5.294 129.997  0.00  0.00    +0.135 A 
ATOM      2  C   LIG A   1      -6.742   4.701 129.165  0.00  0.00    +0.069 A 
ATOM      3  C   LIG A   1      -6.330   4.200 127.909  0.00  0.00    +0.152 A 
ATOM      4  C   LIG A   1      -4.992   4.342 127.513  0.00  0.00    +0.106 A 
ATOM      5  C   LIG A   1      -4.047   4.967 128.343  0.00  0.00    +0.140 A 
ATOM      6  C   LIG A   1      -4.389   5.425 129.621  0.00  0.00    +0.068 A 
ATOM      7  C   LIG A   1      -4.584   3.829 126.202  0.00  0.00    +0.197 A 
ATOM      8  O   LIG A   1      -3.418   3.913 125.810  0.00  0.00    -0.287 OA
ATOM      9  C   LIG A   1      -5.603   3.202 125.373  0.00  0.00    +0.098 A 
ATOM     10  C   LIG A   1      -6.853   3.089 125.844  0.00  0.00    +0.139 A 
ATOM     11  O   LIG A   1      -7.259   3.583 127.085  0.00  0.00    -0.454 OA
ENDROOT
BRANCH   6  12
ATOM     12  C   LIG A   1      -3.298   6.063 130.497  0.00  0.00    +0.186 C 
ATOM     13  C   LIG A   1      -2.631   5.072 131.505  0.00  0.00    +0.179 C 
ATOM     14  C   LIG A   1      -1.550   5.803 132.314  0.00  0.00    +0.176 C 
ATOM     15  C   LIG A   1      -2.166   7.024 133.007  0.00  0.00    +0.171 C 
ATOM     16  C   LIG A   1      -2.868   7.903 131.971  0.00  0.00    +0.194 C 
ATOM     17  O   LIG A   1      -3.858   7.175 131.238  0.00  0.00    -0.366 OA
BRANCH  13  18
ATOM     18  O   LIG A   1      -3.580   4.550 132.456  0.00  0.00    -0.386 OA
ATOM     19  H   LIG A   1      -4.252   4.044 131.964  0.00  0.00    +0.210 HD
ENDBRANCH  13  18
BRANCH  14  20
ATOM     20  O   LIG A   1      -0.467   6.222 131.474  0.00  0.00    -0.387 OA
ATOM     21  H   LIG A   1       0.208   6.596 132.076  0.00  0.00    +0.210 HD
ENDBRANCH  14  20
BRANCH  15  22
ATOM     22  O   LIG A   1      -1.140   7.766 133.671  0.00  0.00    -0.387 OA
ATOM     23  H   LIG A   1      -1.579   8.287 134.368  0.00  0.00    +0.210 HD
ENDBRANCH  15  22
ENDBRANCH   6  12
BRANCH  10  24
ATOM     24  C   LIG A   1      -7.901   2.427 125.023  0.00  0.00    +0.018 A 
ATOM     25  C   LIG A   1      -8.101   2.771 123.668  0.00  0.00    +0.015 A 
ATOM     26  C   LIG A   1      -9.092   2.158 122.893  0.00  0.00    +0.046 A 
ATOM     27  C   LIG A   1      -9.890   1.179 123.465  0.00  0.00    +0.117 A 
ATOM     28  C   LIG A   1      -9.714   0.813 124.793  0.00  0.00    +0.046 A 
ATOM     29  C   LIG A   1      -8.725   1.434 125.569  0.00  0.00    +0.015 A 
BRANCH  27  30
ATOM     30  O   LIG A   1     -10.863   0.547 122.749  0.00  0.00    -0.507 OA
ATOM     31  H   LIG A   1     -11.379   1.212 122.264  0.00  0.00    +0.292 HD
ENDBRANCH  27  30
ENDBRANCH  10  24
BRANCH   2  32
ATOM     32  C   LIG A   1      -8.213   4.643 129.616  0.00  0.00    +0.187 C 
ATOM     33  O   LIG A   1      -8.737   5.992 129.576  0.00  0.00    -0.361 OA
ATOM     34  C   LIG A   1     -10.090   6.105 130.034  0.00  0.00    +0.175 C 
ATOM     35  C   LIG A   1     -10.190   5.693 131.509  0.00  0.00    +0.176 C 
ATOM     36  C   LIG A   1      -9.776   4.228 131.611  0.00  0.00    +0.177 C 
ATOM     37  C   LIG A   1      -8.393   3.962 131.002  0.00  0.00    +0.179 C 
BRANCH  37  38
ATOM     38  O   LIG A   1      -8.239   2.533 130.884  0.00  0.00    -0.386 OA
ATOM     39  H   LIG A   1      -8.144   2.217 131.805  0.00  0.00    +0.210 HD
ENDBRANCH  37  38
BRANCH  36  40
ATOM     40  O   LIG A   1      -9.777   3.811 132.990  0.00  0.00    -0.387 OA
ATOM     41  H   LIG A   1      -9.673   2.837 132.953  0.00  0.00    +0.210 HD
ENDBRANCH  36  40
BRANCH  35  42
ATOM     42  O   LIG A   1     -11.518   5.788 132.049  0.00  0.00    -0.387 OA
ATOM     43  H   LIG A   1     -11.627   5.037 132.675  0.00  0.00    +0.210 HD
ENDBRANCH  35  42
BRANCH  34  44
ATOM     44  C   LIG A   1     -10.579   7.545 129.813  0.00  0.00    +0.190 C 
BRANCH  44  45
ATOM     45  O   LIG A   1      -9.830   8.177 128.773  0.00  0.00    -0.392 OA
ATOM     46  H   LIG A   1     -10.353   8.084 127.954  0.00  0.00    +0.209 HD
ENDBRANCH  44  45
ENDBRANCH  34  44
ENDBRANCH   2  32
BRANCH   1  47
ATOM     47  O   LIG A   1      -6.173   5.754 131.220  0.00  0.00    -0.506 OA
ATOM     48  H   LIG A   1      -6.482   4.980 131.740  0.00  0.00    +0.292 HD
ENDBRANCH   1  47
BRANCH   5  49
ATOM     49  O   LIG A   1      -2.753   5.172 127.923  0.00  0.00    -0.505 OA
ATOM     50  H   LIG A   1      -2.500   4.461 127.289  0.00  0.00    +0.292 HD
ENDBRANCH   5  49
TORSDOF 14
ENDMDL
MODEL 4
REMARK VINA RESULT:      -7.9      4.252      8.018
REMARK  Name = NuBBE_1249
REMARK  14 active torsions:
REMARK  status: ('A' for Active; 'I' for Inactive)
REMARK    1  A    between atoms: O_1  and  C_2
REMARK    2  A    between atoms: C_3  and  C_34
REMARK    3  A    between atoms: C_6  and  O_21
REMARK    4  A    between atoms: C_7  and  C_8
REMARK    5  A    between atoms: C_10  and  O_12
REMARK    6  A    between atoms: C_13  and  O_15
REMARK    7  A    between atoms: C_16  and  O_20
REMARK    8  A    between atoms: C_25  and  C_27
REMARK    9  A    between atoms: C_30  and  O_33
REMARK   10  A    between atoms: C_37  and  C_39
REMARK   11  A    between atoms: C_39  and  O_40
REMARK   12  A    between atoms: C_41  and  O_49
REMARK   13  A    between atoms: C_43  and  O_48
REMARK   14  A    between atoms: C_45  and  O_47
REMARK                            x       y       z     vdW  Elec       q    Type
REMARK                         _______ _______ _______ _____ _____    ______ ____
ROOT
ATOM      1  C   LIG A   1      -7.635   1.190 129.734  0.00  0.00    +0.135 A 
ATOM      2  C   LIG A   1      -8.365   2.311 129.241  0.00  0.00    +0.069 A 
ATOM      3  C   LIG A   1      -8.873   3.229 130.189  0.00  0.00    +0.152 A 
ATOM      4  C   LIG A   1      -8.685   2.985 131.557  0.00  0.00    +0.106 A 
ATOM      5  C   LIG A   1      -7.995   1.848 132.009  0.00  0.00    +0.140 A 
ATOM      6  C   LIG A   1      -7.418   0.942 131.112  0.00  0.00    +0.068 A 
ATOM      7  C   LIG A   1      -9.230   3.940 132.527  0.00  0.00    +0.197 A 
ATOM      8  O   LIG A   1      -9.081   3.782 133.741  0.00  0.00    -0.287 OA
ATOM      9  C   LIG A   1      -9.950   5.094 132.010  0.00  0.00    +0.098 A 
ATOM     10  C   LIG A   1     -10.060   5.258 130.684  0.00  0.00    +0.139 A 
ATOM     11  O   LIG A   1      -9.556   4.352 129.749  0.00  0.00    -0.454 OA
ENDROOT
BRANCH   6  12
ATOM     12  C   LIG A   1      -6.639  -0.261 131.670  0.00  0.00    +0.186 C 
ATOM     13  C   LIG A   1      -5.088  -0.067 131.674  0.00  0.00    +0.179 C 
ATOM     14  C   LIG A   1      -4.410  -1.313 132.264  0.00  0.00    +0.176 C 
ATOM     15  C   LIG A   1      -4.848  -2.554 131.479  0.00  0.00    +0.171 C 
ATOM     16  C   LIG A   1      -6.375  -2.633 131.449  0.00  0.00    +0.194 C 
ATOM     17  O   LIG A   1      -6.958  -1.446 130.901  0.00  0.00    -0.366 OA
BRANCH  13  18
ATOM     18  O   LIG A   1      -4.562   0.102 130.343  0.00  0.00    -0.386 OA
ATOM     19  H   LIG A   1      -4.167   0.990 130.285  0.00  0.00    +0.210 HD
ENDBRANCH  13  18
BRANCH  14  20
ATOM     20  O   LIG A   1      -4.742  -1.477 133.649  0.00  0.00    -0.387 OA
ATOM     21  H   LIG A   1      -5.259  -2.307 133.703  0.00  0.00    +0.210 HD
ENDBRANCH  14  20
BRANCH  15  22
ATOM     22  O   LIG A   1      -4.304  -3.725 132.094  0.00  0.00    -0.387 OA
ATOM     23  H   LIG A   1      -3.504  -3.960 131.588  0.00  0.00    +0.210 HD
ENDBRANCH  15  22
ENDBRANCH   6  12
BRANCH  10  24
ATOM     24  C   LIG A   1     -10.768   6.445 130.137  0.00  0.00    +0.018 A 
ATOM     25  C   LIG A   1     -10.253   7.167 129.038  0.00  0.00    +0.015 A 
ATOM     26  C   LIG A   1     -10.910   8.291 128.523  0.00  0.00    +0.046 A 
ATOM     27  C   LIG A   1     -12.103   8.700 129.099  0.00  0.00    +0.117 A 
ATOM     28  C   LIG A   1     -12.639   8.008 130.177  0.00  0.00    +0.046 A 
ATOM     29  C   LIG A   1     -11.976   6.887 130.694  0.00  0.00    +0.015 A 
BRANCH  27  30
ATOM     30  O   LIG A   1     -12.784   9.784 128.629  0.00  0.00    -0.507 OA
ATOM     31  H   LIG A   1     -12.421  10.031 127.762  0.00  0.00    +0.292 HD
ENDBRANCH  27  30
ENDBRANCH  10  24
BRANCH   2  32
ATOM     32  C   LIG A   1      -8.610   2.488 127.731  0.00  0.00    +0.187 C 
ATOM     33  O   LIG A   1      -8.756   1.168 127.154  0.00  0.00    -0.361 OA
ATOM     34  C   LIG A   1      -8.930   1.171 125.732  0.00  0.00    +0.175 C 
ATOM     35  C   LIG A   1      -7.690   1.760 125.045  0.00  0.00    +0.176 C 
ATOM     36  C   LIG A   1      -7.545   3.207 125.508  0.00  0.00    +0.177 C 
ATOM     37  C   LIG A   1      -7.508   3.337 127.036  0.00  0.00    +0.179 C 
BRANCH  37  38
ATOM     38  O   LIG A   1      -7.672   4.733 127.357  0.00  0.00    -0.386 OA
ATOM     39  H   LIG A   1      -7.874   4.745 128.315  0.00  0.00    +0.210 HD
ENDBRANCH  37  38
BRANCH  36  40
ATOM     40  O   LIG A   1      -6.349   3.784 124.952  0.00  0.00    -0.387 OA
ATOM     41  H   LIG A   1      -6.658   4.586 124.479  0.00  0.00    +0.210 HD
ENDBRANCH  36  40
BRANCH  35  42
ATOM     42  O   LIG A   1      -7.779   1.789 123.612  0.00  0.00    -0.387 OA
ATOM     43  H   LIG A   1      -7.938   0.865 123.315  0.00  0.00    +0.210 HD
ENDBRANCH  35  42
BRANCH  34  44
ATOM     44  C   LIG A   1      -9.215  -0.261 125.255  0.00  0.00    +0.190 C 
BRANCH  44  45
ATOM     45  O   LIG A   1      -9.726  -0.255 123.921  0.00  0.00    -0.392 OA
ATOM     46  H   LIG A   1      -8.961  -0.130 123.327  0.00  0.00    +0.209 HD
ENDBRANCH  44  45
ENDBRANCH  34  44
ENDBRANCH   2  32
BRANCH   1  47
ATOM     47  O   LIG A   1      -7.136   0.326 128.790  0.00  0.00    -0.506 OA
ATOM     48  H   LIG A   1      -6.668   0.861 128.112  0.00  0.00    +0.292 HD
ENDBRANCH   1  47
BRANCH   5  49
ATOM     49  O   LIG A   1      -7.876   1.572 133.352  0.00  0.00    -0.505 OA
ATOM     50  H   LIG A   1      -7.057   1.996 133.699  0.00  0.00    +0.292 HD
ENDBRANCH   5  49
TORSDOF 14
ENDMDL
MODEL 5
REMARK VINA RESULT:      -7.8      3.702      8.212
REMARK  Name = NuBBE_1249
REMARK  14 active torsions:
REMARK  status: ('A' for Active; 'I' for Inactive)
REMARK    1  A    between atoms: O_1  and  C_2
REMARK    2  A    between atoms: C_3  and  C_34
REMARK    3  A    between atoms: C_6  and  O_21
REMARK    4  A    between atoms: C_7  and  C_8
REMARK    5  A    between atoms: C_10  and  O_12
REMARK    6  A    between atoms: C_13  and  O_15
REMARK    7  A    between atoms: C_16  and  O_20
REMARK    8  A    between atoms: C_25  and  C_27
REMARK    9  A    between atoms: C_30  and  O_33
REMARK   10  A    between atoms: C_37  and  C_39
REMARK   11  A    between atoms: C_39  and  O_40
REMARK   12  A    between atoms: C_41  and  O_49
REMARK   13  A    between atoms: C_43  and  O_48
REMARK   14  A    between atoms: C_45  and  O_47
REMARK                            x       y       z     vdW  Elec       q    Type
REMARK                         _______ _______ _______ _____ _____    ______ ____
ROOT
ATOM      1  C   LIG A   1      -5.451   2.436 130.846  0.00  0.00    +0.135 A 
ATOM      2  C   LIG A   1      -6.178   3.552 130.340  0.00  0.00    +0.069 A 
ATOM      3  C   LIG A   1      -7.576   3.574 130.552  0.00  0.00    +0.152 A 
ATOM      4  C   LIG A   1      -8.193   2.495 131.202  0.00  0.00    +0.106 A 
ATOM      5  C   LIG A   1      -7.451   1.392 131.653  0.00  0.00    +0.140 A 
ATOM      6  C   LIG A   1      -6.058   1.348 131.523  0.00  0.00    +0.068 A 
ATOM      7  C   LIG A   1      -9.645   2.527 131.402  0.00  0.00    +0.197 A 
ATOM      8  O   LIG A   1     -10.238   1.613 131.980  0.00  0.00    -0.287 OA
ATOM      9  C   LIG A   1     -10.372   3.685 130.904  0.00  0.00    +0.098 A 
ATOM     10  C   LIG A   1      -9.694   4.681 130.316  0.00  0.00    +0.139 A 
ATOM     11  O   LIG A   1      -8.314   4.660 130.108  0.00  0.00    -0.454 OA
ENDROOT
BRANCH   6  12
ATOM     12  C   LIG A   1      -5.298   0.131 132.076  0.00  0.00    +0.186 C 
ATOM     13  C   LIG A   1      -4.655   0.366 133.481  0.00  0.00    +0.179 C 
ATOM     14  C   LIG A   1      -3.939  -0.911 133.945  0.00  0.00    +0.176 C 
ATOM     15  C   LIG A   1      -2.912  -1.336 132.890  0.00  0.00    +0.171 C 
ATOM     16  C   LIG A   1      -3.597  -1.467 131.529  0.00  0.00    +0.194 C 
ATOM     17  O   LIG A   1      -4.257  -0.256 131.146  0.00  0.00    -0.366 OA
BRANCH  13  18
ATOM     18  O   LIG A   1      -3.663   1.412 133.452  0.00  0.00    -0.386 OA
ATOM     19  H   LIG A   1      -3.692   1.831 132.573  0.00  0.00    +0.210 HD
ENDBRANCH  13  18
BRANCH  14  20
ATOM     20  O   LIG A   1      -4.872  -1.977 134.167  0.00  0.00    -0.387 OA
ATOM     21  H   LIG A   1      -4.519  -2.746 133.674  0.00  0.00    +0.210 HD
ENDBRANCH  14  20
BRANCH  15  22
ATOM     22  O   LIG A   1      -2.323  -2.582 133.270  0.00  0.00    -0.387 OA
ATOM     23  H   LIG A   1      -1.916  -2.954 132.466  0.00  0.00    +0.210 HD
ENDBRANCH  15  22
ENDBRANCH   6  12
BRANCH  10  24
ATOM     24  C   LIG A   1     -10.416   5.885 129.825  0.00  0.00    +0.018 A 
ATOM     25  C   LIG A   1     -11.826   5.958 129.846  0.00  0.00    +0.015 A 
ATOM     26  C   LIG A   1     -12.511   7.084 129.378  0.00  0.00    +0.046 A 
ATOM     27  C   LIG A   1     -11.789   8.163 128.891  0.00  0.00    +0.117 A 
ATOM     28  C   LIG A   1     -10.401   8.126 128.863  0.00  0.00    +0.046 A 
ATOM     29  C   LIG A   1      -9.717   6.993 129.326  0.00  0.00    +0.015 A 
BRANCH  27  30
ATOM     30  O   LIG A   1     -12.410   9.286 128.431  0.00  0.00    -0.507 OA
ATOM     31  H   LIG A   1     -11.799  10.038 128.510  0.00  0.00    +0.292 HD
ENDBRANCH  27  30
ENDBRANCH  10  24
BRANCH   2  32
ATOM     32  C   LIG A   1      -5.460   4.671 129.564  0.00  0.00    +0.187 C 
ATOM     33  O   LIG A   1      -4.646   4.044 128.544  0.00  0.00    -0.361 OA
ATOM     34  C   LIG A   1      -3.864   4.966 127.775  0.00  0.00    +0.175 C 
ATOM     35  C   LIG A   1      -2.860   5.697 128.679  0.00  0.00    +0.176 C 
ATOM     36  C   LIG A   1      -3.656   6.493 129.708  0.00  0.00    +0.177 C 
ATOM     37  C   LIG A   1      -4.650   5.623 130.488  0.00  0.00    +0.179 C 
BRANCH  37  38
ATOM     38  O   LIG A   1      -5.537   6.509 131.199  0.00  0.00    -0.386 OA
ATOM     39  H   LIG A   1      -6.123   5.915 131.711  0.00  0.00    +0.210 HD
ENDBRANCH  37  38
BRANCH  36  40
ATOM     40  O   LIG A   1      -2.759   7.137 130.632  0.00  0.00    -0.387 OA
ATOM     41  H   LIG A   1      -1.899   6.684 130.499  0.00  0.00    +0.210 HD
ENDBRANCH  36  40
BRANCH  35  42
ATOM     42  O   LIG A   1      -2.027   6.635 127.980  0.00  0.00    -0.387 OA
ATOM     43  H   LIG A   1      -1.336   6.113 127.514  0.00  0.00    +0.210 HD
ENDBRANCH  35  42
BRANCH  34  44
ATOM     44  C   LIG A   1      -3.157   4.206 126.642  0.00  0.00    +0.190 C 
BRANCH  44  45
ATOM     45  O   LIG A   1      -1.801   3.924 126.994  0.00  0.00    -0.392 OA
ATOM     46  H   LIG A   1      -1.806   3.645 127.929  0.00  0.00    +0.209 HD
ENDBRANCH  44  45
ENDBRANCH  34  44
ENDBRANCH   2  32
BRANCH   1  47
ATOM     47  O   LIG A   1      -4.093   2.450 130.643  0.00  0.00    -0.506 OA
ATOM     48  H   LIG A   1      -3.930   2.241 129.697  0.00  0.00    +0.292 HD
ENDBRANCH   1  47
BRANCH   5  49
ATOM     49  O   LIG A   1      -8.067   0.301 132.223  0.00  0.00    -0.505 OA
ATOM     50  H   LIG A   1      -8.902   0.109 131.736  0.00  0.00    +0.292 HD
ENDBRANCH   5  49
TORSDOF 14
ENDMDL
MODEL 6
REMARK VINA RESULT:      -7.6      3.737      6.482
REMARK  Name = NuBBE_1249
REMARK  14 active torsions:
REMARK  status: ('A' for Active; 'I' for Inactive)
REMARK    1  A    between atoms: O_1  and  C_2
REMARK    2  A    between atoms: C_3  and  C_34
REMARK    3  A    between atoms: C_6  and  O_21
REMARK    4  A    between atoms: C_7  and  C_8
REMARK    5  A    between atoms: C_10  and  O_12
REMARK    6  A    between atoms: C_13  and  O_15
REMARK    7  A    between atoms: C_16  and  O_20
REMARK    8  A    between atoms: C_25  and  C_27
REMARK    9  A    between atoms: C_30  and  O_33
REMARK   10  A    between atoms: C_37  and  C_39
REMARK   11  A    between atoms: C_39  and  O_40
REMARK   12  A    between atoms: C_41  and  O_49
REMARK   13  A    between atoms: C_43  and  O_48
REMARK   14  A    between atoms: C_45  and  O_47
REMARK                            x       y       z     vdW  Elec       q    Type
REMARK                         _______ _______ _______ _____ _____    ______ ____
ROOT
ATOM      1  C   LIG A   1      -8.237   1.764 128.435  0.00  0.00    +0.135 A 
ATOM      2  C   LIG A   1      -8.198   1.377 129.806  0.00  0.00    +0.069 A 
ATOM      3  C   LIG A   1      -7.865   0.035 130.098  0.00  0.00    +0.152 A 
ATOM      4  C   LIG A   1      -7.633  -0.864 129.047  0.00  0.00    +0.106 A 
ATOM      5  C   LIG A   1      -7.718  -0.458 127.705  0.00  0.00    +0.140 A 
ATOM      6  C   LIG A   1      -7.983   0.873 127.362  0.00  0.00    +0.068 A 
ATOM      7  C   LIG A   1      -7.302  -2.256 129.367  0.00  0.00    +0.197 A 
ATOM      8  O   LIG A   1      -7.073  -3.085 128.482  0.00  0.00    -0.287 OA
ATOM      9  C   LIG A   1      -7.240  -2.632 130.771  0.00  0.00    +0.098 A 
ATOM     10  C   LIG A   1      -7.454  -1.699 131.709  0.00  0.00    +0.139 A 
ATOM     11  O   LIG A   1      -7.781  -0.372 131.420  0.00  0.00    -0.454 OA
ENDROOT
BRANCH   6  12
ATOM     12  C   LIG A   1      -8.022   1.263 125.875  0.00  0.00    +0.186 C 
ATOM     13  C   LIG A   1      -6.713   1.949 125.363  0.00  0.00    +0.179 C 
ATOM     14  C   LIG A   1      -6.850   2.280 123.870  0.00  0.00    +0.176 C 
ATOM     15  C   LIG A   1      -8.096   3.146 123.649  0.00  0.00    +0.171 C 
ATOM     16  C   LIG A   1      -9.319   2.450 124.246  0.00  0.00    +0.194 C 
ATOM     17  O   LIG A   1      -9.139   2.154 125.635  0.00  0.00    -0.366 OA
BRANCH  13  18
ATOM     18  O   LIG A   1      -6.455   3.193 126.044  0.00  0.00    -0.386 OA
ATOM     19  H   LIG A   1      -5.790   3.026 126.736  0.00  0.00    +0.210 HD
ENDBRANCH  13  18
BRANCH  14  20
ATOM     20  O   LIG A   1      -6.947   1.087 123.080  0.00  0.00    -0.387 OA
ATOM     21  H   LIG A   1      -6.071   0.655 123.142  0.00  0.00    +0.210 HD
ENDBRANCH  14  20
BRANCH  15  22
ATOM     22  O   LIG A   1      -8.284   3.364 122.249  0.00  0.00    -0.387 OA
ATOM     23  H   LIG A   1      -7.698   4.103 122.001  0.00  0.00    +0.210 HD
ENDBRANCH  15  22
ENDBRANCH   6  12
BRANCH  10  24
ATOM     24  C   LIG A   1      -7.368  -2.057 133.150  0.00  0.00    +0.018 A 
ATOM     25  C   LIG A   1      -8.252  -2.993 133.729  0.00  0.00    +0.015 A 
ATOM     26  C   LIG A   1      -8.182  -3.328 135.087  0.00  0.00    +0.046 A 
ATOM     27  C   LIG A   1      -7.212  -2.736 135.881  0.00  0.00    +0.117 A 
ATOM     28  C   LIG A   1      -6.323  -1.816 135.340  0.00  0.00    +0.046 A 
ATOM     29  C   LIG A   1      -6.400  -1.477 133.982  0.00  0.00    +0.015 A 
BRANCH  27  30
ATOM     30  O   LIG A   1      -7.098  -3.035 137.206  0.00  0.00    -0.507 OA
ATOM     31  H   LIG A   1      -6.357  -3.654 137.326  0.00  0.00    +0.292 HD
ENDBRANCH  27  30
ENDBRANCH  10  24
BRANCH   2  32
ATOM     32  C   LIG A   1      -8.541   2.386 130.917  0.00  0.00    +0.187 C 
ATOM     33  O   LIG A   1      -9.580   3.258 130.412  0.00  0.00    -0.361 OA
ATOM     34  C   LIG A   1      -9.961   4.297 131.323  0.00  0.00    +0.175 C 
ATOM     35  C   LIG A   1      -8.771   5.229 131.596  0.00  0.00    +0.176 C 
ATOM     36  C   LIG A   1      -7.674   4.399 132.256  0.00  0.00    +0.177 C 
ATOM     37  C   LIG A   1      -7.295   3.161 131.434  0.00  0.00    +0.179 C 
BRANCH  37  38
ATOM     38  O   LIG A   1      -6.489   2.312 132.275  0.00  0.00    -0.386 OA
ATOM     39  H   LIG A   1      -7.115   1.950 132.935  0.00  0.00    +0.210 HD
ENDBRANCH  37  38
BRANCH  36  40
ATOM     40  O   LIG A   1      -6.502   5.210 132.463  0.00  0.00    -0.387 OA
ATOM     41  H   LIG A   1      -6.809   5.947 133.033  0.00  0.00    +0.210 HD
ENDBRANCH  36  40
BRANCH  35  42
ATOM     42  O   LIG A   1      -9.074   6.308 132.495  0.00  0.00    -0.387 OA
ATOM     43  H   LIG A   1      -9.642   6.941 132.001  0.00  0.00    +0.210 HD
ENDBRANCH  35  42
BRANCH  34  44
ATOM     44  C   LIG A   1     -11.159   5.064 130.741  0.00  0.00    +0.190 C 
BRANCH  44  45
ATOM     45  O   LIG A   1     -11.861   5.759 131.774  0.00  0.00    -0.392 OA
ATOM     46  H   LIG A   1     -11.861   6.703 131.527  0.00  0.00    +0.209 HD
ENDBRANCH  44  45
ENDBRANCH  34  44
ENDBRANCH   2  32
BRANCH   1  47
ATOM     47  O   LIG A   1      -8.543   3.079 128.181  0.00  0.00    -0.506 OA
ATOM     48  H   LIG A   1      -8.289   3.604 128.971  0.00  0.00    +0.292 HD
ENDBRANCH   1  47
BRANCH   5  49
ATOM     49  O   LIG A   1      -7.564  -1.357 126.675  0.00  0.00    -0.505 OA
ATOM     50  H   LIG A   1      -6.849  -1.043 126.074  0.00  0.00    +0.292 HD
ENDBRANCH   5  49
TORSDOF 14
ENDMDL
MODEL 7
REMARK VINA RESULT:      -7.5      4.342      8.742
REMARK  Name = NuBBE_1249
REMARK  14 active torsions:
REMARK  status: ('A' for Active; 'I' for Inactive)
REMARK    1  A    between atoms: O_1  and  C_2
REMARK    2  A    between atoms: C_3  and  C_34
REMARK    3  A    between atoms: C_6  and  O_21
REMARK    4  A    between atoms: C_7  and  C_8
REMARK    5  A    between atoms: C_10  and  O_12
REMARK    6  A    between atoms: C_13  and  O_15
REMARK    7  A    between atoms: C_16  and  O_20
REMARK    8  A    between atoms: C_25  and  C_27
REMARK    9  A    between atoms: C_30  and  O_33
REMARK   10  A    between atoms: C_37  and  C_39
REMARK   11  A    between atoms: C_39  and  O_40
REMARK   12  A    between atoms: C_41  and  O_49
REMARK   13  A    between atoms: C_43  and  O_48
REMARK   14  A    between atoms: C_45  and  O_47
REMARK                            x       y       z     vdW  Elec       q    Type
REMARK                         _______ _______ _______ _____ _____    ______ ____
ROOT
ATOM      1  C   LIG A   1      -6.890   0.955 128.044  0.00  0.00    +0.135 A 
ATOM      2  C   LIG A   1      -7.213   1.237 126.685  0.00  0.00    +0.069 A 
ATOM      3  C   LIG A   1      -6.460   2.237 126.027  0.00  0.00    +0.152 A 
ATOM      4  C   LIG A   1      -5.471   2.936 126.735  0.00  0.00    +0.106 A 
ATOM      5  C   LIG A   1      -5.207   2.659 128.086  0.00  0.00    +0.140 A 
ATOM      6  C   LIG A   1      -5.879   1.637 128.766  0.00  0.00    +0.068 A 
ATOM      7  C   LIG A   1      -4.710   3.979 126.042  0.00  0.00    +0.197 A 
ATOM      8  O   LIG A   1      -3.819   4.614 126.611  0.00  0.00    -0.287 OA
ATOM      9  C   LIG A   1      -5.031   4.239 124.647  0.00  0.00    +0.098 A 
ATOM     10  C   LIG A   1      -5.977   3.504 124.044  0.00  0.00    +0.139 A 
ATOM     11  O   LIG A   1      -6.719   2.515 124.694  0.00  0.00    -0.454 OA
ENDROOT
BRANCH   6  12
ATOM     12  C   LIG A   1      -5.513   1.355 130.233  0.00  0.00    +0.186 C 
ATOM     13  C   LIG A   1      -4.493   0.186 130.421  0.00  0.00    +0.179 C 
ATOM     14  C   LIG A   1      -4.185   0.001 131.914  0.00  0.00    +0.176 C 
ATOM     15  C   LIG A   1      -5.491  -0.226 132.683  0.00  0.00    +0.171 C 
ATOM     16  C   LIG A   1      -6.467   0.913 132.387  0.00  0.00    +0.194 C 
ATOM     17  O   LIG A   1      -6.714   1.051 130.984  0.00  0.00    -0.366 OA
BRANCH  13  18
ATOM     18  O   LIG A   1      -5.018  -1.069 129.946  0.00  0.00    -0.386 OA
ATOM     19  H   LIG A   1      -4.571  -1.286 129.108  0.00  0.00    +0.210 HD
ENDBRANCH  13  18
BRANCH  14  20
ATOM     20  O   LIG A   1      -3.503   1.143 132.449  0.00  0.00    -0.387 OA
ATOM     21  H   LIG A   1      -2.850   1.406 131.769  0.00  0.00    +0.210 HD
ENDBRANCH  14  20
BRANCH  15  22
ATOM     22  O   LIG A   1      -5.216  -0.290 134.085  0.00  0.00    -0.387 OA
ATOM     23  H   LIG A   1      -4.617   0.453 134.285  0.00  0.00    +0.210 HD
ENDBRANCH  15  22
ENDBRANCH   6  12
BRANCH  10  24
ATOM     24  C   LIG A   1      -6.300   3.736 122.612  0.00  0.00    +0.018 A 
ATOM     25  C   LIG A   1      -7.587   3.468 122.095  0.00  0.00    +0.015 A 
ATOM     26  C   LIG A   1      -7.895   3.676 120.745  0.00  0.00    +0.046 A 
ATOM     27  C   LIG A   1      -6.916   4.168 119.896  0.00  0.00    +0.117 A 
ATOM     28  C   LIG A   1      -5.643   4.448 120.374  0.00  0.00    +0.046 A 
ATOM     29  C   LIG A   1      -5.335   4.233 121.725  0.00  0.00    +0.015 A 
BRANCH  27  30
ATOM     30  O   LIG A   1      -7.169   4.394 118.575  0.00  0.00    -0.507 OA
ATOM     31  H   LIG A   1      -6.380   4.790 118.167  0.00  0.00    +0.292 HD
ENDBRANCH  27  30
ENDBRANCH  10  24
BRANCH   2  32
ATOM     32  C   LIG A   1      -8.362   0.494 125.979  0.00  0.00    +0.187 C 
ATOM     33  O   LIG A   1      -7.944  -0.878 125.786  0.00  0.00    -0.361 OA
ATOM     34  C   LIG A   1      -8.896  -1.682 125.079  0.00  0.00    +0.175 C 
ATOM     35  C   LIG A   1      -9.106  -1.137 123.660  0.00  0.00    +0.176 C 
ATOM     36  C   LIG A   1      -9.676   0.273 123.784  0.00  0.00    +0.177 C 
ATOM     37  C   LIG A   1      -8.808   1.185 124.660  0.00  0.00    +0.179 C 
BRANCH  37  38
ATOM     38  O   LIG A   1      -9.578   2.370 124.948  0.00  0.00    -0.386 OA
ATOM     39  H   LIG A   1     -10.407   2.035 125.349  0.00  0.00    +0.210 HD
ENDBRANCH  37  38
BRANCH  36  40
ATOM     40  O   LIG A   1      -9.819   0.862 122.478  0.00  0.00    -0.387 OA
ATOM     41  H   LIG A   1      -9.016   1.414 122.366  0.00  0.00    +0.210 HD
ENDBRANCH  36  40
BRANCH  35  42
ATOM     42  O   LIG A   1     -10.042  -1.897 122.879  0.00  0.00    -0.387 OA
ATOM     43  H   LIG A   1      -9.518  -2.539 122.349  0.00  0.00    +0.210 HD
ENDBRANCH  35  42
BRANCH  34  44
ATOM     44  C   LIG A   1      -8.410  -3.140 125.060  0.00  0.00    +0.190 C 
BRANCH  44  45
ATOM     45  O   LIG A   1      -7.514  -3.358 123.968  0.00  0.00    -0.392 OA
ATOM     46  H   LIG A   1      -8.054  -3.342 123.155  0.00  0.00    +0.209 HD
ENDBRANCH  44  45
ENDBRANCH  34  44
ENDBRANCH   2  32
BRANCH   1  47
ATOM     47  O   LIG A   1      -7.623  -0.035 128.652  0.00  0.00    -0.506 OA
ATOM     48  H   LIG A   1      -7.080  -0.404 129.382  0.00  0.00    +0.292 HD
ENDBRANCH   1  47
BRANCH   5  49
ATOM     49  O   LIG A   1      -4.289   3.396 128.799  0.00  0.00    -0.505 OA
ATOM     50  H   LIG A   1      -4.738   4.176 129.199  0.00  0.00    +0.292 HD
ENDBRANCH   5  49
TORSDOF 14
ENDMDL
MODEL 8
REMARK VINA RESULT:      -7.5      1.521      7.879
REMARK  Name = NuBBE_1249
REMARK  14 active torsions:
REMARK  status: ('A' for Active; 'I' for Inactive)
REMARK    1  A    between atoms: O_1  and  C_2
REMARK    2  A    between atoms: C_3  and  C_34
REMARK    3  A    between atoms: C_6  and  O_21
REMARK    4  A    between atoms: C_7  and  C_8
REMARK    5  A    between atoms: C_10  and  O_12
REMARK    6  A    between atoms: C_13  and  O_15
REMARK    7  A    between atoms: C_16  and  O_20
REMARK    8  A    between atoms: C_25  and  C_27
REMARK    9  A    between atoms: C_30  and  O_33
REMARK   10  A    between atoms: C_37  and  C_39
REMARK   11  A    between atoms: C_39  and  O_40
REMARK   12  A    between atoms: C_41  and  O_49
REMARK   13  A    between atoms: C_43  and  O_48
REMARK   14  A    between atoms: C_45  and  O_47
REMARK                            x       y       z     vdW  Elec       q    Type
REMARK                         _______ _______ _______ _____ _____    ______ ____
ROOT
ATOM      1  C   LIG A   1      -5.145   5.769 131.015  0.00  0.00    +0.135 A 
ATOM      2  C   LIG A   1      -6.154   5.123 130.243  0.00  0.00    +0.069 A 
ATOM      3  C   LIG A   1      -5.794   4.647 128.962  0.00  0.00    +0.152 A 
ATOM      4  C   LIG A   1      -4.493   4.862 128.485  0.00  0.00    +0.106 A 
ATOM      5  C   LIG A   1      -3.534   5.538 129.257  0.00  0.00    +0.140 A 
ATOM      6  C   LIG A   1      -3.820   5.975 130.556  0.00  0.00    +0.068 A 
ATOM      7  C   LIG A   1      -4.140   4.374 127.149  0.00  0.00    +0.197 A 
ATOM      8  O   LIG A   1      -3.006   4.522 126.686  0.00  0.00    -0.287 OA
ATOM      9  C   LIG A   1      -5.172   3.693 126.382  0.00  0.00    +0.098 A 
ATOM     10  C   LIG A   1      -6.382   3.511 126.929  0.00  0.00    +0.139 A 
ATOM     11  O   LIG A   1      -6.737   3.980 128.195  0.00  0.00    -0.454 OA
ENDROOT
BRANCH   6  12
ATOM     12  C   LIG A   1      -2.714   6.671 131.366  0.00  0.00    +0.186 C 
ATOM     13  C   LIG A   1      -1.997   5.740 132.396  0.00  0.00    +0.179 C 
ATOM     14  C   LIG A   1      -0.904   6.525 133.135  0.00  0.00    +0.176 C 
ATOM     15  C   LIG A   1      -1.520   7.767 133.790  0.00  0.00    +0.171 C 
ATOM     16  C   LIG A   1      -2.271   8.584 132.740  0.00  0.00    +0.194 C 
ATOM     17  O   LIG A   1      -3.271   7.806 132.073  0.00  0.00    -0.366 OA
BRANCH  13  18
ATOM     18  O   LIG A   1      -2.905   5.246 133.400  0.00  0.00    -0.386 OA
ATOM     19  H   LIG A   1      -2.507   5.408 134.274  0.00  0.00    +0.210 HD
ENDBRANCH  13  18
BRANCH  14  20
ATOM     20  O   LIG A   1       0.144   6.923 132.241  0.00  0.00    -0.387 OA
ATOM     21  H   LIG A   1      -0.020   6.439 131.406  0.00  0.00    +0.210 HD
ENDBRANCH  14  20
BRANCH  15  22
ATOM     22  O   LIG A   1      -0.487   8.555 134.386  0.00  0.00    -0.387 OA
ATOM     23  H   LIG A   1      -0.678   9.484 134.158  0.00  0.00    +0.210 HD
ENDBRANCH  15  22
ENDBRANCH   6  12
BRANCH  10  24
ATOM     24  C   LIG A   1      -7.441   2.793 126.172  0.00  0.00    +0.018 A 
ATOM     25  C   LIG A   1      -7.885   3.252 124.912  0.00  0.00    +0.015 A 
ATOM     26  C   LIG A   1      -8.888   2.585 124.198  0.00  0.00    +0.046 A 
ATOM     27  C   LIG A   1      -9.453   1.438 124.735  0.00  0.00    +0.117 A 
ATOM     28  C   LIG A   1      -9.034   0.957 125.969  0.00  0.00    +0.046 A 
ATOM     29  C   LIG A   1      -8.034   1.631 126.685  0.00  0.00    +0.015 A 
BRANCH  27  30
ATOM     30  O   LIG A   1     -10.427   0.750 124.075  0.00  0.00    -0.507 OA
ATOM     31  H   LIG A   1     -10.016   0.227 123.366  0.00  0.00    +0.292 HD
ENDBRANCH  27  30
ENDBRANCH  10  24
BRANCH   2  32
ATOM     32  C   LIG A   1      -7.589   4.984 130.785  0.00  0.00    +0.187 C 
ATOM     33  O   LIG A   1      -7.881   3.571 130.894  0.00  0.00    -0.361 OA
ATOM     34  C   LIG A   1      -9.216   3.284 131.330  0.00  0.00    +0.175 C 
ATOM     35  C   LIG A   1     -10.235   3.814 130.311  0.00  0.00    +0.176 C 
ATOM     36  C   LIG A   1     -10.074   5.329 130.238  0.00  0.00    +0.177 C 
ATOM     37  C   LIG A   1      -8.634   5.757 129.930  0.00  0.00    +0.179 C 
BRANCH  37  38
ATOM     38  O   LIG A   1      -8.539   7.174 130.180  0.00  0.00    -0.386 OA
ATOM     39  H   LIG A   1      -8.937   7.592 129.390  0.00  0.00    +0.210 HD
ENDBRANCH  37  38
BRANCH  36  40
ATOM     40  O   LIG A   1     -10.956   5.870 129.236  0.00  0.00    -0.387 OA
ATOM     41  H   LIG A   1     -11.742   5.282 129.256  0.00  0.00    +0.210 HD
ENDBRANCH  36  40
BRANCH  35  42
ATOM     42  O   LIG A   1     -11.602   3.557 130.670  0.00  0.00    -0.387 OA
ATOM     43  H   LIG A   1     -11.885   4.288 131.262  0.00  0.00    +0.210 HD
ENDBRANCH  35  42
BRANCH  34  44
ATOM     44  C   LIG A   1      -9.363   1.770 131.544  0.00  0.00    +0.190 C 
BRANCH  44  45
ATOM     45  O   LIG A   1     -10.624   1.466 132.143  0.00  0.00    -0.392 OA
ATOM     46  H   LIG A   1     -11.142   2.294 132.142  0.00  0.00    +0.209 HD
ENDBRANCH  44  45
ENDBRANCH  34  44
ENDBRANCH   2  32
BRANCH   1  47
ATOM     47  O   LIG A   1      -5.517   6.204 132.264  0.00  0.00    -0.506 OA
ATOM     48  H   LIG A   1      -4.759   6.696 132.648  0.00  0.00    +0.292 HD
ENDBRANCH   1  47
BRANCH   5  49
ATOM     49  O   LIG A   1      -2.281   5.814 128.759  0.00  0.00    -0.505 OA
ATOM     50  H   LIG A   1      -2.219   5.481 127.833  0.00  0.00    +0.292 HD
ENDBRANCH   5  49
TORSDOF 14
ENDMDL
MODEL 9
REMARK VINA RESULT:      -7.4      3.370      4.511
REMARK  Name = NuBBE_1249
REMARK  14 active torsions:
REMARK  status: ('A' for Active; 'I' for Inactive)
REMARK    1  A    between atoms: O_1  and  C_2
REMARK    2  A    between atoms: C_3  and  C_34
REMARK    3  A    between atoms: C_6  and  O_21
REMARK    4  A    between atoms: C_7  and  C_8
REMARK    5  A    between atoms: C_10  and  O_12
REMARK    6  A    between atoms: C_13  and  O_15
REMARK    7  A    between atoms: C_16  and  O_20
REMARK    8  A    between atoms: C_25  and  C_27
REMARK    9  A    between atoms: C_30  and  O_33
REMARK   10  A    between atoms: C_37  and  C_39
REMARK   11  A    between atoms: C_39  and  O_40
REMARK   12  A    between atoms: C_41  and  O_49
REMARK   13  A    between atoms: C_43  and  O_48
REMARK   14  A    between atoms: C_45  and  O_47
REMARK                            x       y       z     vdW  Elec       q    Type
REMARK                         _______ _______ _______ _____ _____    ______ ____
ROOT
ATOM      1  C   LIG A   1      -6.351   1.106 127.360  0.00  0.00    +0.135 A 
ATOM      2  C   LIG A   1      -5.550   1.498 128.472  0.00  0.00    +0.069 A 
ATOM      3  C   LIG A   1      -5.020   2.809 128.468  0.00  0.00    +0.152 A 
ATOM      4  C   LIG A   1      -5.260   3.648 127.369  0.00  0.00    +0.106 A 
ATOM      5  C   LIG A   1      -6.022   3.214 126.272  0.00  0.00    +0.140 A 
ATOM      6  C   LIG A   1      -6.620   1.949 126.253  0.00  0.00    +0.068 A 
ATOM      7  C   LIG A   1      -4.693   4.999 127.375  0.00  0.00    +0.197 A 
ATOM      8  O   LIG A   1      -4.884   5.784 126.442  0.00  0.00    -0.287 OA
ATOM      9  C   LIG A   1      -3.899   5.396 128.528  0.00  0.00    +0.098 A 
ATOM     10  C   LIG A   1      -3.742   4.535 129.543  0.00  0.00    +0.139 A 
ATOM     11  O   LIG A   1      -4.267   3.241 129.548  0.00  0.00    -0.454 OA
ENDROOT
BRANCH   6  12
ATOM     12  C   LIG A   1      -7.477   1.551 125.040  0.00  0.00    +0.186 C 
ATOM     13  C   LIG A   1      -9.006   1.815 125.227  0.00  0.00    +0.179 C 
ATOM     14  C   LIG A   1      -9.765   1.401 123.958  0.00  0.00    +0.176 C 
ATOM     15  C   LIG A   1      -9.455  -0.065 123.632  0.00  0.00    +0.171 C 
ATOM     16  C   LIG A   1      -7.942  -0.264 123.545  0.00  0.00    +0.194 C 
ATOM     17  O   LIG A   1      -7.280   0.146 124.747  0.00  0.00    -0.366 OA
BRANCH  13  18
ATOM     18  O   LIG A   1      -9.558   1.044 126.313  0.00  0.00    -0.386 OA
ATOM     19  H   LIG A   1     -10.224   0.437 125.944  0.00  0.00    +0.210 HD
ENDBRANCH  13  18
BRANCH  14  20
ATOM     20  O   LIG A   1      -9.404   2.228 122.844  0.00  0.00    -0.387 OA
ATOM     21  H   LIG A   1      -8.583   2.689 123.109  0.00  0.00    +0.210 HD
ENDBRANCH  14  20
BRANCH  15  22
ATOM     22  O   LIG A   1     -10.073  -0.420 122.393  0.00  0.00    -0.387 OA
ATOM     23  H   LIG A   1      -9.515  -0.047 121.686  0.00  0.00    +0.210 HD
ENDBRANCH  15  22
ENDBRANCH   6  12
BRANCH  10  24
ATOM     24  C   LIG A   1      -2.958   4.932 130.742  0.00  0.00    +0.018 A 
ATOM     25  C   LIG A   1      -2.939   4.134 131.907  0.00  0.00    +0.015 A 
ATOM     26  C   LIG A   1      -2.210   4.506 133.042  0.00  0.00    +0.046 A 
ATOM     27  C   LIG A   1      -1.477   5.683 133.020  0.00  0.00    +0.117 A 
ATOM     28  C   LIG A   1      -1.468   6.487 131.887  0.00  0.00    +0.046 A 
ATOM     29  C   LIG A   1      -2.205   6.115 130.754  0.00  0.00    +0.015 A 
BRANCH  27  30
ATOM     30  O   LIG A   1      -0.744   6.085 134.097  0.00  0.00    -0.507 OA
ATOM     31  H   LIG A   1      -0.457   7.003 133.956  0.00  0.00    +0.292 HD
ENDBRANCH  27  30
ENDBRANCH  10  24
BRANCH   2  32
ATOM     32  C   LIG A   1      -5.252   0.509 129.614  0.00  0.00    +0.187 C 
ATOM     33  O   LIG A   1      -4.781  -0.723 129.016  0.00  0.00    -0.361 OA
ATOM     34  C   LIG A   1      -4.521  -1.767 129.962  0.00  0.00    +0.175 C 
ATOM     35  C   LIG A   1      -5.814  -2.159 130.691  0.00  0.00    +0.176 C 
ATOM     36  C   LIG A   1      -6.304  -0.935 131.458  0.00  0.00    +0.177 C 
ATOM     37  C   LIG A   1      -6.467   0.298 130.561  0.00  0.00    +0.179 C 
BRANCH  37  38
ATOM     38  O   LIG A   1      -6.637   1.442 131.423  0.00  0.00    -0.386 OA
ATOM     39  H   LIG A   1      -5.755   1.584 131.823  0.00  0.00    +0.210 HD
ENDBRANCH  37  38
BRANCH  36  40
ATOM     40  O   LIG A   1      -7.560  -1.227 132.100  0.00  0.00    -0.387 OA
ATOM     41  H   LIG A   1      -8.237  -1.045 131.413  0.00  0.00    +0.210 HD
ENDBRANCH  36  40
BRANCH  35  42
ATOM     42  O   LIG A   1      -5.641  -3.212 131.653  0.00  0.00    -0.387 OA
ATOM     43  H   LIG A   1      -4.922  -3.793 131.316  0.00  0.00    +0.210 HD
ENDBRANCH  35  42
BRANCH  34  44
ATOM     44  C   LIG A   1      -3.896  -2.965 129.231  0.00  0.00    +0.190 C 
BRANCH  44  45
ATOM     45  O   LIG A   1      -2.973  -3.648 130.082  0.00  0.00    -0.392 OA
ATOM     46  H   LIG A   1      -2.791  -4.511 129.664  0.00  0.00    +0.209 HD
ENDBRANCH  44  45
ENDBRANCH  34  44
ENDBRANCH   2  32
BRANCH   1  47
ATOM     47  O   LIG A   1      -6.868  -0.166 127.400  0.00  0.00    -0.506 OA
ATOM     48  H   LIG A   1      -6.213  -0.768 126.985  0.00  0.00    +0.292 HD
ENDBRANCH   1  47
BRANCH   5  49
ATOM     49  O   LIG A   1      -6.193   4.011 125.163  0.00  0.00    -0.505 OA
ATOM     50  H   LIG A   1      -6.129   4.958 125.430  0.00  0.00    +0.292 HD
ENDBRANCH   5  49
TORSDOF 14
ENDMDL
