MODEL 1
REMARK VINA RESULT:      -5.6      0.000      0.000
REMARK  Name = NuBBE_1157
REMARK  16 active torsions:
REMARK  status: ('A' for Active; 'I' for Inactive)
REMARK    1  A    between atoms: C_2  and  O_3
REMARK    2  A    between atoms: C_2  and  C_5
REMARK    3  A    between atoms: O_3  and  C_4
REMARK    4  A    between atoms: C_5  and  C_6
REMARK    5  A    between atoms: C_6  and  C_7
REMARK    6  A    between atoms: C_7  and  C_8
REMARK    7  A    between atoms: C_8  and  C_9
REMARK    8  A    between atoms: C_9  and  C_10
REMARK    9  A    between atoms: C_10  and  C_11
REMARK   10  A    between atoms: C_11  and  C_12
REMARK   11  A    between atoms: C_12  and  C_13
REMARK   12  A    between atoms: C_13  and  C_14
REMARK   13  A    between atoms: C_14  and  C_15
REMARK   14  A    between atoms: C_15  and  C_16
REMARK   15  A    between atoms: C_16  and  C_17
REMARK   16  A    between atoms: C_17  and  C_18
REMARK                            x       y       z     vdW  Elec       q    Type
REMARK                         _______ _______ _______ _____ _____    ______ ____
ROOT
ATOM      1  C   LIG A   1      -7.366  -2.052 129.445  0.00  0.00    -0.000 C 
ENDROOT
BRANCH   1   2
ATOM      2  C   LIG A   1      -5.946  -2.415 129.015  0.00  0.00    -0.000 C 
BRANCH   2   3
ATOM      3  C   LIG A   1      -5.294  -1.267 128.240  0.00  0.00    -0.000 C 
BRANCH   3   4
ATOM      4  C   LIG A   1      -5.580  -1.365 126.739  0.00  0.00    -0.000 C 
BRANCH   4   5
ATOM      5  C   LIG A   1      -6.594  -0.309 126.295  0.00  0.00    +0.000 C 
BRANCH   5   6
ATOM      6  C   LIG A   1      -5.918   0.889 125.622  0.00  0.00    +0.000 C 
BRANCH   6   7
ATOM      7  C   LIG A   1      -6.747   1.365 124.428  0.00  0.00    +0.011 C 
BRANCH   7   8
ATOM      8  C   LIG A   1      -6.887   2.878 124.400  0.00  0.00    +0.120 C 
BRANCH   8  10
ATOM      9  O   LIG A   1      -8.947   2.992 123.119  0.00  0.00    -0.251 OA
ATOM     10  C   LIG A   1      -8.321   3.281 124.123  0.00  0.00    +0.307 C 
BRANCH  10  11
ATOM     11  O   LIG A   1      -8.772   4.072 125.143  0.00  0.00    -0.468 OA
ATOM     12  C   LIG A   1      -7.758   4.460 126.068  0.00  0.00    +0.280 C 
ENDBRANCH  10  11
ENDBRANCH   8  10
ENDBRANCH   7   8
ENDBRANCH   6   7
ENDBRANCH   5   6
ENDBRANCH   4   5
ENDBRANCH   3   4
ENDBRANCH   2   3
ENDBRANCH   1   2
BRANCH   1  13
ATOM     13  C   LIG A   1      -8.328  -3.230 129.286  0.00  0.00    -0.000 C 
BRANCH  13  14
ATOM     14  C   LIG A   1      -8.206  -3.819 127.882  0.00  0.00    +0.000 C 
BRANCH  14  15
ATOM     15  C   LIG A   1      -9.502  -3.669 127.088  0.00  0.00    +0.000 C 
BRANCH  15  16
ATOM     16  C   LIG A   1      -9.384  -2.649 125.948  0.00  0.00    +0.005 C 
BRANCH  16  17
ATOM     17  C   LIG A   1      -9.181  -3.270 124.558  0.00  0.00    +0.035 C 
BRANCH  17  18
ATOM     18  C   LIG A   1      -7.775  -3.102 124.033  0.00  0.00    -0.047 A 
ATOM     19  C   LIG A   1      -6.756  -3.970 124.447  0.00  0.00    +0.003 A 
ATOM     20  C   LIG A   1      -5.448  -3.796 123.994  0.00  0.00    +0.000 A 
ATOM     21  C   LIG A   1      -5.147  -2.754 123.121  0.00  0.00    +0.000 A 
ATOM     22  C   LIG A   1      -6.152  -1.887 122.697  0.00  0.00    +0.000 A 
ATOM     23  C   LIG A   1      -7.462  -2.063 123.146  0.00  0.00    +0.003 A 
ENDBRANCH  17  18
ENDBRANCH  16  17
ENDBRANCH  15  16
ENDBRANCH  14  15
ENDBRANCH  13  14
ENDBRANCH   1  13
TORSDOF 15
ENDMDL
MODEL 2
REMARK VINA RESULT:      -5.6      3.089      3.724
REMARK  Name = NuBBE_1157
REMARK  16 active torsions:
REMARK  status: ('A' for Active; 'I' for Inactive)
REMARK    1  A    between atoms: C_2  and  O_3
REMARK    2  A    between atoms: C_2  and  C_5
REMARK    3  A    between atoms: O_3  and  C_4
REMARK    4  A    between atoms: C_5  and  C_6
REMARK    5  A    between atoms: C_6  and  C_7
REMARK    6  A    between atoms: C_7  and  C_8
REMARK    7  A    between atoms: C_8  and  C_9
REMARK    8  A    between atoms: C_9  and  C_10
REMARK    9  A    between atoms: C_10  and  C_11
REMARK   10  A    between atoms: C_11  and  C_12
REMARK   11  A    between atoms: C_12  and  C_13
REMARK   12  A    between atoms: C_13  and  C_14
REMARK   13  A    between atoms: C_14  and  C_15
REMARK   14  A    between atoms: C_15  and  C_16
REMARK   15  A    between atoms: C_16  and  C_17
REMARK   16  A    between atoms: C_17  and  C_18
REMARK                            x       y       z     vdW  Elec       q    Type
REMARK                         _______ _______ _______ _____ _____    ______ ____
ROOT
ATOM      1  C   LIG A   1      -5.982  -1.838 127.465  0.00  0.00    -0.000 C 
ENDROOT
BRANCH   1   2
ATOM      2  C   LIG A   1      -5.534  -0.891 126.353  0.00  0.00    -0.000 C 
BRANCH   2   3
ATOM      3  C   LIG A   1      -6.659   0.070 125.959  0.00  0.00    -0.000 C 
BRANCH   3   4
ATOM      4  C   LIG A   1      -6.111   1.422 125.496  0.00  0.00    -0.000 C 
BRANCH   4   5
ATOM      5  C   LIG A   1      -4.773   1.739 126.164  0.00  0.00    +0.000 C 
BRANCH   5   6
ATOM      6  C   LIG A   1      -4.453   3.236 126.127  0.00  0.00    +0.000 C 
BRANCH   6   7
ATOM      7  C   LIG A   1      -2.986   3.475 126.489  0.00  0.00    +0.011 C 
BRANCH   7   8
ATOM      8  C   LIG A   1      -2.778   3.569 127.991  0.00  0.00    +0.120 C 
BRANCH   8  10
ATOM      9  O   LIG A   1      -2.279   5.945 128.023  0.00  0.00    -0.251 OA
ATOM     10  C   LIG A   1      -2.910   5.002 128.464  0.00  0.00    +0.307 C 
BRANCH  10  11
ATOM     11  O   LIG A   1      -3.796   5.053 129.505  0.00  0.00    -0.468 OA
ATOM     12  C   LIG A   1      -3.582   4.053 130.498  0.00  0.00    +0.280 C 
ENDBRANCH  10  11
ENDBRANCH   8  10
ENDBRANCH   7   8
ENDBRANCH   6   7
ENDBRANCH   5   6
ENDBRANCH   4   5
ENDBRANCH   3   4
ENDBRANCH   2   3
ENDBRANCH   1   2
BRANCH   1  13
ATOM     13  C   LIG A   1      -7.486  -1.746 127.721  0.00  0.00    -0.000 C 
BRANCH  13  14
ATOM     14  C   LIG A   1      -8.027  -3.104 128.163  0.00  0.00    +0.000 C 
BRANCH  14  15
ATOM     15  C   LIG A   1      -9.042  -3.663 127.170  0.00  0.00    +0.000 C 
BRANCH  15  16
ATOM     16  C   LIG A   1      -9.363  -2.682 126.035  0.00  0.00    +0.005 C 
BRANCH  16  17
ATOM     17  C   LIG A   1      -9.200  -3.267 124.624  0.00  0.00    +0.035 C 
BRANCH  17  18
ATOM     18  C   LIG A   1      -7.816  -3.067 124.055  0.00  0.00    -0.047 A 
ATOM     19  C   LIG A   1      -6.761  -3.902 124.445  0.00  0.00    +0.003 A 
ATOM     20  C   LIG A   1      -5.473  -3.697 123.951  0.00  0.00    +0.000 A 
ATOM     21  C   LIG A   1      -5.227  -2.656 123.059  0.00  0.00    +0.000 A 
ATOM     22  C   LIG A   1      -6.269  -1.821 122.658  0.00  0.00    +0.000 A 
ATOM     23  C   LIG A   1      -7.559  -2.028 123.149  0.00  0.00    +0.003 A 
ENDBRANCH  17  18
ENDBRANCH  16  17
ENDBRANCH  15  16
ENDBRANCH  14  15
ENDBRANCH  13  14
ENDBRANCH   1  13
TORSDOF 15
ENDMDL
MODEL 3
REMARK VINA RESULT:      -5.5      1.712      2.371
REMARK  Name = NuBBE_1157
REMARK  16 active torsions:
REMARK  status: ('A' for Active; 'I' for Inactive)
REMARK    1  A    between atoms: C_2  and  O_3
REMARK    2  A    between atoms: C_2  and  C_5
REMARK    3  A    between atoms: O_3  and  C_4
REMARK    4  A    between atoms: C_5  and  C_6
REMARK    5  A    between atoms: C_6  and  C_7
REMARK    6  A    between atoms: C_7  and  C_8
REMARK    7  A    between atoms: C_8  and  C_9
REMARK    8  A    between atoms: C_9  and  C_10
REMARK    9  A    between atoms: C_10  and  C_11
REMARK   10  A    between atoms: C_11  and  C_12
REMARK   11  A    between atoms: C_12  and  C_13
REMARK   12  A    between atoms: C_13  and  C_14
REMARK   13  A    between atoms: C_14  and  C_15
REMARK   14  A    between atoms: C_15  and  C_16
REMARK   15  A    between atoms: C_16  and  C_17
REMARK   16  A    between atoms: C_17  and  C_18
REMARK                            x       y       z     vdW  Elec       q    Type
REMARK                         _______ _______ _______ _____ _____    ______ ____
ROOT
ATOM      1  C   LIG A   1      -6.557  -1.035 127.840  0.00  0.00    -0.000 C 
ENDROOT
BRANCH   1   2
ATOM      2  C   LIG A   1      -7.619  -0.169 128.515  0.00  0.00    -0.000 C 
BRANCH   2   3
ATOM      3  C   LIG A   1      -8.182   0.872 127.544  0.00  0.00    -0.000 C 
BRANCH   3   4
ATOM      4  C   LIG A   1      -7.711   0.620 126.110  0.00  0.00    -0.000 C 
BRANCH   4   5
ATOM      5  C   LIG A   1      -8.893   0.509 125.146  0.00  0.00    +0.000 C 
BRANCH   5   6
ATOM      6  C   LIG A   1      -8.561   1.074 123.763  0.00  0.00    +0.000 C 
BRANCH   6   7
ATOM      7  C   LIG A   1      -7.076   1.433 123.677  0.00  0.00    +0.011 C 
BRANCH   7   8
ATOM      8  C   LIG A   1      -6.829   2.611 122.751  0.00  0.00    +0.120 C 
BRANCH   8  10
ATOM      9  O   LIG A   1      -5.540   4.663 122.917  0.00  0.00    -0.251 OA
ATOM     10  C   LIG A   1      -6.047   3.698 123.460  0.00  0.00    +0.307 C 
BRANCH  10  11
ATOM     11  O   LIG A   1      -5.946   3.387 124.788  0.00  0.00    -0.468 OA
ATOM     12  C   LIG A   1      -4.792   3.931 125.425  0.00  0.00    +0.280 C 
ENDBRANCH  10  11
ENDBRANCH   8  10
ENDBRANCH   7   8
ENDBRANCH   6   7
ENDBRANCH   5   6
ENDBRANCH   4   5
ENDBRANCH   3   4
ENDBRANCH   2   3
ENDBRANCH   1   2
BRANCH   1  13
ATOM     13  C   LIG A   1      -6.647  -2.496 128.283  0.00  0.00    -0.000 C 
BRANCH  13  14
ATOM     14  C   LIG A   1      -8.022  -2.776 128.887  0.00  0.00    +0.000 C 
BRANCH  14  15
ATOM     15  C   LIG A   1      -8.852  -3.703 128.003  0.00  0.00    +0.000 C 
BRANCH  15  16
ATOM     16  C   LIG A   1      -9.065  -3.142 126.591  0.00  0.00    +0.005 C 
BRANCH  16  17
ATOM     17  C   LIG A   1      -8.483  -4.012 125.466  0.00  0.00    +0.035 C 
BRANCH  17  18
ATOM     18  C   LIG A   1      -7.735  -3.213 124.426  0.00  0.00    -0.047 A 
ATOM     19  C   LIG A   1      -8.398  -2.732 123.289  0.00  0.00    +0.003 A 
ATOM     20  C   LIG A   1      -7.703  -2.027 122.307  0.00  0.00    +0.000 A 
ATOM     21  C   LIG A   1      -6.338  -1.793 122.453  0.00  0.00    +0.000 A 
ATOM     22  C   LIG A   1      -5.668  -2.261 123.582  0.00  0.00    +0.000 A 
ATOM     23  C   LIG A   1      -6.363  -2.963 124.567  0.00  0.00    +0.003 A 
ENDBRANCH  17  18
ENDBRANCH  16  17
ENDBRANCH  15  16
ENDBRANCH  14  15
ENDBRANCH  13  14
ENDBRANCH   1  13
TORSDOF 15
ENDMDL
MODEL 4
REMARK VINA RESULT:      -5.5      1.465      2.119
REMARK  Name = NuBBE_1157
REMARK  16 active torsions:
REMARK  status: ('A' for Active; 'I' for Inactive)
REMARK    1  A    between atoms: C_2  and  O_3
REMARK    2  A    between atoms: C_2  and  C_5
REMARK    3  A    between atoms: O_3  and  C_4
REMARK    4  A    between atoms: C_5  and  C_6
REMARK    5  A    between atoms: C_6  and  C_7
REMARK    6  A    between atoms: C_7  and  C_8
REMARK    7  A    between atoms: C_8  and  C_9
REMARK    8  A    between atoms: C_9  and  C_10
REMARK    9  A    between atoms: C_10  and  C_11
REMARK   10  A    between atoms: C_11  and  C_12
REMARK   11  A    between atoms: C_12  and  C_13
REMARK   12  A    between atoms: C_13  and  C_14
REMARK   13  A    between atoms: C_14  and  C_15
REMARK   14  A    between atoms: C_15  and  C_16
REMARK   15  A    between atoms: C_16  and  C_17
REMARK   16  A    between atoms: C_17  and  C_18
REMARK                            x       y       z     vdW  Elec       q    Type
REMARK                         _______ _______ _______ _____ _____    ______ ____
ROOT
ATOM      1  C   LIG A   1      -6.953  -2.695 128.757  0.00  0.00    -0.000 C 
ENDROOT
BRANCH   1   2
ATOM      2  C   LIG A   1      -6.805  -1.262 129.266  0.00  0.00    -0.000 C 
BRANCH   2   3
ATOM      3  C   LIG A   1      -6.202  -0.354 128.191  0.00  0.00    -0.000 C 
BRANCH   3   4
ATOM      4  C   LIG A   1      -5.620  -1.163 127.029  0.00  0.00    -0.000 C 
BRANCH   4   5
ATOM      5  C   LIG A   1      -5.400  -0.286 125.795  0.00  0.00    +0.000 C 
BRANCH   5   6
ATOM      6  C   LIG A   1      -6.693   0.394 125.336  0.00  0.00    +0.000 C 
BRANCH   6   7
ATOM      7  C   LIG A   1      -6.442   1.877 125.054  0.00  0.00    +0.011 C 
BRANCH   7   8
ATOM      8  C   LIG A   1      -7.071   2.321 123.745  0.00  0.00    +0.120 C 
BRANCH   8  10
ATOM      9  O   LIG A   1      -5.513   4.181 123.658  0.00  0.00    -0.251 OA
ATOM     10  C   LIG A   1      -6.226   3.385 123.075  0.00  0.00    +0.307 C 
BRANCH  10  11
ATOM     11  O   LIG A   1      -6.444   3.350 121.725  0.00  0.00    -0.468 OA
ATOM     12  C   LIG A   1      -5.420   3.975 120.955  0.00  0.00    +0.280 C 
ENDBRANCH  10  11
ENDBRANCH   8  10
ENDBRANCH   7   8
ENDBRANCH   6   7
ENDBRANCH   5   6
ENDBRANCH   4   5
ENDBRANCH   3   4
ENDBRANCH   2   3
ENDBRANCH   1   2
BRANCH   1  13
ATOM     13  C   LIG A   1      -8.210  -3.368 129.308  0.00  0.00    -0.000 C 
BRANCH  13  14
ATOM     14  C   LIG A   1      -9.116  -3.807 128.159  0.00  0.00    +0.000 C 
BRANCH  14  15
ATOM     15  C   LIG A   1      -8.493  -3.508 126.798  0.00  0.00    +0.000 C 
BRANCH  15  16
ATOM     16  C   LIG A   1      -9.486  -2.869 125.818  0.00  0.00    +0.005 C 
BRANCH  16  17
ATOM     17  C   LIG A   1      -9.266  -3.255 124.348  0.00  0.00    +0.035 C 
BRANCH  17  18
ATOM     18  C   LIG A   1      -7.853  -3.011 123.876  0.00  0.00    -0.047 A 
ATOM     19  C   LIG A   1      -7.590  -2.057 122.884  0.00  0.00    +0.003 A 
ATOM     20  C   LIG A   1      -6.291  -1.856 122.419  0.00  0.00    +0.000 A 
ATOM     21  C   LIG A   1      -5.240  -2.604 122.942  0.00  0.00    +0.000 A 
ATOM     22  C   LIG A   1      -5.486  -3.553 123.934  0.00  0.00    +0.000 A 
ATOM     23  C   LIG A   1      -6.785  -3.752 124.403  0.00  0.00    +0.003 A 
ENDBRANCH  17  18
ENDBRANCH  16  17
ENDBRANCH  15  16
ENDBRANCH  14  15
ENDBRANCH  13  14
ENDBRANCH   1  13
TORSDOF 15
ENDMDL
MODEL 5
REMARK VINA RESULT:      -5.4      2.805      6.047
REMARK  Name = NuBBE_1157
REMARK  16 active torsions:
REMARK  status: ('A' for Active; 'I' for Inactive)
REMARK    1  A    between atoms: C_2  and  O_3
REMARK    2  A    between atoms: C_2  and  C_5
REMARK    3  A    between atoms: O_3  and  C_4
REMARK    4  A    between atoms: C_5  and  C_6
REMARK    5  A    between atoms: C_6  and  C_7
REMARK    6  A    between atoms: C_7  and  C_8
REMARK    7  A    between atoms: C_8  and  C_9
REMARK    8  A    between atoms: C_9  and  C_10
REMARK    9  A    between atoms: C_10  and  C_11
REMARK   10  A    between atoms: C_11  and  C_12
REMARK   11  A    between atoms: C_12  and  C_13
REMARK   12  A    between atoms: C_13  and  C_14
REMARK   13  A    between atoms: C_14  and  C_15
REMARK   14  A    between atoms: C_15  and  C_16
REMARK   15  A    between atoms: C_16  and  C_17
REMARK   16  A    between atoms: C_17  and  C_18
REMARK                            x       y       z     vdW  Elec       q    Type
REMARK                         _______ _______ _______ _____ _____    ______ ____
ROOT
ATOM      1  C   LIG A   1      -8.773  -2.154 123.583  0.00  0.00    -0.000 C 
ENDROOT
BRANCH   1   2
ATOM      2  C   LIG A   1      -9.005  -3.396 124.440  0.00  0.00    -0.000 C 
BRANCH   2   3
ATOM      3  C   LIG A   1      -9.628  -3.028 125.789  0.00  0.00    -0.000 C 
BRANCH   3   4
ATOM      4  C   LIG A   1      -8.560  -2.816 126.865  0.00  0.00    -0.000 C 
BRANCH   4   5
ATOM      5  C   LIG A   1      -8.735  -3.798 128.025  0.00  0.00    +0.000 C 
BRANCH   5   6
ATOM      6  C   LIG A   1      -8.297  -3.192 129.361  0.00  0.00    +0.000 C 
BRANCH   6   7
ATOM      7  C   LIG A   1      -6.958  -3.787 129.801  0.00  0.00    +0.011 C 
BRANCH   7   8
ATOM      8  C   LIG A   1      -6.024  -2.730 130.364  0.00  0.00    +0.120 C 
BRANCH   8  10
ATOM      9  O   LIG A   1      -4.400  -3.052 128.587  0.00  0.00    -0.251 OA
ATOM     10  C   LIG A   1      -5.010  -2.299 129.323  0.00  0.00    +0.307 C 
BRANCH  10  11
ATOM     11  O   LIG A   1      -4.844  -0.943 129.392  0.00  0.00    -0.468 OA
ATOM     12  C   LIG A   1      -6.066  -0.211 129.449  0.00  0.00    +0.280 C 
ENDBRANCH  10  11
ENDBRANCH   8  10
ENDBRANCH   7   8
ENDBRANCH   6   7
ENDBRANCH   5   6
ENDBRANCH   4   5
ENDBRANCH   3   4
ENDBRANCH   2   3
ENDBRANCH   1   2
BRANCH   1  13
ATOM     13  C   LIG A   1      -7.378  -2.144 122.958  0.00  0.00    -0.000 C 
BRANCH  13  14
ATOM     14  C   LIG A   1      -6.378  -2.811 123.901  0.00  0.00    +0.000 C 
BRANCH  14  15
ATOM     15  C   LIG A   1      -5.283  -1.844 124.346  0.00  0.00    +0.000 C 
BRANCH  15  16
ATOM     16  C   LIG A   1      -5.548  -1.246 125.733  0.00  0.00    +0.005 C 
BRANCH  16  17
ATOM     17  C   LIG A   1      -5.751   0.276 125.742  0.00  0.00    +0.035 C 
BRANCH  17  18
ATOM     18  C   LIG A   1      -7.133   0.693 125.300  0.00  0.00    -0.047 A 
ATOM     19  C   LIG A   1      -7.318   1.350 124.076  0.00  0.00    +0.003 A 
ATOM     20  C   LIG A   1      -8.587   1.771 123.681  0.00  0.00    +0.000 A 
ATOM     21  C   LIG A   1      -9.686   1.537 124.505  0.00  0.00    +0.000 A 
ATOM     22  C   LIG A   1      -9.516   0.879 125.722  0.00  0.00    +0.000 A 
ATOM     23  C   LIG A   1      -8.247   0.454 126.116  0.00  0.00    +0.003 A 
ENDBRANCH  17  18
ENDBRANCH  16  17
ENDBRANCH  15  16
ENDBRANCH  14  15
ENDBRANCH  13  14
ENDBRANCH   1  13
TORSDOF 15
ENDMDL
MODEL 6
REMARK VINA RESULT:      -5.4      3.328      6.526
REMARK  Name = NuBBE_1157
REMARK  16 active torsions:
REMARK  status: ('A' for Active; 'I' for Inactive)
REMARK    1  A    between atoms: C_2  and  O_3
REMARK    2  A    between atoms: C_2  and  C_5
REMARK    3  A    between atoms: O_3  and  C_4
REMARK    4  A    between atoms: C_5  and  C_6
REMARK    5  A    between atoms: C_6  and  C_7
REMARK    6  A    between atoms: C_7  and  C_8
REMARK    7  A    between atoms: C_8  and  C_9
REMARK    8  A    between atoms: C_9  and  C_10
REMARK    9  A    between atoms: C_10  and  C_11
REMARK   10  A    between atoms: C_11  and  C_12
REMARK   11  A    between atoms: C_12  and  C_13
REMARK   12  A    between atoms: C_13  and  C_14
REMARK   13  A    between atoms: C_14  and  C_15
REMARK   14  A    between atoms: C_15  and  C_16
REMARK   15  A    between atoms: C_16  and  C_17
REMARK   16  A    between atoms: C_17  and  C_18
REMARK                            x       y       z     vdW  Elec       q    Type
REMARK                         _______ _______ _______ _____ _____    ______ ____
ROOT
ATOM      1  C   LIG A   1      -6.673  -1.401 122.688  0.00  0.00    -0.000 C 
ENDROOT
BRANCH   1   2
ATOM      2  C   LIG A   1      -5.629  -2.514 122.768  0.00  0.00    -0.000 C 
BRANCH   2   3
ATOM      3  C   LIG A   1      -5.333  -2.890 124.223  0.00  0.00    -0.000 C 
BRANCH   3   4
ATOM      4  C   LIG A   1      -5.502  -1.692 125.161  0.00  0.00    -0.000 C 
BRANCH   4   5
ATOM      5  C   LIG A   1      -6.146  -2.109 126.484  0.00  0.00    +0.000 C 
BRANCH   5   6
ATOM      6  C   LIG A   1      -7.506  -2.782 126.274  0.00  0.00    +0.000 C 
BRANCH   6   7
ATOM      7  C   LIG A   1      -8.426  -2.505 127.465  0.00  0.00    +0.011 C 
BRANCH   7   8
ATOM      8  C   LIG A   1      -8.334  -3.594 128.520  0.00  0.00    +0.120 C 
BRANCH   8  10
ATOM      9  O   LIG A   1      -7.844  -2.000 130.285  0.00  0.00    -0.251 OA
ATOM     10  C   LIG A   1      -7.638  -3.081 129.764  0.00  0.00    +0.307 C 
BRANCH  10  11
ATOM     11  O   LIG A   1      -6.702  -3.993 130.165  0.00  0.00    -0.468 OA
ATOM     12  C   LIG A   1      -5.363  -3.638 129.826  0.00  0.00    +0.280 C 
ENDBRANCH  10  11
ENDBRANCH   8  10
ENDBRANCH   7   8
ENDBRANCH   6   7
ENDBRANCH   5   6
ENDBRANCH   4   5
ENDBRANCH   3   4
ENDBRANCH   2   3
ENDBRANCH   1   2
BRANCH   1  13
ATOM     13  C   LIG A   1      -8.098  -1.955 122.688  0.00  0.00    -0.000 C 
BRANCH  13  14
ATOM     14  C   LIG A   1      -9.025  -1.014 123.456  0.00  0.00    +0.000 C 
BRANCH  14  15
ATOM     15  C   LIG A   1      -9.820  -0.109 122.517  0.00  0.00    +0.000 C 
BRANCH  15  16
ATOM     16  C   LIG A   1     -10.083   1.279 123.115  0.00  0.00    +0.005 C 
BRANCH  16  17
ATOM     17  C   LIG A   1      -8.821   2.026 123.570  0.00  0.00    +0.035 C 
BRANCH  17  18
ATOM     18  C   LIG A   1      -8.076   2.680 122.431  0.00  0.00    -0.047 A 
ATOM     19  C   LIG A   1      -6.675   2.681 122.408  0.00  0.00    +0.003 A 
ATOM     20  C   LIG A   1      -5.983   3.318 121.377  0.00  0.00    +0.000 A 
ATOM     21  C   LIG A   1      -6.685   3.955 120.357  0.00  0.00    +0.000 A 
ATOM     22  C   LIG A   1      -8.078   3.956 120.365  0.00  0.00    +0.000 A 
ATOM     23  C   LIG A   1      -8.772   3.317 121.394  0.00  0.00    +0.003 A 
ENDBRANCH  17  18
ENDBRANCH  16  17
ENDBRANCH  15  16
ENDBRANCH  14  15
ENDBRANCH  13  14
ENDBRANCH   1  13
TORSDOF 15
ENDMDL
MODEL 7
REMARK VINA RESULT:      -5.4      3.615      6.645
REMARK  Name = NuBBE_1157
REMARK  16 active torsions:
REMARK  status: ('A' for Active; 'I' for Inactive)
REMARK    1  A    between atoms: C_2  and  O_3
REMARK    2  A    between atoms: C_2  and  C_5
REMARK    3  A    between atoms: O_3  and  C_4
REMARK    4  A    between atoms: C_5  and  C_6
REMARK    5  A    between atoms: C_6  and  C_7
REMARK    6  A    between atoms: C_7  and  C_8
REMARK    7  A    between atoms: C_8  and  C_9
REMARK    8  A    between atoms: C_9  and  C_10
REMARK    9  A    between atoms: C_10  and  C_11
REMARK   10  A    between atoms: C_11  and  C_12
REMARK   11  A    between atoms: C_12  and  C_13
REMARK   12  A    between atoms: C_13  and  C_14
REMARK   13  A    between atoms: C_14  and  C_15
REMARK   14  A    between atoms: C_15  and  C_16
REMARK   15  A    between atoms: C_16  and  C_17
REMARK   16  A    between atoms: C_17  and  C_18
REMARK                            x       y       z     vdW  Elec       q    Type
REMARK                         _______ _______ _______ _____ _____    ______ ____
ROOT
ATOM      1  C   LIG A   1      -8.678  -3.669 124.868  0.00  0.00    -0.000 C 
ENDROOT
BRANCH   1   2
ATOM      2  C   LIG A   1      -9.352  -3.077 126.104  0.00  0.00    -0.000 C 
BRANCH   2   3
ATOM      3  C   LIG A   1      -8.982  -3.862 127.366  0.00  0.00    -0.000 C 
BRANCH   3   4
ATOM      4  C   LIG A   1      -7.861  -3.175 128.150  0.00  0.00    -0.000 C 
BRANCH   4   5
ATOM      5  C   LIG A   1      -8.142  -3.193 129.653  0.00  0.00    +0.000 C 
BRANCH   5   6
ATOM      6  C   LIG A   1      -6.895  -2.853 130.474  0.00  0.00    +0.000 C 
BRANCH   6   7
ATOM      7  C   LIG A   1      -6.013  -4.092 130.640  0.00  0.00    +0.011 C 
BRANCH   7   8
ATOM      8  C   LIG A   1      -4.670  -3.931 129.948  0.00  0.00    +0.120 C 
BRANCH   8  10
ATOM      9  O   LIG A   1      -3.340  -3.984 131.979  0.00  0.00    -0.251 OA
ATOM     10  C   LIG A   1      -3.616  -3.446 130.922  0.00  0.00    +0.307 C 
BRANCH  10  11
ATOM     11  O   LIG A   1      -3.078  -2.278 130.458  0.00  0.00    -0.468 OA
ATOM     12  C   LIG A   1      -3.673  -1.105 131.009  0.00  0.00    +0.280 C 
ENDBRANCH  10  11
ENDBRANCH   8  10
ENDBRANCH   7   8
ENDBRANCH   6   7
ENDBRANCH   5   6
ENDBRANCH   4   5
ENDBRANCH   3   4
ENDBRANCH   2   3
ENDBRANCH   1   2
BRANCH   1  13
ATOM     13  C   LIG A   1      -9.374  -3.238 123.578  0.00  0.00    -0.000 C 
BRANCH  13  14
ATOM     14  C   LIG A   1      -8.545  -2.169 122.867  0.00  0.00    +0.000 C 
BRANCH  14  15
ATOM     15  C   LIG A   1      -7.057  -2.303 123.181  0.00  0.00    +0.000 C 
BRANCH  15  16
ATOM     16  C   LIG A   1      -6.448  -1.008 123.733  0.00  0.00    +0.005 C 
BRANCH  16  17
ATOM     17  C   LIG A   1      -5.658  -1.183 125.039  0.00  0.00    +0.035 C 
BRANCH  17  18
ATOM     18  C   LIG A   1      -6.314  -0.515 126.223  0.00  0.00    -0.047 A 
ATOM     19  C   LIG A   1      -5.637  -0.415 127.446  0.00  0.00    +0.003 A 
ATOM     20  C   LIG A   1      -6.254   0.167 128.553  0.00  0.00    +0.000 A 
ATOM     21  C   LIG A   1      -7.553   0.659 128.447  0.00  0.00    +0.000 A 
ATOM     22  C   LIG A   1      -8.235   0.572 127.235  0.00  0.00    +0.000 A 
ATOM     23  C   LIG A   1      -7.617  -0.007 126.126  0.00  0.00    +0.003 A 
ENDBRANCH  17  18
ENDBRANCH  16  17
ENDBRANCH  15  16
ENDBRANCH  14  15
ENDBRANCH  13  14
ENDBRANCH   1  13
TORSDOF 15
ENDMDL
MODEL 8
REMARK VINA RESULT:      -5.3      1.273      2.061
REMARK  Name = NuBBE_1157
REMARK  16 active torsions:
REMARK  status: ('A' for Active; 'I' for Inactive)
REMARK    1  A    between atoms: C_2  and  O_3
REMARK    2  A    between atoms: C_2  and  C_5
REMARK    3  A    between atoms: O_3  and  C_4
REMARK    4  A    between atoms: C_5  and  C_6
REMARK    5  A    between atoms: C_6  and  C_7
REMARK    6  A    between atoms: C_7  and  C_8
REMARK    7  A    between atoms: C_8  and  C_9
REMARK    8  A    between atoms: C_9  and  C_10
REMARK    9  A    between atoms: C_10  and  C_11
REMARK   10  A    between atoms: C_11  and  C_12
REMARK   11  A    between atoms: C_12  and  C_13
REMARK   12  A    between atoms: C_13  and  C_14
REMARK   13  A    between atoms: C_14  and  C_15
REMARK   14  A    between atoms: C_15  and  C_16
REMARK   15  A    between atoms: C_16  and  C_17
REMARK   16  A    between atoms: C_17  and  C_18
REMARK                            x       y       z     vdW  Elec       q    Type
REMARK                         _______ _______ _______ _____ _____    ______ ____
ROOT
ATOM      1  C   LIG A   1      -6.087  -2.815 128.881  0.00  0.00    -0.000 C 
ENDROOT
BRANCH   1   2
ATOM      2  C   LIG A   1      -5.237  -2.052 127.867  0.00  0.00    -0.000 C 
BRANCH   2   3
ATOM      3  C   LIG A   1      -5.760  -0.627 127.669  0.00  0.00    -0.000 C 
BRANCH   3   4
ATOM      4  C   LIG A   1      -5.586  -0.157 126.222  0.00  0.00    -0.000 C 
BRANCH   4   5
ATOM      5  C   LIG A   1      -5.309   1.345 126.154  0.00  0.00    +0.000 C 
BRANCH   5   6
ATOM      6  C   LIG A   1      -6.241   2.057 125.170  0.00  0.00    +0.000 C 
BRANCH   6   7
ATOM      7  C   LIG A   1      -7.648   1.461 125.244  0.00  0.00    +0.011 C 
BRANCH   7   8
ATOM      8  C   LIG A   1      -8.701   2.420 124.717  0.00  0.00    +0.120 C 
BRANCH   8  10
ATOM      9  O   LIG A   1     -10.677   1.052 124.375  0.00  0.00    -0.251 OA
ATOM     10  C   LIG A   1      -9.746   1.681 123.907  0.00  0.00    +0.307 C 
BRANCH  10  11
ATOM     11  O   LIG A   1      -9.439   1.779 122.578  0.00  0.00    -0.468 OA
ATOM     12  C   LIG A   1      -8.690   2.945 122.240  0.00  0.00    +0.280 C 
ENDBRANCH  10  11
ENDBRANCH   8  10
ENDBRANCH   7   8
ENDBRANCH   6   7
ENDBRANCH   5   6
ENDBRANCH   4   5
ENDBRANCH   3   4
ENDBRANCH   2   3
ENDBRANCH   1   2
BRANCH   1  13
ATOM     13  C   LIG A   1      -7.524  -2.297 128.925  0.00  0.00    -0.000 C 
BRANCH  13  14
ATOM     14  C   LIG A   1      -8.484  -3.439 129.254  0.00  0.00    +0.000 C 
BRANCH  14  15
ATOM     15  C   LIG A   1      -9.296  -3.868 128.034  0.00  0.00    +0.000 C 
BRANCH  15  16
ATOM     16  C   LIG A   1      -8.456  -3.924 126.752  0.00  0.00    +0.005 C 
BRANCH  16  17
ATOM     17  C   LIG A   1      -8.975  -3.035 125.612  0.00  0.00    +0.035 C 
BRANCH  17  18
ATOM     18  C   LIG A   1      -7.902  -2.657 124.619  0.00  0.00    -0.047 A 
ATOM     19  C   LIG A   1      -8.136  -1.653 123.670  0.00  0.00    +0.003 A 
ATOM     20  C   LIG A   1      -7.162  -1.327 122.727  0.00  0.00    +0.000 A 
ATOM     21  C   LIG A   1      -5.942  -2.000 122.725  0.00  0.00    +0.000 A 
ATOM     22  C   LIG A   1      -5.695  -2.997 123.667  0.00  0.00    +0.000 A 
ATOM     23  C   LIG A   1      -6.667  -3.321 124.614  0.00  0.00    +0.003 A 
ENDBRANCH  17  18
ENDBRANCH  16  17
ENDBRANCH  15  16
ENDBRANCH  14  15
ENDBRANCH  13  14
ENDBRANCH   1  13
TORSDOF 15
ENDMDL
MODEL 9
REMARK VINA RESULT:      -5.3      3.729      6.122
REMARK  Name = NuBBE_1157
REMARK  16 active torsions:
REMARK  status: ('A' for Active; 'I' for Inactive)
REMARK    1  A    between atoms: C_2  and  O_3
REMARK    2  A    between atoms: C_2  and  C_5
REMARK    3  A    between atoms: O_3  and  C_4
REMARK    4  A    between atoms: C_5  and  C_6
REMARK    5  A    between atoms: C_6  and  C_7
REMARK    6  A    between atoms: C_7  and  C_8
REMARK    7  A    between atoms: C_8  and  C_9
REMARK    8  A    between atoms: C_9  and  C_10
REMARK    9  A    between atoms: C_10  and  C_11
REMARK   10  A    between atoms: C_11  and  C_12
REMARK   11  A    between atoms: C_12  and  C_13
REMARK   12  A    between atoms: C_13  and  C_14
REMARK   13  A    between atoms: C_14  and  C_15
REMARK   14  A    between atoms: C_15  and  C_16
REMARK   15  A    between atoms: C_16  and  C_17
REMARK   16  A    between atoms: C_17  and  C_18
REMARK                            x       y       z     vdW  Elec       q    Type
REMARK                         _______ _______ _______ _____ _____    ______ ____
ROOT
ATOM      1  C   LIG A   1      -8.433  -2.788 126.938  0.00  0.00    -0.000 C 
ENDROOT
BRANCH   1   2
ATOM      2  C   LIG A   1      -8.823  -3.668 128.124  0.00  0.00    -0.000 C 
BRANCH   2   3
ATOM      3  C   LIG A   1      -7.992  -3.324 129.363  0.00  0.00    -0.000 C 
BRANCH   3   4
ATOM      4  C   LIG A   1      -6.666  -2.658 128.987  0.00  0.00    -0.000 C 
BRANCH   4   5
ATOM      5  C   LIG A   1      -5.475  -3.434 129.551  0.00  0.00    +0.000 C 
BRANCH   5   6
ATOM      6  C   LIG A   1      -4.172  -3.094 128.821  0.00  0.00    +0.000 C 
BRANCH   6   7
ATOM      7  C   LIG A   1      -3.100  -2.658 129.822  0.00  0.00    +0.011 C 
BRANCH   7   8
ATOM      8  C   LIG A   1      -3.537  -1.450 130.632  0.00  0.00    +0.120 C 
BRANCH   8  10
ATOM      9  O   LIG A   1      -2.222  -1.833 132.637  0.00  0.00    -0.251 OA
ATOM     10  C   LIG A   1      -3.310  -1.683 132.112  0.00  0.00    +0.307 C 
BRANCH  10  11
ATOM     11  O   LIG A   1      -4.519  -1.764 132.745  0.00  0.00    -0.468 OA
ATOM     12  C   LIG A   1      -4.834  -3.068 133.229  0.00  0.00    +0.280 C 
ENDBRANCH  10  11
ENDBRANCH   8  10
ENDBRANCH   7   8
ENDBRANCH   6   7
ENDBRANCH   5   6
ENDBRANCH   4   5
ENDBRANCH   3   4
ENDBRANCH   2   3
ENDBRANCH   1   2
BRANCH   1  13
ATOM     13  C   LIG A   1      -9.442  -2.892 125.794  0.00  0.00    -0.000 C 
BRANCH  13  14
ATOM     14  C   LIG A   1      -8.836  -3.675 124.630  0.00  0.00    +0.000 C 
BRANCH  14  15
ATOM     15  C   LIG A   1      -9.377  -3.201 123.284  0.00  0.00    +0.000 C 
BRANCH  15  16
ATOM     16  C   LIG A   1      -8.786  -1.853 122.849  0.00  0.00    +0.005 C 
BRANCH  16  17
ATOM     17  C   LIG A   1      -7.250  -1.807 122.836  0.00  0.00    +0.035 C 
BRANCH  17  18
ATOM     18  C   LIG A   1      -6.670  -1.050 124.005  0.00  0.00    -0.047 A 
ATOM     19  C   LIG A   1      -7.028   0.285 124.235  0.00  0.00    +0.003 A 
ATOM     20  C   LIG A   1      -6.465   1.000 125.292  0.00  0.00    +0.000 A 
ATOM     21  C   LIG A   1      -5.540   0.385 126.133  0.00  0.00    +0.000 A 
ATOM     22  C   LIG A   1      -5.179  -0.944 125.919  0.00  0.00    +0.000 A 
ATOM     23  C   LIG A   1      -5.745  -1.661 124.864  0.00  0.00    +0.003 A 
ENDBRANCH  17  18
ENDBRANCH  16  17
ENDBRANCH  15  16
ENDBRANCH  14  15
ENDBRANCH  13  14
ENDBRANCH   1  13
TORSDOF 15
ENDMDL
