MODEL 1
REMARK VINA RESULT:      -6.3      0.000      0.000
REMARK  Name = NuBBE_478
REMARK  11 active torsions:
REMARK  status: ('A' for Active; 'I' for Inactive)
REMARK    1  A    between atoms: C_2  and  C_3
REMARK    2  A    between atoms: C_2  and  O_13
REMARK    3  A    between atoms: C_4  and  C_5
REMARK    4  A    between atoms: C_7  and  O_8
REMARK    5  A    between atoms: C_9  and  O_12
REMARK    6  A    between atoms: O_13  and  C_14
REMARK    7  A    between atoms: C_14  and  C_15
REMARK    8  A    between atoms: C_15  and  C_16
REMARK    9  A    between atoms: C_15  and  C_19
REMARK   10  A    between atoms: C_16  and  C_17
REMARK   11  A    between atoms: C_17  and  O_18
REMARK                            x       y       z     vdW  Elec       q    Type
REMARK                         _______ _______ _______ _____ _____    ______ ____
ROOT
ATOM      1  C   LIG A   1      -7.926   2.790 123.564  0.00  0.00    +0.092 C 
ATOM      2  C   LIG A   1      -6.858   2.537 122.792  0.00  0.00    +0.015 C 
ENDROOT
BRANCH   2   3
ATOM      3  C   LIG A   1      -6.438   3.459 121.730  0.00  0.00    -0.021 A 
ATOM      4  C   LIG A   1      -5.332   4.303 121.913  0.00  0.00    +0.057 A 
ATOM      5  C   LIG A   1      -4.970   5.196 120.916  0.00  0.00    +0.159 A 
ATOM      6  C   LIG A   1      -5.683   5.241 119.725  0.00  0.00    +0.158 A 
ATOM      7  C   LIG A   1      -6.758   4.392 119.507  0.00  0.00    +0.050 A 
ATOM      8  C   LIG A   1      -7.135   3.493 120.511  0.00  0.00    +0.012 A 
BRANCH   5   9
ATOM      9  O   LIG A   1      -3.918   6.054 121.074  0.00  0.00    -0.503 OA
ATOM     10  H   LIG A   1      -4.268   6.963 121.090  0.00  0.00    +0.292 HD
ENDBRANCH   5   9
BRANCH   6  11
ATOM     11  O   LIG A   1      -5.322   6.133 118.757  0.00  0.00    -0.503 OA
ATOM     12  H   LIG A   1      -4.575   5.701 118.297  0.00  0.00    +0.292 HD
ENDBRANCH   6  11
ENDBRANCH   2   3
BRANCH   1  14
ATOM     13  O   LIG A   1      -8.921   2.155 125.627  0.00  0.00    -0.246 OA
ATOM     14  C   LIG A   1      -8.342   1.843 124.611  0.00  0.00    +0.332 C 
BRANCH  14  15
ATOM     15  O   LIG A   1      -7.960   0.601 124.219  0.00  0.00    -0.461 OA
BRANCH  15  16
ATOM     16  C   LIG A   1      -9.014  -0.325 123.897  0.00  0.00    +0.235 C 
BRANCH  16  17
ATOM     17  C   LIG A   1      -8.502  -1.442 122.973  0.00  0.00    +0.026 C 
ATOM     18  C   LIG A   1      -9.014  -2.812 123.439  0.00  0.00    +0.011 C 
BRANCH  17  19
ATOM     19  C   LIG A   1      -6.961  -1.443 122.872  0.00  0.00    +0.034 C 
BRANCH  19  20
ATOM     20  C   LIG A   1      -6.298  -2.538 123.709  0.00  0.00    +0.156 C 
BRANCH  20  21
ATOM     21  O   LIG A   1      -5.240  -1.999 124.488  0.00  0.00    -0.395 OA
ATOM     22  H   LIG A   1      -4.578  -2.699 124.604  0.00  0.00    +0.209 HD
ENDBRANCH  20  21
ENDBRANCH  19  20
ENDBRANCH  17  19
ENDBRANCH  16  17
ENDBRANCH  15  16
ENDBRANCH  14  15
ENDBRANCH   1  14
TORSDOF 10
ENDMDL
MODEL 2
REMARK VINA RESULT:      -6.3      1.188      1.707
REMARK  Name = NuBBE_478
REMARK  11 active torsions:
REMARK  status: ('A' for Active; 'I' for Inactive)
REMARK    1  A    between atoms: C_2  and  C_3
REMARK    2  A    between atoms: C_2  and  O_13
REMARK    3  A    between atoms: C_4  and  C_5
REMARK    4  A    between atoms: C_7  and  O_8
REMARK    5  A    between atoms: C_9  and  O_12
REMARK    6  A    between atoms: O_13  and  C_14
REMARK    7  A    between atoms: C_14  and  C_15
REMARK    8  A    between atoms: C_15  and  C_16
REMARK    9  A    between atoms: C_15  and  C_19
REMARK   10  A    between atoms: C_16  and  C_17
REMARK   11  A    between atoms: C_17  and  O_18
REMARK                            x       y       z     vdW  Elec       q    Type
REMARK                         _______ _______ _______ _____ _____    ______ ____
ROOT
ATOM      1  C   LIG A   1      -7.377   2.689 123.581  0.00  0.00    +0.092 C 
ATOM      2  C   LIG A   1      -6.654   2.391 122.490  0.00  0.00    +0.015 C 
ENDROOT
BRANCH   2   3
ATOM      3  C   LIG A   1      -6.304   3.411 121.494  0.00  0.00    -0.021 A 
ATOM      4  C   LIG A   1      -5.247   4.304 121.728  0.00  0.00    +0.057 A 
ATOM      5  C   LIG A   1      -4.952   5.288 120.796  0.00  0.00    +0.159 A 
ATOM      6  C   LIG A   1      -5.683   5.376 119.618  0.00  0.00    +0.158 A 
ATOM      7  C   LIG A   1      -6.709   4.482 119.349  0.00  0.00    +0.050 A 
ATOM      8  C   LIG A   1      -7.018   3.492 120.288  0.00  0.00    +0.012 A 
BRANCH   5   9
ATOM      9  O   LIG A   1      -3.951   6.194 121.006  0.00  0.00    -0.503 OA
ATOM     10  H   LIG A   1      -4.063   6.567 121.899  0.00  0.00    +0.292 HD
ENDBRANCH   5   9
BRANCH   6  11
ATOM     11  O   LIG A   1      -5.390   6.355 118.715  0.00  0.00    -0.503 OA
ATOM     12  H   LIG A   1      -4.419   6.301 118.606  0.00  0.00    +0.292 HD
ENDBRANCH   6  11
ENDBRANCH   2   3
BRANCH   1  14
ATOM     13  O   LIG A   1      -8.025   1.862 125.713  0.00  0.00    -0.246 OA
ATOM     14  C   LIG A   1      -7.734   1.648 124.557  0.00  0.00    +0.332 C 
BRANCH  14  15
ATOM     15  O   LIG A   1      -7.675   0.449 123.923  0.00  0.00    -0.461 OA
BRANCH  15  16
ATOM     16  C   LIG A   1      -7.230  -0.672 124.706  0.00  0.00    +0.235 C 
BRANCH  16  17
ATOM     17  C   LIG A   1      -7.296  -1.974 123.891  0.00  0.00    +0.026 C 
ATOM     18  C   LIG A   1      -6.053  -2.125 123.003  0.00  0.00    +0.011 C 
BRANCH  17  19
ATOM     19  C   LIG A   1      -8.583  -2.057 123.043  0.00  0.00    +0.034 C 
BRANCH  19  20
ATOM     20  C   LIG A   1      -9.501  -3.214 123.441  0.00  0.00    +0.156 C 
BRANCH  20  21
ATOM     21  O   LIG A   1      -9.932  -3.071 124.786  0.00  0.00    -0.395 OA
ATOM     22  H   LIG A   1      -9.714  -2.168 125.067  0.00  0.00    +0.209 HD
ENDBRANCH  20  21
ENDBRANCH  19  20
ENDBRANCH  17  19
ENDBRANCH  16  17
ENDBRANCH  15  16
ENDBRANCH  14  15
ENDBRANCH   1  14
TORSDOF 10
ENDMDL
MODEL 3
REMARK VINA RESULT:      -6.2      6.275      9.415
REMARK  Name = NuBBE_478
REMARK  11 active torsions:
REMARK  status: ('A' for Active; 'I' for Inactive)
REMARK    1  A    between atoms: C_2  and  C_3
REMARK    2  A    between atoms: C_2  and  O_13
REMARK    3  A    between atoms: C_4  and  C_5
REMARK    4  A    between atoms: C_7  and  O_8
REMARK    5  A    between atoms: C_9  and  O_12
REMARK    6  A    between atoms: O_13  and  C_14
REMARK    7  A    between atoms: C_14  and  C_15
REMARK    8  A    between atoms: C_15  and  C_16
REMARK    9  A    between atoms: C_15  and  C_19
REMARK   10  A    between atoms: C_16  and  C_17
REMARK   11  A    between atoms: C_17  and  O_18
REMARK                            x       y       z     vdW  Elec       q    Type
REMARK                         _______ _______ _______ _____ _____    ______ ____
ROOT
ATOM      1  C   LIG A   1      -8.480  -3.508 127.200  0.00  0.00    +0.092 C 
ATOM      2  C   LIG A   1      -8.092  -2.474 127.961  0.00  0.00    +0.015 C 
ENDROOT
BRANCH   2   3
ATOM      3  C   LIG A   1      -7.599  -2.666 129.330  0.00  0.00    -0.021 A 
ATOM      4  C   LIG A   1      -7.964  -1.776 130.352  0.00  0.00    +0.057 A 
ATOM      5  C   LIG A   1      -7.460  -1.946 131.632  0.00  0.00    +0.159 A 
ATOM      6  C   LIG A   1      -6.613  -3.012 131.914  0.00  0.00    +0.158 A 
ATOM      7  C   LIG A   1      -6.266  -3.925 130.929  0.00  0.00    +0.050 A 
ATOM      8  C   LIG A   1      -6.765  -3.754 129.632  0.00  0.00    +0.012 A 
BRANCH   5   9
ATOM      9  O   LIG A   1      -7.769  -1.081 132.644  0.00  0.00    -0.503 OA
ATOM     10  H   LIG A   1      -7.261  -0.262 132.507  0.00  0.00    +0.292 HD
ENDBRANCH   5   9
BRANCH   6  11
ATOM     11  O   LIG A   1      -6.115  -3.161 133.176  0.00  0.00    -0.503 OA
ATOM     12  H   LIG A   1      -5.774  -4.078 133.194  0.00  0.00    +0.292 HD
ENDBRANCH   6  11
ENDBRANCH   2   3
BRANCH   1  14
ATOM     13  O   LIG A   1     -10.006  -2.686 125.573  0.00  0.00    -0.246 OA
ATOM     14  C   LIG A   1      -8.991  -3.292 125.837  0.00  0.00    +0.332 C 
BRANCH  14  15
ATOM     15  O   LIG A   1      -8.128  -3.886 124.974  0.00  0.00    -0.461 OA
BRANCH  15  16
ATOM     16  C   LIG A   1      -7.388  -3.013 124.101  0.00  0.00    +0.235 C 
BRANCH  16  17
ATOM     17  C   LIG A   1      -5.910  -2.944 124.516  0.00  0.00    +0.026 C 
ATOM     18  C   LIG A   1      -5.523  -1.514 124.919  0.00  0.00    +0.011 C 
BRANCH  17  19
ATOM     19  C   LIG A   1      -4.975  -3.467 123.404  0.00  0.00    +0.034 C 
BRANCH  19  20
ATOM     20  C   LIG A   1      -4.105  -4.645 123.845  0.00  0.00    +0.156 C 
BRANCH  20  21
ATOM     21  O   LIG A   1      -4.125  -5.675 122.868  0.00  0.00    -0.395 OA
ATOM     22  H   LIG A   1      -3.210  -5.969 122.736  0.00  0.00    +0.209 HD
ENDBRANCH  20  21
ENDBRANCH  19  20
ENDBRANCH  17  19
ENDBRANCH  16  17
ENDBRANCH  15  16
ENDBRANCH  14  15
ENDBRANCH   1  14
TORSDOF 10
ENDMDL
MODEL 4
REMARK VINA RESULT:      -6.2      8.795     10.674
REMARK  Name = NuBBE_478
REMARK  11 active torsions:
REMARK  status: ('A' for Active; 'I' for Inactive)
REMARK    1  A    between atoms: C_2  and  C_3
REMARK    2  A    between atoms: C_2  and  O_13
REMARK    3  A    between atoms: C_4  and  C_5
REMARK    4  A    between atoms: C_7  and  O_8
REMARK    5  A    between atoms: C_9  and  O_12
REMARK    6  A    between atoms: O_13  and  C_14
REMARK    7  A    between atoms: C_14  and  C_15
REMARK    8  A    between atoms: C_15  and  C_16
REMARK    9  A    between atoms: C_15  and  C_19
REMARK   10  A    between atoms: C_16  and  C_17
REMARK   11  A    between atoms: C_17  and  O_18
REMARK                            x       y       z     vdW  Elec       q    Type
REMARK                         _______ _______ _______ _____ _____    ______ ____
ROOT
ATOM      1  C   LIG A   1      -8.844   6.858 130.962  0.00  0.00    +0.092 C 
ATOM      2  C   LIG A   1      -7.924   6.321 131.778  0.00  0.00    +0.015 C 
ENDROOT
BRANCH   2   3
ATOM      3  C   LIG A   1      -6.492   6.601 131.616  0.00  0.00    -0.021 A 
ATOM      4  C   LIG A   1      -6.030   7.347 130.521  0.00  0.00    +0.057 A 
ATOM      5  C   LIG A   1      -4.671   7.571 130.359  0.00  0.00    +0.159 A 
ATOM      6  C   LIG A   1      -3.766   7.080 131.293  0.00  0.00    +0.158 A 
ATOM      7  C   LIG A   1      -4.202   6.370 132.402  0.00  0.00    +0.050 A 
ATOM      8  C   LIG A   1      -5.571   6.133 132.567  0.00  0.00    +0.012 A 
BRANCH   5   9
ATOM      9  O   LIG A   1      -4.184   8.266 129.288  0.00  0.00    -0.503 OA
ATOM     10  H   LIG A   1      -4.931   8.481 128.701  0.00  0.00    +0.292 HD
ENDBRANCH   5   9
BRANCH   6  11
ATOM     11  O   LIG A   1      -2.430   7.298 131.115  0.00  0.00    -0.503 OA
ATOM     12  H   LIG A   1      -2.353   8.269 131.032  0.00  0.00    +0.292 HD
ENDBRANCH   6  11
ENDBRANCH   2   3
BRANCH   1  14
ATOM     13  O   LIG A   1     -10.852   6.534 132.193  0.00  0.00    -0.246 OA
ATOM     14  C   LIG A   1     -10.273   6.549 131.129  0.00  0.00    +0.332 C 
BRANCH  14  15
ATOM     15  O   LIG A   1     -10.787   6.296 129.899  0.00  0.00    -0.461 OA
BRANCH  15  16
ATOM     16  C   LIG A   1     -12.033   6.939 129.577  0.00  0.00    +0.235 C 
BRANCH  16  17
ATOM     17  C   LIG A   1     -11.800   8.379 129.092  0.00  0.00    +0.026 C 
ATOM     18  C   LIG A   1     -13.085   8.968 128.493  0.00  0.00    +0.011 C 
BRANCH  17  19
ATOM     19  C   LIG A   1     -10.639   8.463 128.077  0.00  0.00    +0.034 C 
BRANCH  19  20
ATOM     20  C   LIG A   1     -10.913   7.706 126.776  0.00  0.00    +0.156 C 
BRANCH  20  21
ATOM     21  O   LIG A   1     -10.068   6.570 126.672  0.00  0.00    -0.395 OA
ATOM     22  H   LIG A   1     -10.303   5.964 127.393  0.00  0.00    +0.209 HD
ENDBRANCH  20  21
ENDBRANCH  19  20
ENDBRANCH  17  19
ENDBRANCH  16  17
ENDBRANCH  15  16
ENDBRANCH  14  15
ENDBRANCH   1  14
TORSDOF 10
ENDMDL
MODEL 5
REMARK VINA RESULT:      -6.2      3.158      4.326
REMARK  Name = NuBBE_478
REMARK  11 active torsions:
REMARK  status: ('A' for Active; 'I' for Inactive)
REMARK    1  A    between atoms: C_2  and  C_3
REMARK    2  A    between atoms: C_2  and  O_13
REMARK    3  A    between atoms: C_4  and  C_5
REMARK    4  A    between atoms: C_7  and  O_8
REMARK    5  A    between atoms: C_9  and  O_12
REMARK    6  A    between atoms: O_13  and  C_14
REMARK    7  A    between atoms: C_14  and  C_15
REMARK    8  A    between atoms: C_15  and  C_16
REMARK    9  A    between atoms: C_15  and  C_19
REMARK   10  A    between atoms: C_16  and  C_17
REMARK   11  A    between atoms: C_17  and  O_18
REMARK                            x       y       z     vdW  Elec       q    Type
REMARK                         _______ _______ _______ _____ _____    ______ ____
ROOT
ATOM      1  C   LIG A   1      -7.955  -0.275 125.743  0.00  0.00    +0.092 C 
ATOM      2  C   LIG A   1      -8.180   0.599 124.751  0.00  0.00    +0.015 C 
ENDROOT
BRANCH   2   3
ATOM      3  C   LIG A   1      -7.712   1.988 124.824  0.00  0.00    -0.021 A 
ATOM      4  C   LIG A   1      -8.364   2.919 125.648  0.00  0.00    +0.057 A 
ATOM      5  C   LIG A   1      -7.935   4.237 125.678  0.00  0.00    +0.159 A 
ATOM      6  C   LIG A   1      -6.843   4.634 124.916  0.00  0.00    +0.158 A 
ATOM      7  C   LIG A   1      -6.160   3.724 124.123  0.00  0.00    +0.050 A 
ATOM      8  C   LIG A   1      -6.592   2.394 124.080  0.00  0.00    +0.012 A 
BRANCH   5   9
ATOM      9  O   LIG A   1      -8.566   5.177 126.443  0.00  0.00    -0.503 OA
ATOM     10  H   LIG A   1      -9.425   5.378 126.029  0.00  0.00    +0.292 HD
ENDBRANCH   5   9
BRANCH   6  11
ATOM     11  O   LIG A   1      -6.438   5.937 124.947  0.00  0.00    -0.503 OA
ATOM     12  H   LIG A   1      -7.049   6.365 125.580  0.00  0.00    +0.292 HD
ENDBRANCH   6  11
ENDBRANCH   2   3
BRANCH   1  14
ATOM     13  O   LIG A   1      -9.619  -1.962 125.551  0.00  0.00    -0.246 OA
ATOM     14  C   LIG A   1      -8.451  -1.658 125.658  0.00  0.00    +0.332 C 
BRANCH  14  15
ATOM     15  O   LIG A   1      -7.378  -2.487 125.721  0.00  0.00    -0.461 OA
BRANCH  15  16
ATOM     16  C   LIG A   1      -7.007  -3.152 124.501  0.00  0.00    +0.235 C 
BRANCH  16  17
ATOM     17  C   LIG A   1      -5.872  -2.401 123.787  0.00  0.00    +0.026 C 
ATOM     18  C   LIG A   1      -6.388  -1.715 122.515  0.00  0.00    +0.011 C 
BRANCH  17  19
ATOM     19  C   LIG A   1      -4.684  -3.331 123.459  0.00  0.00    +0.034 C 
BRANCH  19  20
ATOM     20  C   LIG A   1      -4.936  -4.793 123.830  0.00  0.00    +0.156 C 
BRANCH  20  21
ATOM     21  O   LIG A   1      -4.111  -5.655 123.061  0.00  0.00    -0.395 OA
ATOM     22  H   LIG A   1      -4.135  -5.339 122.143  0.00  0.00    +0.209 HD
ENDBRANCH  20  21
ENDBRANCH  19  20
ENDBRANCH  17  19
ENDBRANCH  16  17
ENDBRANCH  15  16
ENDBRANCH  14  15
ENDBRANCH   1  14
TORSDOF 10
ENDMDL
MODEL 6
REMARK VINA RESULT:      -6.0      8.668     11.082
REMARK  Name = NuBBE_478
REMARK  11 active torsions:
REMARK  status: ('A' for Active; 'I' for Inactive)
REMARK    1  A    between atoms: C_2  and  C_3
REMARK    2  A    between atoms: C_2  and  O_13
REMARK    3  A    between atoms: C_4  and  C_5
REMARK    4  A    between atoms: C_7  and  O_8
REMARK    5  A    between atoms: C_9  and  O_12
REMARK    6  A    between atoms: O_13  and  C_14
REMARK    7  A    between atoms: C_14  and  C_15
REMARK    8  A    between atoms: C_15  and  C_16
REMARK    9  A    between atoms: C_15  and  C_19
REMARK   10  A    between atoms: C_16  and  C_17
REMARK   11  A    between atoms: C_17  and  O_18
REMARK                            x       y       z     vdW  Elec       q    Type
REMARK                         _______ _______ _______ _____ _____    ______ ____
ROOT
ATOM      1  C   LIG A   1     -10.020   5.752 130.902  0.00  0.00    +0.092 C 
ATOM      2  C   LIG A   1      -9.336   6.500 131.782  0.00  0.00    +0.015 C 
ENDROOT
BRANCH   2   3
ATOM      3  C   LIG A   1      -7.887   6.352 131.957  0.00  0.00    -0.021 A 
ATOM      4  C   LIG A   1      -7.369   5.608 133.029  0.00  0.00    +0.057 A 
ATOM      5  C   LIG A   1      -5.998   5.509 133.205  0.00  0.00    +0.159 A 
ATOM      6  C   LIG A   1      -5.132   6.123 132.308  0.00  0.00    +0.158 A 
ATOM      7  C   LIG A   1      -5.619   6.833 131.221  0.00  0.00    +0.050 A 
ATOM      8  C   LIG A   1      -7.002   6.944 131.041  0.00  0.00    +0.012 A 
BRANCH   5   9
ATOM      9  O   LIG A   1      -5.460   4.820 134.256  0.00  0.00    -0.503 OA
ATOM     10  H   LIG A   1      -4.496   4.771 134.124  0.00  0.00    +0.292 HD
ENDBRANCH   5   9
BRANCH   6  11
ATOM     11  O   LIG A   1      -3.784   6.026 132.499  0.00  0.00    -0.503 OA
ATOM     12  H   LIG A   1      -3.414   6.779 131.996  0.00  0.00    +0.292 HD
ENDBRANCH   6  11
ENDBRANCH   2   3
BRANCH   1  14
ATOM     13  O   LIG A   1     -12.234   6.161 131.665  0.00  0.00    -0.246 OA
ATOM     14  C   LIG A   1     -11.477   5.902 130.756  0.00  0.00    +0.332 C 
BRANCH  14  15
ATOM     15  O   LIG A   1     -11.784   5.699 129.450  0.00  0.00    -0.461 OA
BRANCH  15  16
ATOM     16  C   LIG A   1     -12.650   6.669 128.834  0.00  0.00    +0.235 C 
BRANCH  16  17
ATOM     17  C   LIG A   1     -12.010   8.067 128.849  0.00  0.00    +0.026 C 
ATOM     18  C   LIG A   1     -13.065   9.153 128.601  0.00  0.00    +0.011 C 
BRANCH  17  19
ATOM     19  C   LIG A   1     -10.859   8.183 127.825  0.00  0.00    +0.034 C 
BRANCH  19  20
ATOM     20  C   LIG A   1     -11.187   7.556 126.469  0.00  0.00    +0.156 C 
BRANCH  20  21
ATOM     21  O   LIG A   1     -10.343   6.443 126.216  0.00  0.00    -0.395 OA
ATOM     22  H   LIG A   1     -10.913   5.672 126.070  0.00  0.00    +0.209 HD
ENDBRANCH  20  21
ENDBRANCH  19  20
ENDBRANCH  17  19
ENDBRANCH  16  17
ENDBRANCH  15  16
ENDBRANCH  14  15
ENDBRANCH   1  14
TORSDOF 10
ENDMDL
MODEL 7
REMARK VINA RESULT:      -5.9      3.778      5.360
REMARK  Name = NuBBE_478
REMARK  11 active torsions:
REMARK  status: ('A' for Active; 'I' for Inactive)
REMARK    1  A    between atoms: C_2  and  C_3
REMARK    2  A    between atoms: C_2  and  O_13
REMARK    3  A    between atoms: C_4  and  C_5
REMARK    4  A    between atoms: C_7  and  O_8
REMARK    5  A    between atoms: C_9  and  O_12
REMARK    6  A    between atoms: O_13  and  C_14
REMARK    7  A    between atoms: C_14  and  C_15
REMARK    8  A    between atoms: C_15  and  C_16
REMARK    9  A    between atoms: C_15  and  C_19
REMARK   10  A    between atoms: C_16  and  C_17
REMARK   11  A    between atoms: C_17  and  O_18
REMARK                            x       y       z     vdW  Elec       q    Type
REMARK                         _______ _______ _______ _____ _____    ______ ____
ROOT
ATOM      1  C   LIG A   1      -5.639   3.460 124.361  0.00  0.00    +0.092 C 
ATOM      2  C   LIG A   1      -6.317   3.105 123.259  0.00  0.00    +0.015 C 
ENDROOT
BRANCH   2   3
ATOM      3  C   LIG A   1      -6.135   3.804 121.982  0.00  0.00    -0.021 A 
ATOM      4  C   LIG A   1      -7.126   3.750 120.990  0.00  0.00    +0.057 A 
ATOM      5  C   LIG A   1      -6.925   4.383 119.774  0.00  0.00    +0.159 A 
ATOM      6  C   LIG A   1      -5.754   5.095 119.542  0.00  0.00    +0.158 A 
ATOM      7  C   LIG A   1      -4.775   5.193 120.520  0.00  0.00    +0.050 A 
ATOM      8  C   LIG A   1      -4.968   4.549 121.747  0.00  0.00    +0.012 A 
BRANCH   5   9
ATOM      9  O   LIG A   1      -7.855   4.324 118.774  0.00  0.00    -0.503 OA
ATOM     10  H   LIG A   1      -8.666   4.762 119.089  0.00  0.00    +0.292 HD
ENDBRANCH   5   9
BRANCH   6  11
ATOM     11  O   LIG A   1      -5.563   5.704 118.336  0.00  0.00    -0.503 OA
ATOM     12  H   LIG A   1      -6.421   6.132 118.143  0.00  0.00    +0.292 HD
ENDBRANCH   6  11
ENDBRANCH   2   3
BRANCH   1  14
ATOM     13  O   LIG A   1      -6.898   2.744 126.246  0.00  0.00    -0.246 OA
ATOM     14  C   LIG A   1      -5.852   2.758 125.637  0.00  0.00    +0.332 C 
BRANCH  14  15
ATOM     15  O   LIG A   1      -4.684   2.155 125.977  0.00  0.00    -0.461 OA
BRANCH  15  16
ATOM     16  C   LIG A   1      -4.094   2.552 127.227  0.00  0.00    +0.235 C 
BRANCH  16  17
ATOM     17  C   LIG A   1      -3.053   3.664 127.016  0.00  0.00    +0.026 C 
ATOM     18  C   LIG A   1      -1.726   3.081 126.512  0.00  0.00    +0.011 C 
BRANCH  17  19
ATOM     19  C   LIG A   1      -2.830   4.492 128.300  0.00  0.00    +0.034 C 
BRANCH  19  20
ATOM     20  C   LIG A   1      -3.918   5.538 128.545  0.00  0.00    +0.156 C 
BRANCH  20  21
ATOM     21  O   LIG A   1      -4.439   6.017 127.314  0.00  0.00    -0.395 OA
ATOM     22  H   LIG A   1      -3.992   5.534 126.601  0.00  0.00    +0.209 HD
ENDBRANCH  20  21
ENDBRANCH  19  20
ENDBRANCH  17  19
ENDBRANCH  16  17
ENDBRANCH  15  16
ENDBRANCH  14  15
ENDBRANCH   1  14
TORSDOF 10
ENDMDL
MODEL 8
REMARK VINA RESULT:      -5.8      7.985     10.110
REMARK  Name = NuBBE_478
REMARK  11 active torsions:
REMARK  status: ('A' for Active; 'I' for Inactive)
REMARK    1  A    between atoms: C_2  and  C_3
REMARK    2  A    between atoms: C_2  and  O_13
REMARK    3  A    between atoms: C_4  and  C_5
REMARK    4  A    between atoms: C_7  and  O_8
REMARK    5  A    between atoms: C_9  and  O_12
REMARK    6  A    between atoms: O_13  and  C_14
REMARK    7  A    between atoms: C_14  and  C_15
REMARK    8  A    between atoms: C_15  and  C_16
REMARK    9  A    between atoms: C_15  and  C_19
REMARK   10  A    between atoms: C_16  and  C_17
REMARK   11  A    between atoms: C_17  and  O_18
REMARK                            x       y       z     vdW  Elec       q    Type
REMARK                         _______ _______ _______ _____ _____    ______ ____
ROOT
ATOM      1  C   LIG A   1      -9.652   5.692 132.658  0.00  0.00    +0.092 C 
ATOM      2  C   LIG A   1      -9.383   6.297 131.491  0.00  0.00    +0.015 C 
ENDROOT
BRANCH   2   3
ATOM      3  C   LIG A   1     -10.431   6.961 130.707  0.00  0.00    -0.021 A 
ATOM      4  C   LIG A   1     -10.124   7.578 129.484  0.00  0.00    +0.057 A 
ATOM      5  C   LIG A   1     -11.115   8.235 128.772  0.00  0.00    +0.159 A 
ATOM      6  C   LIG A   1     -12.419   8.264 129.252  0.00  0.00    +0.158 A 
ATOM      7  C   LIG A   1     -12.753   7.631 130.440  0.00  0.00    +0.050 A 
ATOM      8  C   LIG A   1     -11.757   6.973 131.169  0.00  0.00    +0.012 A 
BRANCH   5   9
ATOM      9  O   LIG A   1     -10.846   8.873 127.594  0.00  0.00    -0.503 OA
ATOM     10  H   LIG A   1      -9.884   8.841 127.445  0.00  0.00    +0.292 HD
ENDBRANCH   5   9
BRANCH   6  11
ATOM     11  O   LIG A   1     -13.383   8.924 128.547  0.00  0.00    -0.503 OA
ATOM     12  H   LIG A   1     -13.279   8.597 127.631  0.00  0.00    +0.292 HD
ENDBRANCH   6  11
ENDBRANCH   2   3
BRANCH   1  14
ATOM     13  O   LIG A   1      -8.024   5.489 134.378  0.00  0.00    -0.246 OA
ATOM     14  C   LIG A   1      -8.591   5.014 133.419  0.00  0.00    +0.332 C 
BRANCH  14  15
ATOM     15  O   LIG A   1      -8.388   3.798 132.851  0.00  0.00    -0.461 OA
BRANCH  15  16
ATOM     16  C   LIG A   1      -9.378   2.789 133.116  0.00  0.00    +0.235 C 
BRANCH  16  17
ATOM     17  C   LIG A   1      -9.710   1.995 131.843  0.00  0.00    +0.026 C 
ATOM     18  C   LIG A   1      -9.051   0.610 131.877  0.00  0.00    +0.011 C 
BRANCH  17  19
ATOM     19  C   LIG A   1      -9.301   2.760 130.565  0.00  0.00    +0.034 C 
BRANCH  19  20
ATOM     20  C   LIG A   1      -8.579   1.887 129.538  0.00  0.00    +0.156 C 
BRANCH  20  21
ATOM     21  O   LIG A   1      -9.024   2.189 128.224  0.00  0.00    -0.395 OA
ATOM     22  H   LIG A   1      -8.289   2.005 127.618  0.00  0.00    +0.209 HD
ENDBRANCH  20  21
ENDBRANCH  19  20
ENDBRANCH  17  19
ENDBRANCH  16  17
ENDBRANCH  15  16
ENDBRANCH  14  15
ENDBRANCH   1  14
TORSDOF 10
ENDMDL
MODEL 9
REMARK VINA RESULT:      -5.7      8.791     10.824
REMARK  Name = NuBBE_478
REMARK  11 active torsions:
REMARK  status: ('A' for Active; 'I' for Inactive)
REMARK    1  A    between atoms: C_2  and  C_3
REMARK    2  A    between atoms: C_2  and  O_13
REMARK    3  A    between atoms: C_4  and  C_5
REMARK    4  A    between atoms: C_7  and  O_8
REMARK    5  A    between atoms: C_9  and  O_12
REMARK    6  A    between atoms: O_13  and  C_14
REMARK    7  A    between atoms: C_14  and  C_15
REMARK    8  A    between atoms: C_15  and  C_16
REMARK    9  A    between atoms: C_15  and  C_19
REMARK   10  A    between atoms: C_16  and  C_17
REMARK   11  A    between atoms: C_17  and  O_18
REMARK                            x       y       z     vdW  Elec       q    Type
REMARK                         _______ _______ _______ _____ _____    ______ ____
ROOT
ATOM      1  C   LIG A   1      -8.043   6.548 131.544  0.00  0.00    +0.092 C 
ATOM      2  C   LIG A   1      -9.336   6.202 131.622  0.00  0.00    +0.015 C 
ENDROOT
BRANCH   2   3
ATOM      3  C   LIG A   1     -10.362   6.861 130.806  0.00  0.00    -0.021 A 
ATOM      4  C   LIG A   1     -10.014   7.520 129.617  0.00  0.00    +0.057 A 
ATOM      5  C   LIG A   1     -10.988   8.171 128.875  0.00  0.00    +0.159 A 
ATOM      6  C   LIG A   1     -12.313   8.152 129.291  0.00  0.00    +0.158 A 
ATOM      7  C   LIG A   1     -12.687   7.477 130.444  0.00  0.00    +0.050 A 
ATOM      8  C   LIG A   1     -11.709   6.825 131.202  0.00  0.00    +0.012 A 
BRANCH   5   9
ATOM      9  O   LIG A   1     -10.679   8.850 127.730  0.00  0.00    -0.503 OA
ATOM     10  H   LIG A   1     -10.067   8.300 127.208  0.00  0.00    +0.292 HD
ENDBRANCH   5   9
BRANCH   6  11
ATOM     11  O   LIG A   1     -13.259   8.807 128.558  0.00  0.00    -0.503 OA
ATOM     12  H   LIG A   1     -13.205   8.397 127.672  0.00  0.00    +0.292 HD
ENDBRANCH   6  11
ENDBRANCH   2   3
BRANCH   1  14
ATOM     13  O   LIG A   1      -7.267   4.987 133.160  0.00  0.00    -0.246 OA
ATOM     14  C   LIG A   1      -7.032   5.889 132.386  0.00  0.00    +0.332 C 
BRANCH  14  15
ATOM     15  O   LIG A   1      -5.834   6.472 132.128  0.00  0.00    -0.461 OA
BRANCH  15  16
ATOM     16  C   LIG A   1      -5.677   7.075 130.831  0.00  0.00    +0.235 C 
BRANCH  16  17
ATOM     17  C   LIG A   1      -4.197   7.367 130.535  0.00  0.00    +0.026 C 
ATOM     18  C   LIG A   1      -4.033   8.748 129.887  0.00  0.00    +0.011 C 
BRANCH  17  19
ATOM     19  C   LIG A   1      -3.562   6.273 129.650  0.00  0.00    +0.034 C 
BRANCH  19  20
ATOM     20  C   LIG A   1      -3.363   6.706 128.196  0.00  0.00    +0.156 C 
BRANCH  20  21
ATOM     21  O   LIG A   1      -4.416   6.214 127.380  0.00  0.00    -0.395 OA
ATOM     22  H   LIG A   1      -4.517   6.826 126.634  0.00  0.00    +0.209 HD
ENDBRANCH  20  21
ENDBRANCH  19  20
ENDBRANCH  17  19
ENDBRANCH  16  17
ENDBRANCH  15  16
ENDBRANCH  14  15
ENDBRANCH   1  14
TORSDOF 10
ENDMDL
