MODEL 1
REMARK VINA RESULT:      -5.7      0.000      0.000
REMARK  Name = NuBBE_1623
REMARK  5 active torsions:
REMARK  status: ('A' for Active; 'I' for Inactive)
REMARK    1  A    between atoms: C_1  and  O_2
REMARK    2  A    between atoms: O_2  and  C_3
REMARK    3  A    between atoms: C_4  and  O_5
REMARK    4  A    between atoms: C_6  and  O_11
REMARK    5  A    between atoms: O_11  and  C_12
REMARK                            x       y       z     vdW  Elec       q    Type
REMARK                         _______ _______ _______ _____ _____    ______ ____
ROOT
ATOM      1  C   LIG A   1      -8.096   3.035 123.450  0.00  0.00    +0.208 A 
ATOM      2  C   LIG A   1      -7.673   3.006 124.793  0.00  0.00    +0.205 A 
ATOM      3  C   LIG A   1      -6.366   3.355 125.150  0.00  0.00    +0.166 A 
ATOM      4  C   LIG A   1      -5.498   3.823 124.159  0.00  0.00    +0.061 A 
ATOM      5  C   LIG A   1      -5.911   3.908 122.827  0.00  0.00    +0.025 A 
ATOM      6  C   LIG A   1      -5.034   4.461 121.804  0.00  0.00    +0.019 A 
ATOM      7  C   LIG A   1      -5.461   4.558 120.542  0.00  0.00    +0.092 A 
ATOM      8  C   LIG A   1      -7.201   3.495 122.480  0.00  0.00    +0.184 A 
ATOM      9  O   LIG A   1      -7.615   3.603 121.135  0.00  0.00    -0.418 OA
ATOM     10  C   LIG A   1      -6.796   4.104 120.135  0.00  0.00    +0.337 A 
ATOM     11  O   LIG A   1      -7.158   4.172 118.962  0.00  0.00    -0.245 OA
ENDROOT
BRANCH   1  13
ATOM     12  C   LIG A   1      -9.650   1.331 122.851  0.00  0.00    +0.277 C 
ATOM     13  O   LIG A   1      -9.409   2.676 123.257  0.00  0.00    -0.488 OA
ENDBRANCH   1  13
BRANCH   2  14
ATOM     14  O   LIG A   1      -8.600   2.679 125.752  0.00  0.00    -0.501 OA
ATOM     15  H   LIG A   1      -8.664   1.704 125.727  0.00  0.00    +0.292 HD
ENDBRANCH   2  14
BRANCH   3  16
ATOM     16  O   LIG A   1      -5.822   3.366 126.407  0.00  0.00    -0.491 OA
ATOM     17  C   LIG A   1      -4.483   2.898 126.523  0.00  0.00    +0.277 C 
ENDBRANCH   3  16
TORSDOF 3
ENDMDL
MODEL 2
REMARK VINA RESULT:      -5.6      2.871      5.939
REMARK  Name = NuBBE_1623
REMARK  5 active torsions:
REMARK  status: ('A' for Active; 'I' for Inactive)
REMARK    1  A    between atoms: C_1  and  O_2
REMARK    2  A    between atoms: O_2  and  C_3
REMARK    3  A    between atoms: C_4  and  O_5
REMARK    4  A    between atoms: C_6  and  O_11
REMARK    5  A    between atoms: O_11  and  C_12
REMARK                            x       y       z     vdW  Elec       q    Type
REMARK                         _______ _______ _______ _____ _____    ______ ____
ROOT
ATOM      1  C   LIG A   1      -9.032   1.345 125.491  0.00  0.00    +0.208 A 
ATOM      2  C   LIG A   1      -9.051   2.418 124.580  0.00  0.00    +0.205 A 
ATOM      3  C   LIG A   1      -9.005   2.200 123.198  0.00  0.00    +0.166 A 
ATOM      4  C   LIG A   1      -9.030   0.886 122.722  0.00  0.00    +0.061 A 
ATOM      5  C   LIG A   1      -9.063  -0.196 123.606  0.00  0.00    +0.025 A 
ATOM      6  C   LIG A   1      -9.160  -1.563 123.114  0.00  0.00    +0.019 A 
ATOM      7  C   LIG A   1      -9.218  -2.579 123.979  0.00  0.00    +0.092 A 
ATOM      8  C   LIG A   1      -9.044   0.042 124.984  0.00  0.00    +0.184 A 
ATOM      9  O   LIG A   1      -9.096  -1.057 125.868  0.00  0.00    -0.418 OA
ATOM     10  C   LIG A   1      -9.167  -2.370 125.431  0.00  0.00    +0.337 A 
ATOM     11  O   LIG A   1      -9.188  -3.321 126.210  0.00  0.00    -0.245 OA
ENDROOT
BRANCH   1  13
ATOM     12  C   LIG A   1      -7.872   1.661 127.548  0.00  0.00    +0.277 C 
ATOM     13  O   LIG A   1      -9.092   1.717 126.813  0.00  0.00    -0.488 OA
ENDBRANCH   1  13
BRANCH   2  14
ATOM     14  O   LIG A   1      -9.172   3.689 125.087  0.00  0.00    -0.501 OA
ATOM     15  H   LIG A   1      -8.302   3.893 125.483  0.00  0.00    +0.292 HD
ENDBRANCH   2  14
BRANCH   3  16
ATOM     16  O   LIG A   1      -9.010   3.145 122.207  0.00  0.00    -0.491 OA
ATOM     17  C   LIG A   1      -7.743   3.503 121.666  0.00  0.00    +0.277 C 
ENDBRANCH   3  16
TORSDOF 3
ENDMDL
MODEL 3
REMARK VINA RESULT:      -5.6      6.320      7.877
REMARK  Name = NuBBE_1623
REMARK  5 active torsions:
REMARK  status: ('A' for Active; 'I' for Inactive)
REMARK    1  A    between atoms: C_1  and  O_2
REMARK    2  A    between atoms: O_2  and  C_3
REMARK    3  A    between atoms: C_4  and  O_5
REMARK    4  A    between atoms: C_6  and  O_11
REMARK    5  A    between atoms: O_11  and  C_12
REMARK                            x       y       z     vdW  Elec       q    Type
REMARK                         _______ _______ _______ _____ _____    ______ ____
ROOT
ATOM      1  C   LIG A   1      -9.179   4.980 129.264  0.00  0.00    +0.208 A 
ATOM      2  C   LIG A   1      -9.118   4.710 130.645  0.00  0.00    +0.205 A 
ATOM      3  C   LIG A   1      -9.634   5.610 131.585  0.00  0.00    +0.166 A 
ATOM      4  C   LIG A   1     -10.298   6.753 131.129  0.00  0.00    +0.061 A 
ATOM      5  C   LIG A   1     -10.415   7.017 129.762  0.00  0.00    +0.025 A 
ATOM      6  C   LIG A   1     -11.166   8.169 129.282  0.00  0.00    +0.019 A 
ATOM      7  C   LIG A   1     -11.287   8.385 127.970  0.00  0.00    +0.092 A 
ATOM      8  C   LIG A   1      -9.837   6.138 128.841  0.00  0.00    +0.184 A 
ATOM      9  O   LIG A   1      -9.977   6.404 127.461  0.00  0.00    -0.418 OA
ATOM     10  C   LIG A   1     -10.666   7.502 126.975  0.00  0.00    +0.337 A 
ATOM     11  O   LIG A   1     -10.761   7.738 125.772  0.00  0.00    -0.245 OA
ENDROOT
BRANCH   1  13
ATOM     12  C   LIG A   1      -7.286   4.179 128.060  0.00  0.00    +0.277 C 
ATOM     13  O   LIG A   1      -8.639   3.998 128.467  0.00  0.00    -0.488 OA
ENDBRANCH   1  13
BRANCH   2  14
ATOM     14  O   LIG A   1      -8.587   3.508 131.043  0.00  0.00    -0.501 OA
ATOM     15  H   LIG A   1      -8.071   3.187 130.277  0.00  0.00    +0.292 HD
ENDBRANCH   2  14
BRANCH   3  16
ATOM     16  O   LIG A   1      -9.638   5.478 132.948  0.00  0.00    -0.491 OA
ATOM     17  C   LIG A   1      -8.423   5.797 133.618  0.00  0.00    +0.277 C 
ENDBRANCH   3  16
TORSDOF 3
ENDMDL
MODEL 4
REMARK VINA RESULT:      -5.5      7.386      9.275
REMARK  Name = NuBBE_1623
REMARK  5 active torsions:
REMARK  status: ('A' for Active; 'I' for Inactive)
REMARK    1  A    between atoms: C_1  and  O_2
REMARK    2  A    between atoms: O_2  and  C_3
REMARK    3  A    between atoms: C_4  and  O_5
REMARK    4  A    between atoms: C_6  and  O_11
REMARK    5  A    between atoms: O_11  and  C_12
REMARK                            x       y       z     vdW  Elec       q    Type
REMARK                         _______ _______ _______ _____ _____    ______ ____
ROOT
ATOM      1  C   LIG A   1     -10.235   6.893 128.661  0.00  0.00    +0.208 A 
ATOM      2  C   LIG A   1      -9.625   5.685 129.052  0.00  0.00    +0.205 A 
ATOM      3  C   LIG A   1      -9.882   5.112 130.302  0.00  0.00    +0.166 A 
ATOM      4  C   LIG A   1     -10.831   5.712 131.136  0.00  0.00    +0.061 A 
ATOM      5  C   LIG A   1     -11.487   6.883 130.748  0.00  0.00    +0.025 A 
ATOM      6  C   LIG A   1     -12.527   7.470 131.582  0.00  0.00    +0.019 A 
ATOM      7  C   LIG A   1     -13.160   8.575 131.178  0.00  0.00    +0.092 A 
ATOM      8  C   LIG A   1     -11.170   7.475 129.522  0.00  0.00    +0.184 A 
ATOM      9  O   LIG A   1     -11.852   8.647 129.132  0.00  0.00    -0.418 OA
ATOM     10  C   LIG A   1     -12.830   9.242 129.913  0.00  0.00    +0.337 A 
ATOM     11  O   LIG A   1     -13.402  10.277 129.574  0.00  0.00    -0.245 OA
ENDROOT
BRANCH   1  13
ATOM     12  C   LIG A   1     -10.932   7.344 126.428  0.00  0.00    +0.277 C 
ATOM     13  O   LIG A   1      -9.892   7.324 127.402  0.00  0.00    -0.488 OA
ENDBRANCH   1  13
BRANCH   2  14
ATOM     14  O   LIG A   1      -8.809   5.055 128.145  0.00  0.00    -0.501 OA
ATOM     15  H   LIG A   1      -8.095   5.693 127.952  0.00  0.00    +0.292 HD
ENDBRANCH   2  14
BRANCH   3  16
ATOM     16  O   LIG A   1      -9.357   3.954 130.810  0.00  0.00    -0.491 OA
ATOM     17  C   LIG A   1      -9.313   3.847 132.229  0.00  0.00    +0.277 C 
ENDBRANCH   3  16
TORSDOF 3
ENDMDL
MODEL 5
REMARK VINA RESULT:      -5.4      1.806      3.480
REMARK  Name = NuBBE_1623
REMARK  5 active torsions:
REMARK  status: ('A' for Active; 'I' for Inactive)
REMARK    1  A    between atoms: C_1  and  O_2
REMARK    2  A    between atoms: O_2  and  C_3
REMARK    3  A    between atoms: C_4  and  O_5
REMARK    4  A    between atoms: C_6  and  O_11
REMARK    5  A    between atoms: O_11  and  C_12
REMARK                            x       y       z     vdW  Elec       q    Type
REMARK                         _______ _______ _______ _____ _____    ______ ____
ROOT
ATOM      1  C   LIG A   1      -5.785   3.422 124.483  0.00  0.00    +0.208 A 
ATOM      2  C   LIG A   1      -6.668   2.423 124.936  0.00  0.00    +0.205 A 
ATOM      3  C   LIG A   1      -7.656   1.893 124.100  0.00  0.00    +0.166 A 
ATOM      4  C   LIG A   1      -7.704   2.308 122.765  0.00  0.00    +0.061 A 
ATOM      5  C   LIG A   1      -6.806   3.261 122.279  0.00  0.00    +0.025 A 
ATOM      6  C   LIG A   1      -6.807   3.643 120.874  0.00  0.00    +0.019 A 
ATOM      7  C   LIG A   1      -5.921   4.537 120.426  0.00  0.00    +0.092 A 
ATOM      8  C   LIG A   1      -5.866   3.826 123.147  0.00  0.00    +0.184 A 
ATOM      9  O   LIG A   1      -4.951   4.774 122.641  0.00  0.00    -0.418 OA
ATOM     10  C   LIG A   1      -4.941   5.174 121.315  0.00  0.00    +0.337 A 
ATOM     11  O   LIG A   1      -4.156   6.019 120.889  0.00  0.00    -0.245 OA
ENDROOT
BRANCH   1  13
ATOM     12  C   LIG A   1      -5.210   4.979 126.192  0.00  0.00    +0.277 C 
ATOM     13  O   LIG A   1      -4.863   3.835 125.415  0.00  0.00    -0.488 OA
ENDBRANCH   1  13
BRANCH   2  14
ATOM     14  O   LIG A   1      -6.493   1.941 126.210  0.00  0.00    -0.501 OA
ATOM     15  H   LIG A   1      -7.243   2.297 126.726  0.00  0.00    +0.292 HD
ENDBRANCH   2  14
BRANCH   3  16
ATOM     16  O   LIG A   1      -8.578   0.929 124.410  0.00  0.00    -0.491 OA
ATOM     17  C   LIG A   1      -9.943   1.334 124.413  0.00  0.00    +0.277 C 
ENDBRANCH   3  16
TORSDOF 3
ENDMDL
MODEL 6
REMARK VINA RESULT:      -5.4      2.739      5.292
REMARK  Name = NuBBE_1623
REMARK  5 active torsions:
REMARK  status: ('A' for Active; 'I' for Inactive)
REMARK    1  A    between atoms: C_1  and  O_2
REMARK    2  A    between atoms: O_2  and  C_3
REMARK    3  A    between atoms: C_4  and  O_5
REMARK    4  A    between atoms: C_6  and  O_11
REMARK    5  A    between atoms: O_11  and  C_12
REMARK                            x       y       z     vdW  Elec       q    Type
REMARK                         _______ _______ _______ _____ _____    ______ ____
ROOT
ATOM      1  C   LIG A   1      -8.687   1.324 123.490  0.00  0.00    +0.208 A 
ATOM      2  C   LIG A   1      -9.460   0.202 123.132  0.00  0.00    +0.205 A 
ATOM      3  C   LIG A   1      -9.070  -1.093 123.489  0.00  0.00    +0.166 A 
ATOM      4  C   LIG A   1      -7.937  -1.259 124.292  0.00  0.00    +0.061 A 
ATOM      5  C   LIG A   1      -7.183  -0.157 124.703  0.00  0.00    +0.025 A 
ATOM      6  C   LIG A   1      -6.044  -0.319 125.596  0.00  0.00    +0.019 A 
ATOM      7  C   LIG A   1      -5.355   0.752 125.997  0.00  0.00    +0.092 A 
ATOM      8  C   LIG A   1      -7.552   1.124 124.282  0.00  0.00    +0.184 A 
ATOM      9  O   LIG A   1      -6.795   2.232 124.718  0.00  0.00    -0.418 OA
ATOM     10  C   LIG A   1      -5.694   2.108 125.550  0.00  0.00    +0.337 A 
ATOM     11  O   LIG A   1      -5.026   3.078 125.904  0.00  0.00    -0.245 OA
ENDROOT
BRANCH   1  13
ATOM     12  C   LIG A   1      -8.584   3.133 121.944  0.00  0.00    +0.277 C 
ATOM     13  O   LIG A   1      -9.204   2.529 123.076  0.00  0.00    -0.488 OA
ENDBRANCH   1  13
BRANCH   2  14
ATOM     14  O   LIG A   1     -10.641   0.422 122.467  0.00  0.00    -0.501 OA
ATOM     15  H   LIG A   1     -11.248   0.797 123.134  0.00  0.00    +0.292 HD
ENDBRANCH   2  14
BRANCH   3  16
ATOM     16  O   LIG A   1      -9.719  -2.265 123.204  0.00  0.00    -0.491 OA
ATOM     17  C   LIG A   1      -9.304  -3.413 123.937  0.00  0.00    +0.277 C 
ENDBRANCH   3  16
TORSDOF 3
ENDMDL
MODEL 7
REMARK VINA RESULT:      -5.4      5.628      8.565
REMARK  Name = NuBBE_1623
REMARK  5 active torsions:
REMARK  status: ('A' for Active; 'I' for Inactive)
REMARK    1  A    between atoms: C_1  and  O_2
REMARK    2  A    between atoms: O_2  and  C_3
REMARK    3  A    between atoms: C_4  and  O_5
REMARK    4  A    between atoms: C_6  and  O_11
REMARK    5  A    between atoms: O_11  and  C_12
REMARK                            x       y       z     vdW  Elec       q    Type
REMARK                         _______ _______ _______ _____ _____    ______ ____
ROOT
ATOM      1  C   LIG A   1      -6.462  -1.608 126.050  0.00  0.00    +0.208 A 
ATOM      2  C   LIG A   1      -7.406  -1.572 125.006  0.00  0.00    +0.205 A 
ATOM      3  C   LIG A   1      -8.643  -2.217 125.121  0.00  0.00    +0.166 A 
ATOM      4  C   LIG A   1      -8.971  -2.832 126.333  0.00  0.00    +0.061 A 
ATOM      5  C   LIG A   1      -8.070  -2.838 127.401  0.00  0.00    +0.025 A 
ATOM      6  C   LIG A   1      -8.436  -3.415 128.688  0.00  0.00    +0.019 A 
ATOM      7  C   LIG A   1      -7.568  -3.384 129.702  0.00  0.00    +0.092 A 
ATOM      8  C   LIG A   1      -6.815  -2.243 127.245  0.00  0.00    +0.184 A 
ATOM      9  O   LIG A   1      -5.919  -2.237 128.335  0.00  0.00    -0.418 OA
ATOM     10  C   LIG A   1      -6.229  -2.797 129.564  0.00  0.00    +0.337 A 
ATOM     11  O   LIG A   1      -5.433  -2.808 130.501  0.00  0.00    -0.245 OA
ENDROOT
BRANCH   1  13
ATOM     12  C   LIG A   1      -5.213   0.404 126.312  0.00  0.00    +0.277 C 
ATOM     13  O   LIG A   1      -5.300  -0.921 125.792  0.00  0.00    -0.488 OA
ENDBRANCH   1  13
BRANCH   2  14
ATOM     14  O   LIG A   1      -7.100  -0.835 123.888  0.00  0.00    -0.501 OA
ATOM     15  H   LIG A   1      -7.190   0.099 124.161  0.00  0.00    +0.292 HD
ENDBRANCH   2  14
BRANCH   3  16
ATOM     16  O   LIG A   1      -9.645  -2.267 124.189  0.00  0.00    -0.491 OA
ATOM     17  C   LIG A   1      -9.647  -3.396 123.322  0.00  0.00    +0.277 C 
ENDBRANCH   3  16
TORSDOF 3
ENDMDL
MODEL 8
REMARK VINA RESULT:      -5.2      4.234      6.082
REMARK  Name = NuBBE_1623
REMARK  5 active torsions:
REMARK  status: ('A' for Active; 'I' for Inactive)
REMARK    1  A    between atoms: C_1  and  O_2
REMARK    2  A    between atoms: O_2  and  C_3
REMARK    3  A    between atoms: C_4  and  O_5
REMARK    4  A    between atoms: C_6  and  O_11
REMARK    5  A    between atoms: O_11  and  C_12
REMARK                            x       y       z     vdW  Elec       q    Type
REMARK                         _______ _______ _______ _____ _____    ______ ____
ROOT
ATOM      1  C   LIG A   1      -9.206   0.591 125.950  0.00  0.00    +0.208 A 
ATOM      2  C   LIG A   1      -8.587   1.193 127.062  0.00  0.00    +0.205 A 
ATOM      3  C   LIG A   1      -7.857   0.437 127.986  0.00  0.00    +0.166 A 
ATOM      4  C   LIG A   1      -7.672  -0.928 127.744  0.00  0.00    +0.061 A 
ATOM      5  C   LIG A   1      -8.234  -1.539 126.620  0.00  0.00    +0.025 A 
ATOM      6  C   LIG A   1      -7.985  -2.943 126.327  0.00  0.00    +0.019 A 
ATOM      7  C   LIG A   1      -8.510  -3.498 125.232  0.00  0.00    +0.092 A 
ATOM      8  C   LIG A   1      -9.013  -0.779 125.742  0.00  0.00    +0.184 A 
ATOM      9  O   LIG A   1      -9.561  -1.401 124.600  0.00  0.00    -0.418 OA
ATOM     10  C   LIG A   1      -9.360  -2.740 124.306  0.00  0.00    +0.337 A 
ATOM     11  O   LIG A   1      -9.862  -3.278 123.321  0.00  0.00    -0.245 OA
ENDROOT
BRANCH   1  13
ATOM     12  C   LIG A   1      -9.189   1.897 123.958  0.00  0.00    +0.277 C 
ATOM     13  O   LIG A   1      -9.878   1.464 125.128  0.00  0.00    -0.488 OA
ENDBRANCH   1  13
BRANCH   2  14
ATOM     14  O   LIG A   1      -8.673   2.558 127.184  0.00  0.00    -0.501 OA
ATOM     15  H   LIG A   1      -7.810   2.841 127.545  0.00  0.00    +0.292 HD
ENDBRANCH   2  14
BRANCH   3  16
ATOM     16  O   LIG A   1      -7.213   0.889 129.107  0.00  0.00    -0.491 OA
ATOM     17  C   LIG A   1      -7.975   0.914 130.309  0.00  0.00    +0.277 C 
ENDBRANCH   3  16
TORSDOF 3
ENDMDL
MODEL 9
REMARK VINA RESULT:      -5.1      6.661      9.481
REMARK  Name = NuBBE_1623
REMARK  5 active torsions:
REMARK  status: ('A' for Active; 'I' for Inactive)
REMARK    1  A    between atoms: C_1  and  O_2
REMARK    2  A    between atoms: O_2  and  C_3
REMARK    3  A    between atoms: C_4  and  O_5
REMARK    4  A    between atoms: C_6  and  O_11
REMARK    5  A    between atoms: O_11  and  C_12
REMARK                            x       y       z     vdW  Elec       q    Type
REMARK                         _______ _______ _______ _____ _____    ______ ____
ROOT
ATOM      1  C   LIG A   1      -9.072   4.419 129.660  0.00  0.00    +0.208 A 
ATOM      2  C   LIG A   1      -9.530   5.679 129.229  0.00  0.00    +0.205 A 
ATOM      3  C   LIG A   1     -10.024   6.623 130.137  0.00  0.00    +0.166 A 
ATOM      4  C   LIG A   1      -9.975   6.333 131.504  0.00  0.00    +0.061 A 
ATOM      5  C   LIG A   1      -9.478   5.109 131.959  0.00  0.00    +0.025 A 
ATOM      6  C   LIG A   1      -9.360   4.832 133.384  0.00  0.00    +0.019 A 
ATOM      7  C   LIG A   1      -8.857   3.666 133.796  0.00  0.00    +0.092 A 
ATOM      8  C   LIG A   1      -9.049   4.154 131.033  0.00  0.00    +0.184 A 
ATOM      9  O   LIG A   1      -8.531   2.929 131.504  0.00  0.00    -0.418 OA
ATOM     10  C   LIG A   1      -8.427   2.627 132.853  0.00  0.00    +0.337 A 
ATOM     11  O   LIG A   1      -7.996   1.547 133.252  0.00  0.00    -0.245 OA
ENDROOT
BRANCH   1  13
ATOM     12  C   LIG A   1      -7.196   3.561 128.469  0.00  0.00    +0.277 C 
ATOM     13  O   LIG A   1      -8.609   3.605 128.654  0.00  0.00    -0.488 OA
ENDBRANCH   1  13
BRANCH   2  14
ATOM     14  O   LIG A   1      -9.426   5.977 127.893  0.00  0.00    -0.501 OA
ATOM     15  H   LIG A   1      -8.966   6.839 127.855  0.00  0.00    +0.292 HD
ENDBRANCH   2  14
BRANCH   3  16
ATOM     16  O   LIG A   1     -10.503   7.875 129.856  0.00  0.00    -0.491 OA
ATOM     17  C   LIG A   1     -11.910   7.990 129.678  0.00  0.00    +0.277 C 
ENDBRANCH   3  16
TORSDOF 3
ENDMDL
