MODEL 1
REMARK VINA RESULT:      -7.7      0.000      0.000
REMARK  Name = NuBBE_1960
REMARK  6 active torsions:
REMARK  status: ('A' for Active; 'I' for Inactive)
REMARK    1  A    between atoms: C_1  and  C_2
REMARK    2  A    between atoms: C_2  and  C_3
REMARK    3  A    between atoms: C_15  and  O_16
REMARK    4  A    between atoms: O_16  and  C_17
REMARK    5  A    between atoms: C_18  and  O_19
REMARK    6  A    between atoms: C_22  and  C_23
REMARK                            x       y       z     vdW  Elec       q    Type
REMARK                         _______ _______ _______ _____ _____    ______ ____
ROOT
ATOM      1  C   LIG A   1      -6.465  -1.718 124.238  0.00  0.00    -0.013 C 
ATOM      2  C   LIG A   1      -7.369  -2.195 125.460  0.00  0.00    +0.075 C 
ATOM      3  C   LIG A   1      -7.328  -1.244 126.689  0.00  0.00    +0.034 C 
ATOM      4  C   LIG A   1      -8.637  -0.414 126.635  0.00  0.00    +0.030 C 
ATOM      5  C   LIG A   1      -9.426  -0.972 125.468  0.00  0.00    +0.086 C 
ATOM      6  N   LIG A   1      -8.825  -2.275 125.213  0.00  0.00    -0.298 NA
ATOM      7  C   LIG A   1      -9.211  -2.854 123.937  0.00  0.00    +0.085 C 
ATOM      8  C   LIG A   1      -8.549  -2.170 122.753  0.00  0.00    +0.016 C 
ATOM      9  C   LIG A   1      -7.037  -2.245 122.885  0.00  0.00    +0.009 C 
ATOM     10  C   LIG A   1      -7.231  -1.833 128.082  0.00  0.00    -0.013 A 
ATOM     11  C   LIG A   1      -7.882  -2.978 128.536  0.00  0.00    +0.010 A 
ATOM     12  C   LIG A   1      -7.763  -3.328 129.878  0.00  0.00    +0.050 A 
ATOM     13  C   LIG A   1      -7.022  -2.517 130.741  0.00  0.00    +0.163 A 
ATOM     14  C   LIG A   1      -6.367  -1.356 130.267  0.00  0.00    +0.181 A 
ATOM     15  C   LIG A   1      -6.454  -1.002 128.927  0.00  0.00    +0.086 A 
ATOM     16  N   LIG A   1      -5.892   0.054 128.132  0.00  0.00    -0.264 N 
ATOM     17  C   LIG A   1      -5.021   1.085 128.431  0.00  0.00    +0.217 C 
ATOM     18  C   LIG A   1      -4.513   1.299 129.824  0.00  0.00    +0.110 C 
ATOM     19  O   LIG A   1      -4.613   1.858 127.562  0.00  0.00    -0.276 OA
ATOM     20  C   LIG A   1      -6.051  -0.403 126.730  0.00  0.00    +0.094 C 
ATOM     21  C   LIG A   1      -5.946   0.524 125.519  0.00  0.00    +0.024 C 
ATOM     22  C   LIG A   1      -6.387  -0.161 124.204  0.00  0.00    +0.010 C 
ENDROOT
BRANCH   1  24
ATOM     23  C   LIG A   1      -4.794  -3.668 123.616  0.00  0.00    +0.004 C 
ATOM     24  C   LIG A   1      -5.017  -2.341 124.345  0.00  0.00    +0.005 C 
ENDBRANCH   1  24
BRANCH  13  25
ATOM     25  O   LIG A   1      -6.822  -2.776 132.079  0.00  0.00    -0.491 OA
ATOM     26  C   LIG A   1      -6.042  -3.931 132.372  0.00  0.00    +0.277 C 
ENDBRANCH  13  25
BRANCH  14  27
ATOM     27  O   LIG A   1      -5.664  -0.650 131.197  0.00  0.00    -0.502 OA
ATOM     28  H   LIG A   1      -5.696  -1.185 132.014  0.00  0.00    +0.292 HD
ENDBRANCH  14  27
TORSDOF 3
ENDMDL
MODEL 2
REMARK VINA RESULT:      -7.6      3.005      4.528
REMARK  Name = NuBBE_1960
REMARK  6 active torsions:
REMARK  status: ('A' for Active; 'I' for Inactive)
REMARK    1  A    between atoms: C_1  and  C_2
REMARK    2  A    between atoms: C_2  and  C_3
REMARK    3  A    between atoms: C_15  and  O_16
REMARK    4  A    between atoms: O_16  and  C_17
REMARK    5  A    between atoms: C_18  and  O_19
REMARK    6  A    between atoms: C_22  and  C_23
REMARK                            x       y       z     vdW  Elec       q    Type
REMARK                         _______ _______ _______ _____ _____    ______ ____
ROOT
ATOM      1  C   LIG A   1      -7.625  -1.765 123.719  0.00  0.00    -0.013 C 
ATOM      2  C   LIG A   1      -7.312  -1.246 125.193  0.00  0.00    +0.075 C 
ATOM      3  C   LIG A   1      -7.258   0.303 125.321  0.00  0.00    +0.034 C 
ATOM      4  C   LIG A   1      -8.611   0.730 125.947  0.00  0.00    +0.030 C 
ATOM      5  C   LIG A   1      -9.344  -0.560 126.255  0.00  0.00    +0.086 C 
ATOM      6  N   LIG A   1      -8.304  -1.581 126.236  0.00  0.00    -0.298 NA
ATOM      7  C   LIG A   1      -8.823  -2.938 126.191  0.00  0.00    +0.085 C 
ATOM      8  C   LIG A   1      -9.395  -3.308 124.833  0.00  0.00    +0.016 C 
ATOM      9  C   LIG A   1      -8.330  -3.157 123.760  0.00  0.00    +0.009 C 
ATOM     10  C   LIG A   1      -6.161   0.942 126.149  0.00  0.00    -0.013 A 
ATOM     11  C   LIG A   1      -5.662   0.465 127.359  0.00  0.00    +0.010 A 
ATOM     12  C   LIG A   1      -4.721   1.228 128.043  0.00  0.00    +0.050 A 
ATOM     13  C   LIG A   1      -4.319   2.460 127.522  0.00  0.00    +0.163 A 
ATOM     14  C   LIG A   1      -4.835   2.934 126.293  0.00  0.00    +0.181 A 
ATOM     15  C   LIG A   1      -5.758   2.177 125.583  0.00  0.00    +0.086 A 
ATOM     16  N   LIG A   1      -6.426   2.337 124.322  0.00  0.00    -0.264 N 
ATOM     17  C   LIG A   1      -6.350   3.310 123.342  0.00  0.00    +0.217 C 
ATOM     18  C   LIG A   1      -5.477   4.517 123.506  0.00  0.00    +0.110 C 
ATOM     19  O   LIG A   1      -6.982   3.215 122.288  0.00  0.00    -0.276 OA
ATOM     20  C   LIG A   1      -6.937   0.985 123.990  0.00  0.00    +0.094 C 
ATOM     21  C   LIG A   1      -8.019   0.720 122.944  0.00  0.00    +0.024 C 
ATOM     22  C   LIG A   1      -8.528  -0.740 122.970  0.00  0.00    +0.010 C 
ENDROOT
BRANCH   1  24
ATOM     23  C   LIG A   1      -5.254  -2.924 123.585  0.00  0.00    +0.004 C 
ATOM     24  C   LIG A   1      -6.282  -2.005 122.921  0.00  0.00    +0.005 C 
ENDBRANCH   1  24
BRANCH  13  25
ATOM     25  O   LIG A   1      -3.383   3.288 128.102  0.00  0.00    -0.491 OA
ATOM     26  C   LIG A   1      -3.727   3.801 129.385  0.00  0.00    +0.277 C 
ENDBRANCH  13  25
BRANCH  14  27
ATOM     27  O   LIG A   1      -4.362   4.143 125.877  0.00  0.00    -0.502 OA
ATOM     28  H   LIG A   1      -4.214   4.663 126.692  0.00  0.00    +0.292 HD
ENDBRANCH  14  27
TORSDOF 3
ENDMDL
MODEL 3
REMARK VINA RESULT:      -7.6      6.290      9.199
REMARK  Name = NuBBE_1960
REMARK  6 active torsions:
REMARK  status: ('A' for Active; 'I' for Inactive)
REMARK    1  A    between atoms: C_1  and  C_2
REMARK    2  A    between atoms: C_2  and  C_3
REMARK    3  A    between atoms: C_15  and  O_16
REMARK    4  A    between atoms: O_16  and  C_17
REMARK    5  A    between atoms: C_18  and  O_19
REMARK    6  A    between atoms: C_22  and  C_23
REMARK                            x       y       z     vdW  Elec       q    Type
REMARK                         _______ _______ _______ _____ _____    ______ ____
ROOT
ATOM      1  C   LIG A   1      -3.646   4.921 130.351  0.00  0.00    -0.013 C 
ATOM      2  C   LIG A   1      -4.839   5.864 130.825  0.00  0.00    +0.075 C 
ATOM      3  C   LIG A   1      -5.960   5.123 131.608  0.00  0.00    +0.034 C 
ATOM      4  C   LIG A   1      -5.719   5.439 133.107  0.00  0.00    +0.030 C 
ATOM      5  C   LIG A   1      -4.561   6.416 133.137  0.00  0.00    +0.086 C 
ATOM      6  N   LIG A   1      -4.493   6.939 131.779  0.00  0.00    -0.298 NA
ATOM      7  C   LIG A   1      -3.260   7.654 131.493  0.00  0.00    +0.085 C 
ATOM      8  C   LIG A   1      -2.063   6.731 131.339  0.00  0.00    +0.016 C 
ATOM      9  C   LIG A   1      -2.316   5.730 130.224  0.00  0.00    +0.009 C 
ATOM     10  C   LIG A   1      -7.411   5.445 131.312  0.00  0.00    -0.013 A 
ATOM     11  C   LIG A   1      -7.934   6.709 131.048  0.00  0.00    +0.010 A 
ATOM     12  C   LIG A   1      -9.310   6.846 130.894  0.00  0.00    +0.050 A 
ATOM     13  C   LIG A   1     -10.135   5.727 131.034  0.00  0.00    +0.163 A 
ATOM     14  C   LIG A   1      -9.592   4.450 131.303  0.00  0.00    +0.181 A 
ATOM     15  C   LIG A   1      -8.219   4.288 131.437  0.00  0.00    +0.086 A 
ATOM     16  N   LIG A   1      -7.361   3.157 131.659  0.00  0.00    -0.264 N 
ATOM     17  C   LIG A   1      -7.614   1.804 131.784  0.00  0.00    +0.217 C 
ATOM     18  C   LIG A   1      -9.011   1.264 131.747  0.00  0.00    +0.110 C 
ATOM     19  O   LIG A   1      -6.701   0.986 131.913  0.00  0.00    -0.276 OA
ATOM     20  C   LIG A   1      -6.008   3.630 131.279  0.00  0.00    +0.094 C 
ATOM     21  C   LIG A   1      -4.716   2.920 131.686  0.00  0.00    +0.024 C 
ATOM     22  C   LIG A   1      -3.453   3.750 131.361  0.00  0.00    +0.010 C 
ENDROOT
BRANCH   1  24
ATOM     23  C   LIG A   1      -2.722   4.271 127.962  0.00  0.00    +0.004 C 
ATOM     24  C   LIG A   1      -3.927   4.359 128.901  0.00  0.00    +0.005 C 
ENDBRANCH   1  24
BRANCH  13  25
ATOM     25  O   LIG A   1     -11.505   5.743 130.884  0.00  0.00    -0.491 OA
ATOM     26  C   LIG A   1     -12.177   6.847 131.481  0.00  0.00    +0.277 C 
ENDBRANCH  13  25
BRANCH  14  27
ATOM     27  O   LIG A   1     -10.492   3.432 131.406  0.00  0.00    -0.502 OA
ATOM     28  H   LIG A   1      -9.962   2.624 131.551  0.00  0.00    +0.292 HD
ENDBRANCH  14  27
TORSDOF 3
ENDMDL
MODEL 4
REMARK VINA RESULT:      -7.3      2.417      6.095
REMARK  Name = NuBBE_1960
REMARK  6 active torsions:
REMARK  status: ('A' for Active; 'I' for Inactive)
REMARK    1  A    between atoms: C_1  and  C_2
REMARK    2  A    between atoms: C_2  and  C_3
REMARK    3  A    between atoms: C_15  and  O_16
REMARK    4  A    between atoms: O_16  and  C_17
REMARK    5  A    between atoms: C_18  and  O_19
REMARK    6  A    between atoms: C_22  and  C_23
REMARK                            x       y       z     vdW  Elec       q    Type
REMARK                         _______ _______ _______ _____ _____    ______ ____
ROOT
ATOM      1  C   LIG A   1      -6.105  -1.005 131.453  0.00  0.00    -0.013 C 
ATOM      2  C   LIG A   1      -6.616  -2.097 130.411  0.00  0.00    +0.075 C 
ATOM      3  C   LIG A   1      -6.247  -1.785 128.933  0.00  0.00    +0.034 C 
ATOM      4  C   LIG A   1      -5.034  -2.688 128.592  0.00  0.00    +0.030 C 
ATOM      5  C   LIG A   1      -4.812  -3.552 129.817  0.00  0.00    +0.086 C 
ATOM      6  N   LIG A   1      -6.063  -3.460 130.558  0.00  0.00    -0.298 NA
ATOM      7  C   LIG A   1      -5.969  -3.952 131.922  0.00  0.00    +0.085 C 
ATOM      8  C   LIG A   1      -5.204  -3.011 132.838  0.00  0.00    +0.016 C 
ATOM      9  C   LIG A   1      -5.870  -1.645 132.857  0.00  0.00    +0.009 C 
ATOM     10  C   LIG A   1      -7.282  -1.999 127.847  0.00  0.00    -0.013 A 
ATOM     11  C   LIG A   1      -8.189  -3.054 127.775  0.00  0.00    +0.010 A 
ATOM     12  C   LIG A   1      -9.009  -3.158 126.655  0.00  0.00    +0.050 A 
ATOM     13  C   LIG A   1      -8.888  -2.226 125.622  0.00  0.00    +0.163 A 
ATOM     14  C   LIG A   1      -7.962  -1.160 125.707  0.00  0.00    +0.181 A 
ATOM     15  C   LIG A   1      -7.151  -1.026 126.827  0.00  0.00    +0.086 A 
ATOM     16  N   LIG A   1      -6.168  -0.064 127.241  0.00  0.00    -0.264 N 
ATOM     17  C   LIG A   1      -5.705   1.106 126.667  0.00  0.00    +0.217 C 
ATOM     18  C   LIG A   1      -6.200   1.568 125.330  0.00  0.00    +0.110 C 
ATOM     19  O   LIG A   1      -4.883   1.824 127.238  0.00  0.00    -0.276 OA
ATOM     20  C   LIG A   1      -6.006  -0.292 128.698  0.00  0.00    +0.094 C 
ATOM     21  C   LIG A   1      -4.819   0.224 129.511  0.00  0.00    +0.024 C 
ATOM     22  C   LIG A   1      -4.782  -0.356 130.944  0.00  0.00    +0.010 C 
ENDROOT
BRANCH   1  24
ATOM     23  C   LIG A   1      -8.652  -0.309 131.377  0.00  0.00    +0.004 C 
ATOM     24  C   LIG A   1      -7.210   0.101 131.683  0.00  0.00    +0.005 C 
ENDBRANCH   1  24
BRANCH  13  25
ATOM     25  O   LIG A   1      -9.658  -2.220 124.479  0.00  0.00    -0.491 OA
ATOM     26  C   LIG A   1      -9.471  -3.330 123.607  0.00  0.00    +0.277 C 
ENDBRANCH  13  25
BRANCH  14  27
ATOM     27  O   LIG A   1      -7.940  -0.306 124.645  0.00  0.00    -0.502 OA
ATOM     28  H   LIG A   1      -7.386  -0.740 123.967  0.00  0.00    +0.292 HD
ENDBRANCH  14  27
TORSDOF 3
ENDMDL
MODEL 5
REMARK VINA RESULT:      -7.2      3.315      6.183
REMARK  Name = NuBBE_1960
REMARK  6 active torsions:
REMARK  status: ('A' for Active; 'I' for Inactive)
REMARK    1  A    between atoms: C_1  and  C_2
REMARK    2  A    between atoms: C_2  and  C_3
REMARK    3  A    between atoms: C_15  and  O_16
REMARK    4  A    between atoms: O_16  and  C_17
REMARK    5  A    between atoms: C_18  and  O_19
REMARK    6  A    between atoms: C_22  and  C_23
REMARK                            x       y       z     vdW  Elec       q    Type
REMARK                         _______ _______ _______ _____ _____    ______ ____
ROOT
ATOM      1  C   LIG A   1      -6.933  -2.933 130.067  0.00  0.00    -0.013 C 
ATOM      2  C   LIG A   1      -6.171  -1.861 129.169  0.00  0.00    +0.075 C 
ATOM      3  C   LIG A   1      -6.454  -0.385 129.566  0.00  0.00    +0.034 C 
ATOM      4  C   LIG A   1      -5.219   0.088 130.376  0.00  0.00    +0.030 C 
ATOM      5  C   LIG A   1      -4.236  -1.064 130.331  0.00  0.00    +0.086 C 
ATOM      6  N   LIG A   1      -4.693  -1.888 129.219  0.00  0.00    -0.298 NA
ATOM      7  C   LIG A   1      -4.092  -3.211 129.189  0.00  0.00    +0.085 C 
ATOM      8  C   LIG A   1      -4.636  -4.132 130.268  0.00  0.00    +0.016 C 
ATOM      9  C   LIG A   1      -6.142  -4.277 130.119  0.00  0.00    +0.009 C 
ATOM     10  C   LIG A   1      -6.696   0.644 128.479  0.00  0.00    -0.013 A 
ATOM     11  C   LIG A   1      -6.026   0.723 127.260  0.00  0.00    +0.010 A 
ATOM     12  C   LIG A   1      -6.300   1.793 126.414  0.00  0.00    +0.050 A 
ATOM     13  C   LIG A   1      -7.213   2.772 126.811  0.00  0.00    +0.163 A 
ATOM     14  C   LIG A   1      -7.886   2.681 128.052  0.00  0.00    +0.181 A 
ATOM     15  C   LIG A   1      -7.643   1.609 128.901  0.00  0.00    +0.086 A 
ATOM     16  N   LIG A   1      -8.172   1.200 130.172  0.00  0.00    -0.264 N 
ATOM     17  C   LIG A   1      -9.154   1.729 130.990  0.00  0.00    +0.217 C 
ATOM     18  C   LIG A   1      -9.863   3.001 130.635  0.00  0.00    +0.110 C 
ATOM     19  O   LIG A   1      -9.498   1.169 132.032  0.00  0.00    -0.276 OA
ATOM     20  C   LIG A   1      -7.787  -0.227 130.300  0.00  0.00    +0.094 C 
ATOM     21  C   LIG A   1      -7.797  -0.993 131.623  0.00  0.00    +0.024 C 
ATOM     22  C   LIG A   1      -7.127  -2.382 131.512  0.00  0.00    +0.010 C 
ENDROOT
BRANCH   1  24
ATOM     23  C   LIG A   1      -8.416  -3.217 127.899  0.00  0.00    +0.004 C 
ATOM     24  C   LIG A   1      -8.330  -3.301 129.424  0.00  0.00    +0.005 C 
ENDBRANCH   1  24
BRANCH  13  25
ATOM     25  O   LIG A   1      -7.574   3.862 126.047  0.00  0.00    -0.491 OA
ATOM     26  C   LIG A   1      -8.260   3.562 124.836  0.00  0.00    +0.277 C 
ENDBRANCH  13  25
BRANCH  14  27
ATOM     27  O   LIG A   1      -8.762   3.688 128.327  0.00  0.00    -0.502 OA
ATOM     28  H   LIG A   1      -9.250   3.848 127.496  0.00  0.00    +0.292 HD
ENDBRANCH  14  27
TORSDOF 3
ENDMDL
MODEL 6
REMARK VINA RESULT:      -7.2      2.550      6.627
REMARK  Name = NuBBE_1960
REMARK  6 active torsions:
REMARK  status: ('A' for Active; 'I' for Inactive)
REMARK    1  A    between atoms: C_1  and  C_2
REMARK    2  A    between atoms: C_2  and  C_3
REMARK    3  A    between atoms: C_15  and  O_16
REMARK    4  A    between atoms: O_16  and  C_17
REMARK    5  A    between atoms: C_18  and  O_19
REMARK    6  A    between atoms: C_22  and  C_23
REMARK                            x       y       z     vdW  Elec       q    Type
REMARK                         _______ _______ _______ _____ _____    ______ ____
ROOT
ATOM      1  C   LIG A   1      -5.166  -2.732 130.600  0.00  0.00    -0.013 C 
ATOM      2  C   LIG A   1      -5.258  -1.354 129.806  0.00  0.00    +0.075 C 
ATOM      3  C   LIG A   1      -6.535  -1.209 128.932  0.00  0.00    +0.034 C 
ATOM      4  C   LIG A   1      -7.499  -0.291 129.727  0.00  0.00    +0.030 C 
ATOM      5  C   LIG A   1      -6.727   0.145 130.956  0.00  0.00    +0.086 C 
ATOM      6  N   LIG A   1      -5.334  -0.124 130.623  0.00  0.00    -0.298 NA
ATOM      7  C   LIG A   1      -4.443  -0.081 131.771  0.00  0.00    +0.085 C 
ATOM      8  C   LIG A   1      -4.595  -1.286 132.683  0.00  0.00    +0.016 C 
ATOM      9  C   LIG A   1      -4.328  -2.565 131.907  0.00  0.00    +0.009 C 
ATOM     10  C   LIG A   1      -6.419  -0.631 127.535  0.00  0.00    -0.013 A 
ATOM     11  C   LIG A   1      -5.600   0.429 127.151  0.00  0.00    +0.010 A 
ATOM     12  C   LIG A   1      -5.687   0.903 125.846  0.00  0.00    +0.050 A 
ATOM     13  C   LIG A   1      -6.605   0.331 124.962  0.00  0.00    +0.163 A 
ATOM     14  C   LIG A   1      -7.431  -0.744 125.365  0.00  0.00    +0.181 A 
ATOM     15  C   LIG A   1      -7.344  -1.247 126.657  0.00  0.00    +0.086 A 
ATOM     16  N   LIG A   1      -7.984  -2.326 127.356  0.00  0.00    -0.264 N 
ATOM     17  C   LIG A   1      -8.905  -3.279 126.961  0.00  0.00    +0.217 C 
ATOM     18  C   LIG A   1      -9.473  -3.287 125.574  0.00  0.00    +0.110 C 
ATOM     19  O   LIG A   1      -9.281  -4.169 127.726  0.00  0.00    -0.276 OA
ATOM     20  C   LIG A   1      -7.131  -2.564 128.546  0.00  0.00    +0.094 C 
ATOM     21  C   LIG A   1      -7.589  -3.350 129.774  0.00  0.00    +0.024 C 
ATOM     22  C   LIG A   1      -6.595  -3.242 130.954  0.00  0.00    +0.010 C 
ENDROOT
BRANCH   1  24
ATOM     23  C   LIG A   1      -3.012  -3.399 129.222  0.00  0.00    +0.004 C 
ATOM     24  C   LIG A   1      -4.390  -3.812 129.747  0.00  0.00    +0.005 C 
ENDBRANCH   1  24
BRANCH  13  25
ATOM     25  O   LIG A   1      -6.763   0.707 123.646  0.00  0.00    -0.491 OA
ATOM     26  C   LIG A   1      -7.167   2.056 123.436  0.00  0.00    +0.277 C 
ENDBRANCH  13  25
BRANCH  14  27
ATOM     27  O   LIG A   1      -8.279  -1.229 124.415  0.00  0.00    -0.502 OA
ATOM     28  H   LIG A   1      -9.032  -1.615 124.904  0.00  0.00    +0.292 HD
ENDBRANCH  14  27
TORSDOF 3
ENDMDL
MODEL 7
REMARK VINA RESULT:      -7.2      5.603      7.467
REMARK  Name = NuBBE_1960
REMARK  6 active torsions:
REMARK  status: ('A' for Active; 'I' for Inactive)
REMARK    1  A    between atoms: C_1  and  C_2
REMARK    2  A    between atoms: C_2  and  C_3
REMARK    3  A    between atoms: C_15  and  O_16
REMARK    4  A    between atoms: O_16  and  C_17
REMARK    5  A    between atoms: C_18  and  O_19
REMARK    6  A    between atoms: C_22  and  C_23
REMARK                            x       y       z     vdW  Elec       q    Type
REMARK                         _______ _______ _______ _____ _____    ______ ____
ROOT
ATOM      1  C   LIG A   1      -7.816   0.733 129.862  0.00  0.00    -0.013 C 
ATOM      2  C   LIG A   1      -8.735   1.947 129.392  0.00  0.00    +0.075 C 
ATOM      3  C   LIG A   1      -8.419   3.293 130.102  0.00  0.00    +0.034 C 
ATOM      4  C   LIG A   1      -7.587   4.127 129.094  0.00  0.00    +0.030 C 
ATOM      5  C   LIG A   1      -7.540   3.303 127.823  0.00  0.00    +0.086 C 
ATOM      6  N   LIG A   1      -8.628   2.345 127.972  0.00  0.00    -0.298 NA
ATOM      7  C   LIG A   1      -8.572   1.249 127.019  0.00  0.00    +0.085 C 
ATOM      8  C   LIG A   1      -7.472   0.249 127.331  0.00  0.00    +0.016 C 
ATOM      9  C   LIG A   1      -7.671  -0.326 128.724  0.00  0.00    +0.009 C 
ATOM     10  C   LIG A   1      -9.561   4.172 130.572  0.00  0.00    -0.013 A 
ATOM     11  C   LIG A   1     -10.757   4.397 129.892  0.00  0.00    +0.010 A 
ATOM     12  C   LIG A   1     -11.663   5.313 130.417  0.00  0.00    +0.050 A 
ATOM     13  C   LIG A   1     -11.347   6.004 131.589  0.00  0.00    +0.163 A 
ATOM     14  C   LIG A   1     -10.129   5.767 132.269  0.00  0.00    +0.181 A 
ATOM     15  C   LIG A   1      -9.221   4.839 131.774  0.00  0.00    +0.086 A 
ATOM     16  N   LIG A   1      -7.953   4.341 132.228  0.00  0.00    -0.264 N 
ATOM     17  C   LIG A   1      -7.199   4.595 133.358  0.00  0.00    +0.217 C 
ATOM     18  C   LIG A   1      -7.641   5.597 134.381  0.00  0.00    +0.110 C 
ATOM     19  O   LIG A   1      -6.146   3.996 133.580  0.00  0.00    -0.276 OA
ATOM     20  C   LIG A   1      -7.743   3.089 131.459  0.00  0.00    +0.094 C 
ATOM     21  C   LIG A   1      -6.387   2.399 131.317  0.00  0.00    +0.024 C 
ATOM     22  C   LIG A   1      -6.407   1.256 130.275  0.00  0.00    +0.010 C 
ENDROOT
BRANCH   1  24
ATOM     23  C   LIG A   1      -7.790  -1.319 131.526  0.00  0.00    +0.004 C 
ATOM     24  C   LIG A   1      -8.492  -0.040 131.062  0.00  0.00    +0.005 C 
ENDBRANCH   1  24
BRANCH  13  25
ATOM     25  O   LIG A   1     -12.174   6.917 132.207  0.00  0.00    -0.491 OA
ATOM     26  C   LIG A   1     -12.942   7.739 131.334  0.00  0.00    +0.277 C 
ENDBRANCH  13  25
BRANCH  14  27
ATOM     27  O   LIG A   1      -9.935   6.490 133.408  0.00  0.00    -0.502 OA
ATOM     28  H   LIG A   1     -10.602   7.204 133.385  0.00  0.00    +0.292 HD
ENDBRANCH  14  27
TORSDOF 3
ENDMDL
MODEL 8
REMARK VINA RESULT:      -7.1      2.484      4.134
REMARK  Name = NuBBE_1960
REMARK  6 active torsions:
REMARK  status: ('A' for Active; 'I' for Inactive)
REMARK    1  A    between atoms: C_1  and  C_2
REMARK    2  A    between atoms: C_2  and  C_3
REMARK    3  A    between atoms: C_15  and  O_16
REMARK    4  A    between atoms: O_16  and  C_17
REMARK    5  A    between atoms: C_18  and  O_19
REMARK    6  A    between atoms: C_22  and  C_23
REMARK                            x       y       z     vdW  Elec       q    Type
REMARK                         _______ _______ _______ _____ _____    ______ ____
ROOT
ATOM      1  C   LIG A   1      -7.830  -1.192 125.642  0.00  0.00    -0.013 C 
ATOM      2  C   LIG A   1      -7.816   0.112 126.557  0.00  0.00    +0.075 C 
ATOM      3  C   LIG A   1      -7.233  -0.117 127.980  0.00  0.00    +0.034 C 
ATOM      4  C   LIG A   1      -5.787   0.442 127.948  0.00  0.00    +0.030 C 
ATOM      5  C   LIG A   1      -5.619   1.061 126.575  0.00  0.00    +0.086 C 
ATOM      6  N   LIG A   1      -6.981   1.238 126.088  0.00  0.00    -0.298 NA
ATOM      7  C   LIG A   1      -7.057   1.522 124.664  0.00  0.00    +0.085 C 
ATOM      8  C   LIG A   1      -6.766   0.304 123.803  0.00  0.00    +0.016 C 
ATOM      9  C   LIG A   1      -7.744  -0.812 124.131  0.00  0.00    +0.009 C 
ATOM     10  C   LIG A   1      -7.926   0.504 129.176  0.00  0.00    -0.013 A 
ATOM     11  C   LIG A   1      -8.500   1.773 129.224  0.00  0.00    +0.010 A 
ATOM     12  C   LIG A   1      -9.010   2.231 130.435  0.00  0.00    +0.050 A 
ATOM     13  C   LIG A   1      -8.912   1.429 131.574  0.00  0.00    +0.163 A 
ATOM     14  C   LIG A   1      -8.325   0.144 131.512  0.00  0.00    +0.181 A 
ATOM     15  C   LIG A   1      -7.831  -0.342 130.308  0.00  0.00    +0.086 A 
ATOM     16  N   LIG A   1      -7.234  -1.582 129.900  0.00  0.00    -0.264 N 
ATOM     17  C   LIG A   1      -6.971  -2.760 130.575  0.00  0.00    +0.217 C 
ATOM     18  C   LIG A   1      -7.272  -2.906 132.035  0.00  0.00    +0.110 C 
ATOM     19  O   LIG A   1      -6.498  -3.741 130.000  0.00  0.00    -0.276 OA
ATOM     20  C   LIG A   1      -7.333  -1.579 128.419  0.00  0.00    +0.094 C 
ATOM     21  C   LIG A   1      -6.515  -2.499 127.513  0.00  0.00    +0.024 C 
ATOM     22  C   LIG A   1      -6.638  -2.124 126.018  0.00  0.00    +0.010 C 
ENDROOT
BRANCH   1  24
ATOM     23  C   LIG A   1      -9.394  -3.190 124.904  0.00  0.00    +0.004 C 
ATOM     24  C   LIG A   1      -9.201  -1.962 125.797  0.00  0.00    +0.005 C 
ENDBRANCH   1  24
BRANCH  13  25
ATOM     25  O   LIG A   1      -9.398   1.773 132.817  0.00  0.00    -0.491 OA
ATOM     26  C   LIG A   1      -9.022   3.063 133.289  0.00  0.00    +0.277 C 
ENDBRANCH  13  25
BRANCH  14  27
ATOM     27  O   LIG A   1      -8.296  -0.552 132.684  0.00  0.00    -0.502 OA
ATOM     28  H   LIG A   1      -8.689  -1.424 132.483  0.00  0.00    +0.292 HD
ENDBRANCH  14  27
TORSDOF 3
ENDMDL
MODEL 9
REMARK VINA RESULT:      -7.1      3.213      5.679
REMARK  Name = NuBBE_1960
REMARK  6 active torsions:
REMARK  status: ('A' for Active; 'I' for Inactive)
REMARK    1  A    between atoms: C_1  and  C_2
REMARK    2  A    between atoms: C_2  and  C_3
REMARK    3  A    between atoms: C_15  and  O_16
REMARK    4  A    between atoms: O_16  and  C_17
REMARK    5  A    between atoms: C_18  and  O_19
REMARK    6  A    between atoms: C_22  and  C_23
REMARK                            x       y       z     vdW  Elec       q    Type
REMARK                         _______ _______ _______ _____ _____    ______ ____
ROOT
ATOM      1  C   LIG A   1      -4.711  -2.385 130.178  0.00  0.00    -0.013 C 
ATOM      2  C   LIG A   1      -6.137  -1.807 130.589  0.00  0.00    +0.075 C 
ATOM      3  C   LIG A   1      -6.917  -1.148 129.417  0.00  0.00    +0.034 C 
ATOM      4  C   LIG A   1      -7.974  -2.188 128.964  0.00  0.00    +0.030 C 
ATOM      5  C   LIG A   1      -7.850  -3.345 129.934  0.00  0.00    +0.086 C 
ATOM      6  N   LIG A   1      -7.132  -2.788 131.073  0.00  0.00    -0.298 NA
ATOM      7  C   LIG A   1      -6.622  -3.796 131.988  0.00  0.00    +0.085 C 
ATOM      8  C   LIG A   1      -5.424  -4.546 131.433  0.00  0.00    +0.016 C 
ATOM      9  C   LIG A   1      -4.304  -3.573 131.106  0.00  0.00    +0.009 C 
ATOM     10  C   LIG A   1      -7.648   0.158 129.653  0.00  0.00    -0.013 A 
ATOM     11  C   LIG A   1      -8.363   0.504 130.797  0.00  0.00    +0.010 A 
ATOM     12  C   LIG A   1      -9.062   1.707 130.812  0.00  0.00    +0.050 A 
ATOM     13  C   LIG A   1      -9.056   2.524 129.680  0.00  0.00    +0.163 A 
ATOM     14  C   LIG A   1      -8.327   2.161 128.523  0.00  0.00    +0.181 A 
ATOM     15  C   LIG A   1      -7.604   0.975 128.496  0.00  0.00    +0.086 A 
ATOM     16  N   LIG A   1      -6.746   0.349 127.530  0.00  0.00    -0.264 N 
ATOM     17  C   LIG A   1      -6.308   0.738 126.277  0.00  0.00    +0.217 C 
ATOM     18  C   LIG A   1      -6.770   2.020 125.653  0.00  0.00    +0.110 C 
ATOM     19  O   LIG A   1      -5.508   0.058 125.633  0.00  0.00    -0.276 OA
ATOM     20  C   LIG A   1      -5.988  -0.667 128.300  0.00  0.00    +0.094 C 
ATOM     21  C   LIG A   1      -5.229  -1.828 127.657  0.00  0.00    +0.024 C 
ATOM     22  C   LIG A   1      -4.732  -2.862 128.694  0.00  0.00    +0.010 C 
ENDROOT
BRANCH   1  24
ATOM     23  C   LIG A   1      -3.909  -0.177 131.389  0.00  0.00    +0.004 C 
ATOM     24  C   LIG A   1      -3.589  -1.292 130.390  0.00  0.00    +0.005 C 
ENDBRANCH   1  24
BRANCH  13  25
ATOM     25  O   LIG A   1      -9.696   3.742 129.590  0.00  0.00    -0.491 OA
ATOM     26  C   LIG A   1     -10.789   3.929 130.482  0.00  0.00    +0.277 C 
ENDBRANCH  13  25
BRANCH  14  27
ATOM     27  O   LIG A   1      -8.385   3.042 127.484  0.00  0.00    -0.502 OA
ATOM     28  H   LIG A   1      -8.976   2.631 126.823  0.00  0.00    +0.292 HD
ENDBRANCH  14  27
TORSDOF 3
ENDMDL
