MODEL 1
REMARK VINA RESULT:      -5.6      0.000      0.000
REMARK  Name = NuBBE_1751
REMARK  4 active torsions:
REMARK  status: ('A' for Active; 'I' for Inactive)
REMARK    1  A    between atoms: C_1  and  C_2
REMARK    2  A    between atoms: C_1  and  C_3
REMARK    3  A    between atoms: C_1  and  C_4
REMARK    4  A    between atoms: C_7  and  C_10
REMARK                            x       y       z     vdW  Elec       q    Type
REMARK                         _______ _______ _______ _____ _____    ______ ____
ROOT
ATOM      1  C   LIG A   1     -11.780   8.031 129.413  0.00  0.00    +0.018 C 
ATOM      2  C   LIG A   1     -10.285   7.631 129.256  0.00  0.00    +0.035 C 
ATOM      3  C   LIG A   1      -9.651   7.021 130.476  0.00  0.00    -0.023 C 
ATOM      4  C   LIG A   1     -10.375   6.479 131.467  0.00  0.00    -0.055 C 
ATOM      5  C   LIG A   1     -11.821   6.465 131.377  0.00  0.00    -0.001 C 
ATOM      6  C   LIG A   1     -12.482   7.170 130.448  0.00  0.00    -0.023 C 
ATOM      7  C   LIG A   1      -9.759   5.845 132.677  0.00  0.00    +0.043 C 
ENDROOT
BRANCH   1   8
ATOM      8  C   LIG A   1     -12.506   8.054 128.031  0.00  0.00    -0.010 C 
ATOM      9  C   LIG A   1     -11.601   7.591 126.881  0.00  0.00    +0.008 C 
ATOM     10  C   LIG A   1     -13.765   7.173 128.031  0.00  0.00    +0.008 C 
ENDBRANCH   1   8
TORSDOF 1
ENDMDL
MODEL 2
REMARK VINA RESULT:      -5.5      0.781      1.988
REMARK  Name = NuBBE_1751
REMARK  4 active torsions:
REMARK  status: ('A' for Active; 'I' for Inactive)
REMARK    1  A    between atoms: C_1  and  C_2
REMARK    2  A    between atoms: C_1  and  C_3
REMARK    3  A    between atoms: C_1  and  C_4
REMARK    4  A    between atoms: C_7  and  C_10
REMARK                            x       y       z     vdW  Elec       q    Type
REMARK                         _______ _______ _______ _____ _____    ______ ____
ROOT
ATOM      1  C   LIG A   1     -11.781   7.164 129.298  0.00  0.00    +0.018 C 
ATOM      2  C   LIG A   1     -12.406   7.008 130.715  0.00  0.00    +0.035 C 
ATOM      3  C   LIG A   1     -11.492   6.435 131.761  0.00  0.00    -0.023 C 
ATOM      4  C   LIG A   1     -10.156   6.441 131.630  0.00  0.00    -0.055 C 
ATOM      5  C   LIG A   1      -9.552   7.020 130.448  0.00  0.00    -0.001 C 
ATOM      6  C   LIG A   1     -10.277   7.354 129.370  0.00  0.00    -0.023 C 
ATOM      7  C   LIG A   1      -9.229   5.897 132.675  0.00  0.00    +0.043 C 
ENDROOT
BRANCH   1   8
ATOM      8  C   LIG A   1     -12.508   8.276 128.480  0.00  0.00    -0.010 C 
ATOM      9  C   LIG A   1     -13.775   7.763 127.780  0.00  0.00    +0.008 C 
ATOM     10  C   LIG A   1     -12.903   9.471 129.362  0.00  0.00    +0.008 C 
ENDBRANCH   1   8
TORSDOF 1
ENDMDL
MODEL 3
REMARK VINA RESULT:      -5.4      1.270      4.002
REMARK  Name = NuBBE_1751
REMARK  4 active torsions:
REMARK  status: ('A' for Active; 'I' for Inactive)
REMARK    1  A    between atoms: C_1  and  C_2
REMARK    2  A    between atoms: C_1  and  C_3
REMARK    3  A    between atoms: C_1  and  C_4
REMARK    4  A    between atoms: C_7  and  C_10
REMARK                            x       y       z     vdW  Elec       q    Type
REMARK                         _______ _______ _______ _____ _____    ______ ____
ROOT
ATOM      1  C   LIG A   1     -10.812   6.562 130.089  0.00  0.00    +0.018 C 
ATOM      2  C   LIG A   1     -10.288   7.631 129.088  0.00  0.00    +0.035 C 
ATOM      3  C   LIG A   1     -11.322   8.594 128.574  0.00  0.00    -0.023 C 
ATOM      4  C   LIG A   1     -12.487   8.804 129.209  0.00  0.00    -0.055 C 
ATOM      5  C   LIG A   1     -12.775   8.091 130.436  0.00  0.00    -0.001 C 
ATOM      6  C   LIG A   1     -12.024   7.062 130.855  0.00  0.00    -0.023 C 
ATOM      7  C   LIG A   1     -13.518   9.778 128.724  0.00  0.00    +0.043 C 
ENDROOT
BRANCH   1   8
ATOM      8  C   LIG A   1      -9.666   6.044 131.013  0.00  0.00    -0.010 C 
ATOM      9  C   LIG A   1      -8.387   6.885 130.896  0.00  0.00    +0.008 C 
ATOM     10  C   LIG A   1     -10.088   6.022 132.491  0.00  0.00    +0.008 C 
ENDBRANCH   1   8
TORSDOF 1
ENDMDL
MODEL 4
REMARK VINA RESULT:      -5.2     10.729     11.283
REMARK  Name = NuBBE_1751
REMARK  4 active torsions:
REMARK  status: ('A' for Active; 'I' for Inactive)
REMARK    1  A    between atoms: C_1  and  C_2
REMARK    2  A    between atoms: C_1  and  C_3
REMARK    3  A    between atoms: C_1  and  C_4
REMARK    4  A    between atoms: C_7  and  C_10
REMARK                            x       y       z     vdW  Elec       q    Type
REMARK                         _______ _______ _______ _____ _____    ______ ____
ROOT
ATOM      1  C   LIG A   1      -8.337  -2.914 126.201  0.00  0.00    +0.018 C 
ATOM      2  C   LIG A   1      -6.975  -2.367 126.715  0.00  0.00    +0.035 C 
ATOM      3  C   LIG A   1      -6.870  -2.199 128.205  0.00  0.00    -0.023 C 
ATOM      4  C   LIG A   1      -7.687  -2.836 129.060  0.00  0.00    -0.055 C 
ATOM      5  C   LIG A   1      -8.708  -3.727 128.549  0.00  0.00    -0.001 C 
ATOM      6  C   LIG A   1      -9.023  -3.775 127.246  0.00  0.00    -0.023 C 
ATOM      7  C   LIG A   1      -7.580  -2.699 130.548  0.00  0.00    +0.043 C 
ENDROOT
BRANCH   1   8
ATOM      8  C   LIG A   1      -8.176  -3.626 124.821  0.00  0.00    -0.010 C 
ATOM      9  C   LIG A   1      -9.322  -3.302 123.852  0.00  0.00    +0.008 C 
ATOM     10  C   LIG A   1      -6.853  -3.250 124.134  0.00  0.00    +0.008 C 
ENDBRANCH   1   8
TORSDOF 1
ENDMDL
MODEL 5
REMARK VINA RESULT:      -5.2     12.134     12.781
REMARK  Name = NuBBE_1751
REMARK  4 active torsions:
REMARK  status: ('A' for Active; 'I' for Inactive)
REMARK    1  A    between atoms: C_1  and  C_2
REMARK    2  A    between atoms: C_1  and  C_3
REMARK    3  A    between atoms: C_1  and  C_4
REMARK    4  A    between atoms: C_7  and  C_10
REMARK                            x       y       z     vdW  Elec       q    Type
REMARK                         _______ _______ _______ _____ _____    ______ ____
ROOT
ATOM      1  C   LIG A   1      -7.592  -2.274 124.135  0.00  0.00    +0.018 C 
ATOM      2  C   LIG A   1      -6.669  -1.897 122.940  0.00  0.00    +0.035 C 
ATOM      3  C   LIG A   1      -5.334  -2.586 122.916  0.00  0.00    -0.023 C 
ATOM      4  C   LIG A   1      -5.097  -3.720 123.596  0.00  0.00    -0.055 C 
ATOM      5  C   LIG A   1      -6.154  -4.320 124.383  0.00  0.00    -0.001 C 
ATOM      6  C   LIG A   1      -7.301  -3.675 124.644  0.00  0.00    -0.023 C 
ATOM      7  C   LIG A   1      -3.780  -4.433 123.562  0.00  0.00    +0.043 C 
ENDROOT
BRANCH   1   8
ATOM      8  C   LIG A   1      -9.094  -2.042 123.784  0.00  0.00    -0.010 C 
ATOM      9  C   LIG A   1      -9.289  -0.973 122.699  0.00  0.00    +0.008 C 
ATOM     10  C   LIG A   1      -9.777  -3.334 123.307  0.00  0.00    +0.008 C 
ENDBRANCH   1   8
TORSDOF 1
ENDMDL
MODEL 6
REMARK VINA RESULT:      -5.0      1.495      4.117
REMARK  Name = NuBBE_1751
REMARK  4 active torsions:
REMARK  status: ('A' for Active; 'I' for Inactive)
REMARK    1  A    between atoms: C_1  and  C_2
REMARK    2  A    between atoms: C_1  and  C_3
REMARK    3  A    between atoms: C_1  and  C_4
REMARK    4  A    between atoms: C_7  and  C_10
REMARK                            x       y       z     vdW  Elec       q    Type
REMARK                         _______ _______ _______ _____ _____    ______ ____
ROOT
ATOM      1  C   LIG A   1     -10.450   6.578 130.777  0.00  0.00    +0.018 C 
ATOM      2  C   LIG A   1     -11.948   6.580 131.198  0.00  0.00    +0.035 C 
ATOM      3  C   LIG A   1     -12.747   7.763 130.726  0.00  0.00    -0.023 C 
ATOM      4  C   LIG A   1     -12.352   8.535 129.701  0.00  0.00    -0.055 C 
ATOM      5  C   LIG A   1     -11.117   8.232 129.007  0.00  0.00    -0.001 C 
ATOM      6  C   LIG A   1     -10.233   7.343 129.484  0.00  0.00    -0.023 C 
ATOM      7  C   LIG A   1     -13.148   9.702 129.203  0.00  0.00    +0.043 C 
ENDROOT
BRANCH   1   8
ATOM      8  C   LIG A   1      -9.876   5.127 130.742  0.00  0.00    -0.010 C 
ATOM      9  C   LIG A   1     -10.954   4.072 130.457  0.00  0.00    +0.008 C 
ATOM     10  C   LIG A   1      -8.769   4.975 129.686  0.00  0.00    +0.008 C 
ENDBRANCH   1   8
TORSDOF 1
ENDMDL
MODEL 7
REMARK VINA RESULT:      -4.9     11.125     11.923
REMARK  Name = NuBBE_1751
REMARK  4 active torsions:
REMARK  status: ('A' for Active; 'I' for Inactive)
REMARK    1  A    between atoms: C_1  and  C_2
REMARK    2  A    between atoms: C_1  and  C_3
REMARK    3  A    between atoms: C_1  and  C_4
REMARK    4  A    between atoms: C_7  and  C_10
REMARK                            x       y       z     vdW  Elec       q    Type
REMARK                         _______ _______ _______ _____ _____    ______ ____
ROOT
ATOM      1  C   LIG A   1      -7.511  -1.363 123.916  0.00  0.00    +0.018 C 
ATOM      2  C   LIG A   1      -6.653  -1.688 125.172  0.00  0.00    +0.035 C 
ATOM      3  C   LIG A   1      -5.632  -2.776 124.990  0.00  0.00    -0.023 C 
ATOM      4  C   LIG A   1      -5.193  -3.154 123.778  0.00  0.00    -0.055 C 
ATOM      5  C   LIG A   1      -5.704  -2.500 122.592  0.00  0.00    -0.001 C 
ATOM      6  C   LIG A   1      -6.765  -1.680 122.633  0.00  0.00    -0.023 C 
ATOM      7  C   LIG A   1      -4.157  -4.219 123.580  0.00  0.00    +0.043 C 
ENDROOT
BRANCH   1   8
ATOM      8  C   LIG A   1      -8.060   0.097 123.969  0.00  0.00    -0.010 C 
ATOM      9  C   LIG A   1      -7.076   1.119 123.382  0.00  0.00    +0.008 C 
ATOM     10  C   LIG A   1      -9.394   0.235 123.218  0.00  0.00    +0.008 C 
ENDBRANCH   1   8
TORSDOF 1
ENDMDL
MODEL 8
REMARK VINA RESULT:      -4.8     10.878     12.110
REMARK  Name = NuBBE_1751
REMARK  4 active torsions:
REMARK  status: ('A' for Active; 'I' for Inactive)
REMARK    1  A    between atoms: C_1  and  C_2
REMARK    2  A    between atoms: C_1  and  C_3
REMARK    3  A    between atoms: C_1  and  C_4
REMARK    4  A    between atoms: C_7  and  C_10
REMARK                            x       y       z     vdW  Elec       q    Type
REMARK                         _______ _______ _______ _____ _____    ______ ____
ROOT
ATOM      1  C   LIG A   1      -6.765  -2.639 128.970  0.00  0.00    +0.018 C 
ATOM      2  C   LIG A   1      -7.900  -3.702 129.002  0.00  0.00    +0.035 C 
ATOM      3  C   LIG A   1      -8.861  -3.652 127.847  0.00  0.00    -0.023 C 
ATOM      4  C   LIG A   1      -8.559  -3.050 126.686  0.00  0.00    -0.055 C 
ATOM      5  C   LIG A   1      -7.264  -2.423 126.517  0.00  0.00    -0.001 C 
ATOM      6  C   LIG A   1      -6.431  -2.222 127.548  0.00  0.00    -0.023 C 
ATOM      7  C   LIG A   1      -9.495  -3.013 125.516  0.00  0.00    +0.043 C 
ENDROOT
BRANCH   1   8
ATOM      8  C   LIG A   1      -5.522  -3.115 129.784  0.00  0.00    -0.010 C 
ATOM      9  C   LIG A   1      -5.749  -4.469 130.471  0.00  0.00    +0.008 C 
ATOM     10  C   LIG A   1      -4.269  -3.234 128.901  0.00  0.00    +0.008 C 
ENDBRANCH   1   8
TORSDOF 1
ENDMDL
MODEL 9
REMARK VINA RESULT:      -4.4      7.249      9.002
REMARK  Name = NuBBE_1751
REMARK  4 active torsions:
REMARK  status: ('A' for Active; 'I' for Inactive)
REMARK    1  A    between atoms: C_1  and  C_2
REMARK    2  A    between atoms: C_1  and  C_3
REMARK    3  A    between atoms: C_1  and  C_4
REMARK    4  A    between atoms: C_7  and  C_10
REMARK                            x       y       z     vdW  Elec       q    Type
REMARK                         _______ _______ _______ _____ _____    ______ ____
ROOT
ATOM      1  C   LIG A   1      -2.984   4.278 128.457  0.00  0.00    +0.018 C 
ATOM      2  C   LIG A   1      -4.397   4.482 129.076  0.00  0.00    +0.035 C 
ATOM      3  C   LIG A   1      -4.640   5.830 129.694  0.00  0.00    -0.023 C 
ATOM      4  C   LIG A   1      -3.895   6.905 129.390  0.00  0.00    -0.055 C 
ATOM      5  C   LIG A   1      -2.816   6.785 128.432  0.00  0.00    -0.001 C 
ATOM      6  C   LIG A   1      -2.383   5.593 127.995  0.00  0.00    -0.023 C 
ATOM      7  C   LIG A   1      -4.140   8.262 129.978  0.00  0.00    +0.043 C 
ENDROOT
BRANCH   1   8
ATOM      8  C   LIG A   1      -3.007   3.183 127.345  0.00  0.00    -0.010 C 
ATOM      9  C   LIG A   1      -4.060   3.461 126.263  0.00  0.00    +0.008 C 
ATOM     10  C   LIG A   1      -1.642   3.039 126.654  0.00  0.00    +0.008 C 
ENDBRANCH   1   8
TORSDOF 1
ENDMDL
