MODEL 1
REMARK VINA RESULT:      -7.9      0.000      0.000
REMARK  Name = NuBBE_1653
REMARK  12 active torsions:
REMARK  status: ('A' for Active; 'I' for Inactive)
REMARK    1  A    between atoms: C_1  and  C_2
REMARK    2  A    between atoms: C_12  and  C_13
REMARK    3  A    between atoms: C_12  and  C_14
REMARK    4  A    between atoms: C_15  and  O_19
REMARK    5  A    between atoms: C_22  and  C_23
REMARK    6  A    between atoms: C_24  and  C_28
REMARK    7  A    between atoms: C_28  and  C_30
REMARK    8  A    between atoms: C_28  and  C_37
REMARK    9  A    between atoms: C_30  and  C_31
REMARK   10  A    between atoms: C_31  and  C_32
REMARK   11  A    between atoms: C_33  and  C_34
REMARK   12  A    between atoms: C_33  and  C_36
REMARK                            x       y       z     vdW  Elec       q    Type
REMARK                         _______ _______ _______ _____ _____    ______ ____
ROOT
ATOM      1  C   LIG A   1      -3.284   7.685 132.139  0.00  0.00    +0.012 C 
ATOM      2  C   LIG A   1      -3.581   6.918 130.833  0.00  0.00    -0.023 C 
ATOM      3  C   LIG A   1      -4.990   6.213 130.889  0.00  0.00    +0.002 C 
ATOM      4  C   LIG A   1      -5.000   5.111 131.951  0.00  0.00    -0.019 C 
ATOM      5  C   LIG A   1      -6.331   4.721 132.647  0.00  0.00    -0.019 C 
ATOM      6  C   LIG A   1      -5.233   5.437 133.410  0.00  0.00    +0.015 C 
ATOM      7  C   LIG A   1      -7.598   5.557 132.348  0.00  0.00    +0.004 C 
ATOM      8  C   LIG A   1      -7.486   6.282 130.999  0.00  0.00    +0.005 C 
ATOM      9  C   LIG A   1      -6.213   7.130 130.953  0.00  0.00    +0.005 C 
ATOM     10  C   LIG A   1      -8.939   4.768 132.531  0.00  0.00    -0.006 C 
ATOM     11  C   LIG A   1      -9.257   3.814 131.358  0.00  0.00    +0.014 C 
ATOM     12  C   LIG A   1     -10.124   5.766 132.612  0.00  0.00    +0.014 C 
ATOM     13  C   LIG A   1      -8.872   3.987 133.868  0.00  0.00    +0.120 C 
ATOM     14  C   LIG A   1      -7.699   3.015 133.980  0.00  0.00    +0.032 C 
ATOM     15  C   LIG A   1      -6.555   3.265 133.007  0.00  0.00    +0.010 C 
ATOM     16  C   LIG A   1      -3.997   4.030 131.593  0.00  0.00    +0.008 C 
ATOM     17  C   LIG A   1      -2.599   4.605 131.371  0.00  0.00    +0.008 C 
ATOM     18  C   LIG A   1      -2.484   5.843 130.453  0.00  0.00    -0.023 C 
ATOM     19  C   LIG A   1      -1.033   6.378 130.699  0.00  0.00    +0.012 C 
ATOM     20  C   LIG A   1      -2.610   5.706 128.865  0.00  0.00    -0.002 C 
ATOM     21  C   LIG A   1      -3.325   7.019 128.428  0.00  0.00    +0.005 C 
ATOM     22  C   LIG A   1      -3.469   7.900 129.656  0.00  0.00    +0.008 C 
ENDROOT
BRANCH  13  23
ATOM     23  O   LIG A   1      -8.802   4.897 134.975  0.00  0.00    -0.391 OA
ATOM     24  H   LIG A   1      -9.712   5.076 135.273  0.00  0.00    +0.210 HD
ENDBRANCH  13  23
BRANCH  20  25
ATOM     25  C   LIG A   1      -3.226   4.477 128.116  0.00  0.00    -0.010 C 
ATOM     26  C   LIG A   1      -2.239   3.724 127.221  0.00  0.00    +0.008 C 
BRANCH  25  27
ATOM     27  C   LIG A   1      -4.461   4.888 127.233  0.00  0.00    +0.007 C 
BRANCH  27  28
ATOM     28  C   LIG A   1      -5.836   4.449 127.769  0.00  0.00    +0.028 C 
BRANCH  28  29
ATOM     29  C   LIG A   1      -5.723   3.297 128.735  0.00  0.00    -0.021 C 
ATOM     30  C   LIG A   1      -6.641   2.342 128.970  0.00  0.00    -0.015 C 
ATOM     31  C   LIG A   1      -7.998   2.203 128.354  0.00  0.00    +0.046 C 
BRANCH  30  32
ATOM     32  C   LIG A   1      -6.292   1.299 129.980  0.00  0.00    +0.254 C 
ATOM     33  O   LIG A   1      -7.107   0.522 130.435  0.00  0.00    -0.296 OA
ENDBRANCH  30  32
ENDBRANCH  28  29
ENDBRANCH  27  28
ENDBRANCH  25  27
ENDBRANCH  20  25
TORSDOF 6
ENDMDL
MODEL 2
REMARK VINA RESULT:      -7.6      4.361      8.633
REMARK  Name = NuBBE_1653
REMARK  12 active torsions:
REMARK  status: ('A' for Active; 'I' for Inactive)
REMARK    1  A    between atoms: C_1  and  C_2
REMARK    2  A    between atoms: C_12  and  C_13
REMARK    3  A    between atoms: C_12  and  C_14
REMARK    4  A    between atoms: C_15  and  O_19
REMARK    5  A    between atoms: C_22  and  C_23
REMARK    6  A    between atoms: C_24  and  C_28
REMARK    7  A    between atoms: C_28  and  C_30
REMARK    8  A    between atoms: C_28  and  C_37
REMARK    9  A    between atoms: C_30  and  C_31
REMARK   10  A    between atoms: C_31  and  C_32
REMARK   11  A    between atoms: C_33  and  C_34
REMARK   12  A    between atoms: C_33  and  C_36
REMARK                            x       y       z     vdW  Elec       q    Type
REMARK                         _______ _______ _______ _____ _____    ______ ____
ROOT
ATOM      1  C   LIG A   1      -4.941  -4.106 131.065  0.00  0.00    +0.012 C 
ATOM      2  C   LIG A   1      -5.822  -2.880 131.385  0.00  0.00    -0.023 C 
ATOM      3  C   LIG A   1      -6.610  -2.391 130.110  0.00  0.00    +0.002 C 
ATOM      4  C   LIG A   1      -5.644  -1.860 129.049  0.00  0.00    -0.019 C 
ATOM      5  C   LIG A   1      -6.035  -1.924 127.548  0.00  0.00    -0.019 C 
ATOM      6  C   LIG A   1      -4.930  -2.801 128.104  0.00  0.00    +0.015 C 
ATOM      7  C   LIG A   1      -7.340  -2.654 127.151  0.00  0.00    +0.004 C 
ATOM      8  C   LIG A   1      -8.328  -2.714 128.324  0.00  0.00    +0.005 C 
ATOM      9  C   LIG A   1      -7.665  -3.347 129.549  0.00  0.00    +0.005 C 
ATOM     10  C   LIG A   1      -7.975  -2.138 125.815  0.00  0.00    -0.006 C 
ATOM     11  C   LIG A   1      -8.737  -0.803 125.970  0.00  0.00    +0.014 C 
ATOM     12  C   LIG A   1      -9.012  -3.171 125.298  0.00  0.00    +0.014 C 
ATOM     13  C   LIG A   1      -6.853  -2.007 124.754  0.00  0.00    +0.120 C 
ATOM     14  C   LIG A   1      -5.705  -1.082 125.151  0.00  0.00    +0.032 C 
ATOM     15  C   LIG A   1      -5.595  -0.789 126.642  0.00  0.00    +0.010 C 
ATOM     16  C   LIG A   1      -4.899  -0.649 129.579  0.00  0.00    +0.008 C 
ATOM     17  C   LIG A   1      -4.195  -0.949 130.900  0.00  0.00    +0.008 C 
ATOM     18  C   LIG A   1      -5.026  -1.656 131.996  0.00  0.00    -0.023 C 
ATOM     19  C   LIG A   1      -3.966  -2.119 133.052  0.00  0.00    +0.012 C 
ATOM     20  C   LIG A   1      -6.127  -0.859 132.837  0.00  0.00    -0.002 C 
ATOM     21  C   LIG A   1      -7.249  -1.912 133.084  0.00  0.00    +0.005 C 
ATOM     22  C   LIG A   1      -6.761  -3.245 132.545  0.00  0.00    +0.008 C 
ENDROOT
BRANCH  13  23
ATOM     23  O   LIG A   1      -6.300  -3.296 124.449  0.00  0.00    -0.391 OA
ATOM     24  H   LIG A   1      -7.026  -3.866 124.137  0.00  0.00    +0.210 HD
ENDBRANCH  13  23
BRANCH  20  25
ATOM     25  C   LIG A   1      -6.753   0.515 132.424  0.00  0.00    -0.010 C 
ATOM     26  C   LIG A   1      -6.751   1.568 133.534  0.00  0.00    +0.008 C 
BRANCH  25  27
ATOM     27  C   LIG A   1      -8.231   0.355 131.912  0.00  0.00    +0.007 C 
BRANCH  27  28
ATOM     28  C   LIG A   1      -8.416   0.422 130.385  0.00  0.00    +0.028 C 
BRANCH  28  29
ATOM     29  C   LIG A   1      -7.963   1.745 129.820  0.00  0.00    -0.021 C 
ATOM     30  C   LIG A   1      -8.645   2.904 129.823  0.00  0.00    -0.015 C 
ATOM     31  C   LIG A   1     -10.018   3.160 130.360  0.00  0.00    +0.046 C 
BRANCH  30  32
ATOM     32  C   LIG A   1      -7.977   4.085 129.198  0.00  0.00    +0.254 C 
ATOM     33  O   LIG A   1      -8.539   4.823 128.414  0.00  0.00    -0.296 OA
ENDBRANCH  30  32
ENDBRANCH  28  29
ENDBRANCH  27  28
ENDBRANCH  25  27
ENDBRANCH  20  25
TORSDOF 6
ENDMDL
MODEL 3
REMARK VINA RESULT:      -7.6      5.553      9.453
REMARK  Name = NuBBE_1653
REMARK  12 active torsions:
REMARK  status: ('A' for Active; 'I' for Inactive)
REMARK    1  A    between atoms: C_1  and  C_2
REMARK    2  A    between atoms: C_12  and  C_13
REMARK    3  A    between atoms: C_12  and  C_14
REMARK    4  A    between atoms: C_15  and  O_19
REMARK    5  A    between atoms: C_22  and  C_23
REMARK    6  A    between atoms: C_24  and  C_28
REMARK    7  A    between atoms: C_28  and  C_30
REMARK    8  A    between atoms: C_28  and  C_37
REMARK    9  A    between atoms: C_30  and  C_31
REMARK   10  A    between atoms: C_31  and  C_32
REMARK   11  A    between atoms: C_33  and  C_34
REMARK   12  A    between atoms: C_33  and  C_36
REMARK                            x       y       z     vdW  Elec       q    Type
REMARK                         _______ _______ _______ _____ _____    ______ ____
ROOT
ATOM      1  C   LIG A   1      -7.451   0.713 129.250  0.00  0.00    +0.012 C 
ATOM      2  C   LIG A   1      -6.327  -0.337 129.365  0.00  0.00    -0.023 C 
ATOM      3  C   LIG A   1      -6.113  -1.103 128.003  0.00  0.00    +0.002 C 
ATOM      4  C   LIG A   1      -7.344  -1.944 127.658  0.00  0.00    -0.019 C 
ATOM      5  C   LIG A   1      -7.674  -2.258 126.174  0.00  0.00    -0.019 C 
ATOM      6  C   LIG A   1      -8.550  -1.324 126.988  0.00  0.00    +0.015 C 
ATOM      7  C   LIG A   1      -6.824  -1.590 125.068  0.00  0.00    +0.004 C 
ATOM      8  C   LIG A   1      -5.445  -1.171 125.596  0.00  0.00    +0.005 C 
ATOM      9  C   LIG A   1      -5.594  -0.274 126.826  0.00  0.00    +0.005 C 
ATOM     10  C   LIG A   1      -6.768  -2.405 123.731  0.00  0.00    -0.006 C 
ATOM     11  C   LIG A   1      -5.803  -3.610 123.784  0.00  0.00    +0.014 C 
ATOM     12  C   LIG A   1      -6.258  -1.491 122.585  0.00  0.00    +0.014 C 
ATOM     13  C   LIG A   1      -8.204  -2.870 123.376  0.00  0.00    +0.120 C 
ATOM     14  C   LIG A   1      -8.882  -3.716 124.450  0.00  0.00    +0.032 C 
ATOM     15  C   LIG A   1      -8.271  -3.612 125.841  0.00  0.00    +0.010 C 
ATOM     16  C   LIG A   1      -7.560  -3.011 128.716  0.00  0.00    +0.008 C 
ATOM     17  C   LIG A   1      -7.647  -2.410 130.117  0.00  0.00    +0.008 C 
ATOM     18  C   LIG A   1      -6.551  -1.398 130.519  0.00  0.00    -0.023 C 
ATOM     19  C   LIG A   1      -7.095  -0.730 131.826  0.00  0.00    +0.012 C 
ATOM     20  C   LIG A   1      -5.074  -1.886 130.888  0.00  0.00    -0.002 C 
ATOM     21  C   LIG A   1      -4.155  -0.748 130.352  0.00  0.00    +0.005 C 
ATOM     22  C   LIG A   1      -5.048   0.369 129.841  0.00  0.00    +0.008 C 
ENDROOT
BRANCH  13  23
ATOM     23  O   LIG A   1      -9.043  -1.737 123.107  0.00  0.00    -0.391 OA
ATOM     24  H   LIG A   1      -9.808  -1.782 123.708  0.00  0.00    +0.210 HD
ENDBRANCH  13  23
BRANCH  20  25
ATOM     25  C   LIG A   1      -4.473  -3.285 130.526  0.00  0.00    -0.010 C 
ATOM     26  C   LIG A   1      -4.106  -3.450 129.049  0.00  0.00    +0.008 C 
BRANCH  25  27
ATOM     27  C   LIG A   1      -5.442  -4.459 130.917  0.00  0.00    +0.007 C 
BRANCH  27  28
ATOM     28  C   LIG A   1      -5.263  -5.022 132.339  0.00  0.00    +0.028 C 
BRANCH  28  29
ATOM     29  C   LIG A   1      -6.311  -4.498 133.288  0.00  0.00    -0.021 C 
ATOM     30  C   LIG A   1      -6.181  -3.481 134.159  0.00  0.00    -0.015 C 
ATOM     31  C   LIG A   1      -4.968  -2.642 134.415  0.00  0.00    +0.046 C 
BRANCH  30  32
ATOM     32  C   LIG A   1      -7.372  -3.148 134.996  0.00  0.00    +0.254 C 
ATOM     33  O   LIG A   1      -8.423  -2.761 134.524  0.00  0.00    -0.296 OA
ENDBRANCH  30  32
ENDBRANCH  28  29
ENDBRANCH  27  28
ENDBRANCH  25  27
ENDBRANCH  20  25
TORSDOF 6
ENDMDL
MODEL 4
REMARK VINA RESULT:      -7.5      4.445      8.674
REMARK  Name = NuBBE_1653
REMARK  12 active torsions:
REMARK  status: ('A' for Active; 'I' for Inactive)
REMARK    1  A    between atoms: C_1  and  C_2
REMARK    2  A    between atoms: C_12  and  C_13
REMARK    3  A    between atoms: C_12  and  C_14
REMARK    4  A    between atoms: C_15  and  O_19
REMARK    5  A    between atoms: C_22  and  C_23
REMARK    6  A    between atoms: C_24  and  C_28
REMARK    7  A    between atoms: C_28  and  C_30
REMARK    8  A    between atoms: C_28  and  C_37
REMARK    9  A    between atoms: C_30  and  C_31
REMARK   10  A    between atoms: C_31  and  C_32
REMARK   11  A    between atoms: C_33  and  C_34
REMARK   12  A    between atoms: C_33  and  C_36
REMARK                            x       y       z     vdW  Elec       q    Type
REMARK                         _______ _______ _______ _____ _____    ______ ____
ROOT
ATOM      1  C   LIG A   1      -5.058   2.395 127.396  0.00  0.00    +0.012 C 
ATOM      2  C   LIG A   1      -5.843   1.491 128.370  0.00  0.00    -0.023 C 
ATOM      3  C   LIG A   1      -6.318   0.163 127.665  0.00  0.00    +0.002 C 
ATOM      4  C   LIG A   1      -7.342   0.469 126.571  0.00  0.00    -0.019 C 
ATOM      5  C   LIG A   1      -7.481  -0.485 125.354  0.00  0.00    -0.019 C 
ATOM      6  C   LIG A   1      -6.901   0.907 125.191  0.00  0.00    +0.015 C 
ATOM      7  C   LIG A   1      -6.477  -1.653 125.209  0.00  0.00    +0.004 C 
ATOM      8  C   LIG A   1      -5.857  -2.031 126.561  0.00  0.00    +0.005 C 
ATOM      9  C   LIG A   1      -5.220  -0.804 127.218  0.00  0.00    +0.005 C 
ATOM     10  C   LIG A   1      -7.038  -2.877 124.407  0.00  0.00    -0.006 C 
ATOM     11  C   LIG A   1      -7.996  -3.766 125.229  0.00  0.00    +0.014 C 
ATOM     12  C   LIG A   1      -5.865  -3.793 123.968  0.00  0.00    +0.014 C 
ATOM     13  C   LIG A   1      -7.742  -2.348 123.131  0.00  0.00    +0.120 C 
ATOM     14  C   LIG A   1      -8.875  -1.359 123.392  0.00  0.00    +0.032 C 
ATOM     15  C   LIG A   1      -8.862  -0.706 124.768  0.00  0.00    +0.010 C 
ATOM     16  C   LIG A   1      -8.584   1.096 127.177  0.00  0.00    +0.008 C 
ATOM     17  C   LIG A   1      -8.247   2.329 128.012  0.00  0.00    +0.008 C 
ATOM     18  C   LIG A   1      -7.096   2.194 129.035  0.00  0.00    -0.023 C 
ATOM     19  C   LIG A   1      -6.779   3.667 129.463  0.00  0.00    +0.012 C 
ATOM     20  C   LIG A   1      -7.303   1.400 130.407  0.00  0.00    -0.002 C 
ATOM     21  C   LIG A   1      -5.921   0.727 130.666  0.00  0.00    +0.005 C 
ATOM     22  C   LIG A   1      -4.960   1.214 129.597  0.00  0.00    +0.008 C 
ENDROOT
BRANCH  13  23
ATOM     23  O   LIG A   1      -6.792  -1.716 122.261  0.00  0.00    -0.391 OA
ATOM     24  H   LIG A   1      -6.758  -0.770 122.493  0.00  0.00    +0.210 HD
ENDBRANCH  13  23
BRANCH  20  25
ATOM     25  C   LIG A   1      -8.461   0.388 130.694  0.00  0.00    -0.010 C 
ATOM     26  C   LIG A   1      -9.378   0.790 131.851  0.00  0.00    +0.008 C 
BRANCH  25  27
ATOM     27  C   LIG A   1      -7.918  -1.058 130.987  0.00  0.00    +0.007 C 
BRANCH  27  28
ATOM     28  C   LIG A   1      -7.908  -2.021 129.786  0.00  0.00    +0.028 C 
BRANCH  28  29
ATOM     29  C   LIG A   1      -7.306  -3.357 130.141  0.00  0.00    -0.021 C 
ATOM     30  C   LIG A   1      -6.002  -3.641 130.306  0.00  0.00    -0.015 C 
ATOM     31  C   LIG A   1      -4.835  -2.716 130.157  0.00  0.00    +0.046 C 
BRANCH  30  32
ATOM     32  C   LIG A   1      -5.654  -5.051 130.660  0.00  0.00    +0.254 C 
ATOM     33  O   LIG A   1      -5.365  -5.396 131.788  0.00  0.00    -0.296 OA
ENDBRANCH  30  32
ENDBRANCH  28  29
ENDBRANCH  27  28
ENDBRANCH  25  27
ENDBRANCH  20  25
TORSDOF 6
ENDMDL
MODEL 5
REMARK VINA RESULT:      -7.4      1.923      2.202
REMARK  Name = NuBBE_1653
REMARK  12 active torsions:
REMARK  status: ('A' for Active; 'I' for Inactive)
REMARK    1  A    between atoms: C_1  and  C_2
REMARK    2  A    between atoms: C_12  and  C_13
REMARK    3  A    between atoms: C_12  and  C_14
REMARK    4  A    between atoms: C_15  and  O_19
REMARK    5  A    between atoms: C_22  and  C_23
REMARK    6  A    between atoms: C_24  and  C_28
REMARK    7  A    between atoms: C_28  and  C_30
REMARK    8  A    between atoms: C_28  and  C_37
REMARK    9  A    between atoms: C_30  and  C_31
REMARK   10  A    between atoms: C_31  and  C_32
REMARK   11  A    between atoms: C_33  and  C_34
REMARK   12  A    between atoms: C_33  and  C_36
REMARK                            x       y       z     vdW  Elec       q    Type
REMARK                         _______ _______ _______ _____ _____    ______ ____
ROOT
ATOM      1  C   LIG A   1      -3.380   7.522 132.479  0.00  0.00    +0.012 C 
ATOM      2  C   LIG A   1      -3.634   6.894 131.092  0.00  0.00    -0.023 C 
ATOM      3  C   LIG A   1      -5.055   6.214 131.021  0.00  0.00    +0.002 C 
ATOM      4  C   LIG A   1      -5.126   5.013 131.966  0.00  0.00    -0.019 C 
ATOM      5  C   LIG A   1      -6.491   4.581 132.565  0.00  0.00    -0.019 C 
ATOM      6  C   LIG A   1      -5.415   5.196 133.439  0.00  0.00    +0.015 C 
ATOM      7  C   LIG A   1      -7.731   5.467 132.300  0.00  0.00    +0.004 C 
ATOM      8  C   LIG A   1      -7.551   6.320 131.036  0.00  0.00    +0.005 C 
ATOM      9  C   LIG A   1      -6.265   7.144 131.127  0.00  0.00    +0.005 C 
ATOM     10  C   LIG A   1      -9.090   4.690 132.349  0.00  0.00    -0.006 C 
ATOM     11  C   LIG A   1      -9.374   3.863 131.075  0.00  0.00    +0.014 C 
ATOM     12  C   LIG A   1     -10.263   5.697 132.481  0.00  0.00    +0.014 C 
ATOM     13  C   LIG A   1      -9.092   3.778 133.603  0.00  0.00    +0.120 C 
ATOM     14  C   LIG A   1      -7.940   2.778 133.664  0.00  0.00    +0.032 C 
ATOM     15  C   LIG A   1      -6.752   3.101 132.768  0.00  0.00    +0.010 C 
ATOM     16  C   LIG A   1      -4.125   3.953 131.541  0.00  0.00    +0.008 C 
ATOM     17  C   LIG A   1      -2.711   4.520 131.435  0.00  0.00    +0.008 C 
ATOM     18  C   LIG A   1      -2.538   5.840 130.651  0.00  0.00    -0.023 C 
ATOM     19  C   LIG A   1      -1.091   6.320 131.008  0.00  0.00    +0.012 C 
ATOM     20  C   LIG A   1      -2.600   5.864 129.054  0.00  0.00    -0.002 C 
ATOM     21  C   LIG A   1      -3.275   7.228 128.722  0.00  0.00    +0.005 C 
ATOM     22  C   LIG A   1      -3.458   7.986 130.025  0.00  0.00    +0.008 C 
ENDROOT
BRANCH  13  23
ATOM     23  O   LIG A   1      -9.055   4.572 134.797  0.00  0.00    -0.391 OA
ATOM     24  H   LIG A   1      -9.091   5.510 134.534  0.00  0.00    +0.210 HD
ENDBRANCH  13  23
BRANCH  20  25
ATOM     25  C   LIG A   1      -3.202   4.729 128.160  0.00  0.00    -0.010 C 
ATOM     26  C   LIG A   1      -2.182   4.023 127.265  0.00  0.00    +0.008 C 
BRANCH  25  27
ATOM     27  C   LIG A   1      -4.366   5.258 127.245  0.00  0.00    +0.007 C 
BRANCH  27  28
ATOM     28  C   LIG A   1      -5.614   4.360 127.171  0.00  0.00    +0.028 C 
BRANCH  28  29
ATOM     29  C   LIG A   1      -6.120   4.215 125.757  0.00  0.00    -0.021 C 
ATOM     30  C   LIG A   1      -6.241   3.076 125.052  0.00  0.00    -0.015 C 
ATOM     31  C   LIG A   1      -5.883   1.688 125.482  0.00  0.00    +0.046 C 
BRANCH  30  32
ATOM     32  C   LIG A   1      -6.772   3.193 123.661  0.00  0.00    +0.254 C 
ATOM     33  O   LIG A   1      -6.112   3.623 122.736  0.00  0.00    -0.296 OA
ENDBRANCH  30  32
ENDBRANCH  28  29
ENDBRANCH  27  28
ENDBRANCH  25  27
ENDBRANCH  20  25
TORSDOF 6
ENDMDL
MODEL 6
REMARK VINA RESULT:      -7.3      4.988      8.948
REMARK  Name = NuBBE_1653
REMARK  12 active torsions:
REMARK  status: ('A' for Active; 'I' for Inactive)
REMARK    1  A    between atoms: C_1  and  C_2
REMARK    2  A    between atoms: C_12  and  C_13
REMARK    3  A    between atoms: C_12  and  C_14
REMARK    4  A    between atoms: C_15  and  O_19
REMARK    5  A    between atoms: C_22  and  C_23
REMARK    6  A    between atoms: C_24  and  C_28
REMARK    7  A    between atoms: C_28  and  C_30
REMARK    8  A    between atoms: C_28  and  C_37
REMARK    9  A    between atoms: C_30  and  C_31
REMARK   10  A    between atoms: C_31  and  C_32
REMARK   11  A    between atoms: C_33  and  C_34
REMARK   12  A    between atoms: C_33  and  C_36
REMARK                            x       y       z     vdW  Elec       q    Type
REMARK                         _______ _______ _______ _____ _____    ______ ____
ROOT
ATOM      1  C   LIG A   1      -7.511  -4.293 124.775  0.00  0.00    +0.012 C 
ATOM      2  C   LIG A   1      -7.340  -2.768 124.607  0.00  0.00    -0.023 C 
ATOM      3  C   LIG A   1      -6.758  -2.108 125.915  0.00  0.00    +0.002 C 
ATOM      4  C   LIG A   1      -7.757  -2.223 127.069  0.00  0.00    -0.019 C 
ATOM      5  C   LIG A   1      -7.244  -2.259 128.534  0.00  0.00    -0.019 C 
ATOM      6  C   LIG A   1      -7.856  -3.489 127.890  0.00  0.00    +0.015 C 
ATOM      7  C   LIG A   1      -5.719  -2.319 128.785  0.00  0.00    +0.004 C 
ATOM      8  C   LIG A   1      -4.931  -1.771 127.587  0.00  0.00    +0.005 C 
ATOM      9  C   LIG A   1      -5.332  -2.503 126.305  0.00  0.00    +0.005 C 
ATOM     10  C   LIG A   1      -5.278  -1.716 130.162  0.00  0.00    -0.006 C 
ATOM     11  C   LIG A   1      -5.247  -0.171 130.176  0.00  0.00    +0.014 C 
ATOM     12  C   LIG A   1      -3.836  -2.181 130.496  0.00  0.00    +0.014 C 
ATOM     13  C   LIG A   1      -6.227  -2.254 131.263  0.00  0.00    +0.120 C 
ATOM     14  C   LIG A   1      -7.705  -1.949 131.034  0.00  0.00    +0.032 C 
ATOM     15  C   LIG A   1      -8.077  -1.580 129.604  0.00  0.00    +0.010 C 
ATOM     16  C   LIG A   1      -9.027  -1.462 126.738  0.00  0.00    +0.008 C 
ATOM     17  C   LIG A   1      -9.628  -1.912 125.408  0.00  0.00    +0.008 C 
ATOM     18  C   LIG A   1      -8.669  -2.011 124.199  0.00  0.00    -0.023 C 
ATOM     19  C   LIG A   1      -9.482  -2.802 123.120  0.00  0.00    +0.012 C 
ATOM     20  C   LIG A   1      -8.152  -0.698 123.448  0.00  0.00    -0.002 C 
ATOM     21  C   LIG A   1      -6.696  -1.056 123.023  0.00  0.00    +0.005 C 
ATOM     22  C   LIG A   1      -6.451  -2.510 123.381  0.00  0.00    +0.008 C 
ENDROOT
BRANCH  13  23
ATOM     23  O   LIG A   1      -6.082  -3.675 131.397  0.00  0.00    -0.391 OA
ATOM     24  H   LIG A   1      -6.187  -4.071 130.513  0.00  0.00    +0.210 HD
ENDBRANCH  13  23
BRANCH  20  25
ATOM     25  C   LIG A   1      -8.206   0.752 124.034  0.00  0.00    -0.010 C 
ATOM     26  C   LIG A   1      -8.898   1.773 123.128  0.00  0.00    +0.008 C 
BRANCH  25  27
ATOM     27  C   LIG A   1      -6.772   1.301 124.374  0.00  0.00    +0.007 C 
BRANCH  27  28
ATOM     28  C   LIG A   1      -6.403   1.316 125.869  0.00  0.00    +0.028 C 
BRANCH  28  29
ATOM     29  C   LIG A   1      -6.814   2.604 126.537  0.00  0.00    -0.021 C 
ATOM     30  C   LIG A   1      -7.707   2.752 127.532  0.00  0.00    -0.015 C 
ATOM     31  C   LIG A   1      -8.523   1.690 128.199  0.00  0.00    +0.046 C 
BRANCH  30  32
ATOM     32  C   LIG A   1      -7.943   4.141 128.029  0.00  0.00    +0.254 C 
ATOM     33  O   LIG A   1      -8.500   4.994 127.367  0.00  0.00    -0.296 OA
ENDBRANCH  30  32
ENDBRANCH  28  29
ENDBRANCH  27  28
ENDBRANCH  25  27
ENDBRANCH  20  25
TORSDOF 6
ENDMDL
MODEL 7
REMARK VINA RESULT:      -7.0      2.127      5.858
REMARK  Name = NuBBE_1653
REMARK  12 active torsions:
REMARK  status: ('A' for Active; 'I' for Inactive)
REMARK    1  A    between atoms: C_1  and  C_2
REMARK    2  A    between atoms: C_12  and  C_13
REMARK    3  A    between atoms: C_12  and  C_14
REMARK    4  A    between atoms: C_15  and  O_19
REMARK    5  A    between atoms: C_22  and  C_23
REMARK    6  A    between atoms: C_24  and  C_28
REMARK    7  A    between atoms: C_28  and  C_30
REMARK    8  A    between atoms: C_28  and  C_37
REMARK    9  A    between atoms: C_30  and  C_31
REMARK   10  A    between atoms: C_31  and  C_32
REMARK   11  A    between atoms: C_33  and  C_34
REMARK   12  A    between atoms: C_33  and  C_36
REMARK                            x       y       z     vdW  Elec       q    Type
REMARK                         _______ _______ _______ _____ _____    ______ ____
ROOT
ATOM      1  C   LIG A   1      -7.538   2.979 133.715  0.00  0.00    +0.012 C 
ATOM      2  C   LIG A   1      -7.164   2.426 132.324  0.00  0.00    -0.023 C 
ATOM      3  C   LIG A   1      -5.886   3.146 131.745  0.00  0.00    +0.002 C 
ATOM      4  C   LIG A   1      -6.178   4.622 131.467  0.00  0.00    -0.019 C 
ATOM      5  C   LIG A   1      -5.025   5.660 131.518  0.00  0.00    -0.019 C 
ATOM      6  C   LIG A   1      -6.114   5.651 132.574  0.00  0.00    +0.015 C 
ATOM      7  C   LIG A   1      -3.627   5.194 131.989  0.00  0.00    +0.004 C 
ATOM      8  C   LIG A   1      -3.446   3.682 131.797  0.00  0.00    +0.005 C 
ATOM      9  C   LIG A   1      -4.572   2.916 132.494  0.00  0.00    +0.005 C 
ATOM     10  C   LIG A   1      -2.446   6.050 131.417  0.00  0.00    -0.006 C 
ATOM     11  C   LIG A   1      -2.095   5.714 129.951  0.00  0.00    +0.014 C 
ATOM     12  C   LIG A   1      -1.160   5.782 132.244  0.00  0.00    +0.014 C 
ATOM     13  C   LIG A   1      -2.809   7.550 131.562  0.00  0.00    +0.120 C 
ATOM     14  C   LIG A   1      -4.106   7.961 130.869  0.00  0.00    +0.032 C 
ATOM     15  C   LIG A   1      -5.055   6.816 130.537  0.00  0.00    +0.010 C 
ATOM     16  C   LIG A   1      -7.256   4.751 130.407  0.00  0.00    +0.008 C 
ATOM     17  C   LIG A   1      -8.517   3.975 130.783  0.00  0.00    +0.008 C 
ATOM     18  C   LIG A   1      -8.330   2.516 131.258  0.00  0.00    -0.023 C 
ATOM     19  C   LIG A   1      -9.715   2.126 131.876  0.00  0.00    +0.012 C 
ATOM     20  C   LIG A   1      -7.997   1.347 130.220  0.00  0.00    -0.002 C 
ATOM     21  C   LIG A   1      -7.056   0.393 131.014  0.00  0.00    +0.005 C 
ATOM     22  C   LIG A   1      -6.971   0.906 132.441  0.00  0.00    +0.008 C 
ENDROOT
BRANCH  13  23
ATOM     23  O   LIG A   1      -2.913   7.908 132.948  0.00  0.00    -0.391 OA
ATOM     24  H   LIG A   1      -2.123   7.568 133.404  0.00  0.00    +0.210 HD
ENDBRANCH  13  23
BRANCH  20  25
ATOM     25  C   LIG A   1      -7.452   1.563 128.768  0.00  0.00    -0.010 C 
ATOM     26  C   LIG A   1      -8.436   1.177 127.662  0.00  0.00    +0.008 C 
BRANCH  25  27
ATOM     27  C   LIG A   1      -6.113   0.776 128.522  0.00  0.00    +0.007 C 
BRANCH  27  28
ATOM     28  C   LIG A   1      -4.819   1.585 128.729  0.00  0.00    +0.028 C 
BRANCH  28  29
ATOM     29  C   LIG A   1      -4.962   3.007 128.249  0.00  0.00    -0.021 C 
ATOM     30  C   LIG A   1      -4.064   3.719 127.544  0.00  0.00    -0.015 C 
ATOM     31  C   LIG A   1      -2.706   3.287 127.086  0.00  0.00    +0.046 C 
BRANCH  30  32
ATOM     32  C   LIG A   1      -4.440   5.119 127.184  0.00  0.00    +0.254 C 
ATOM     33  O   LIG A   1      -5.367   5.384 126.445  0.00  0.00    -0.296 OA
ENDBRANCH  30  32
ENDBRANCH  28  29
ENDBRANCH  27  28
ENDBRANCH  25  27
ENDBRANCH  20  25
TORSDOF 6
ENDMDL
MODEL 8
REMARK VINA RESULT:      -7.0      4.164      6.702
REMARK  Name = NuBBE_1653
REMARK  12 active torsions:
REMARK  status: ('A' for Active; 'I' for Inactive)
REMARK    1  A    between atoms: C_1  and  C_2
REMARK    2  A    between atoms: C_12  and  C_13
REMARK    3  A    between atoms: C_12  and  C_14
REMARK    4  A    between atoms: C_15  and  O_19
REMARK    5  A    between atoms: C_22  and  C_23
REMARK    6  A    between atoms: C_24  and  C_28
REMARK    7  A    between atoms: C_28  and  C_30
REMARK    8  A    between atoms: C_28  and  C_37
REMARK    9  A    between atoms: C_30  and  C_31
REMARK   10  A    between atoms: C_31  and  C_32
REMARK   11  A    between atoms: C_33  and  C_34
REMARK   12  A    between atoms: C_33  and  C_36
REMARK                            x       y       z     vdW  Elec       q    Type
REMARK                         _______ _______ _______ _____ _____    ______ ____
ROOT
ATOM      1  C   LIG A   1      -5.168   3.372 129.009  0.00  0.00    +0.012 C 
ATOM      2  C   LIG A   1      -6.180   2.879 127.953  0.00  0.00    -0.023 C 
ATOM      3  C   LIG A   1      -6.665   1.412 128.263  0.00  0.00    +0.002 C 
ATOM      4  C   LIG A   1      -5.508   0.420 128.126  0.00  0.00    -0.019 C 
ATOM      5  C   LIG A   1      -5.516  -0.896 128.950  0.00  0.00    -0.019 C 
ATOM      6  C   LIG A   1      -4.524   0.210 129.256  0.00  0.00    +0.015 C 
ATOM      7  C   LIG A   1      -6.633  -1.107 130.000  0.00  0.00    +0.004 C 
ATOM      8  C   LIG A   1      -7.871  -0.257 129.680  0.00  0.00    +0.005 C 
ATOM      9  C   LIG A   1      -7.485   1.217 129.540  0.00  0.00    +0.005 C 
ATOM     10  C   LIG A   1      -6.957  -2.612 130.288  0.00  0.00    -0.006 C 
ATOM     11  C   LIG A   1      -7.821  -3.277 129.193  0.00  0.00    +0.014 C 
ATOM     12  C   LIG A   1      -7.765  -2.727 131.608  0.00  0.00    +0.014 C 
ATOM     13  C   LIG A   1      -5.622  -3.378 130.470  0.00  0.00    +0.120 C 
ATOM     14  C   LIG A   1      -4.670  -3.290 129.280  0.00  0.00    +0.032 C 
ATOM     15  C   LIG A   1      -4.946  -2.147 128.312  0.00  0.00    +0.010 C 
ATOM     16  C   LIG A   1      -4.997   0.407 126.697  0.00  0.00    +0.008 C 
ATOM     17  C   LIG A   1      -4.617   1.806 126.218  0.00  0.00    +0.008 C 
ATOM     18  C   LIG A   1      -5.640   2.938 126.466  0.00  0.00    -0.023 C 
ATOM     19  C   LIG A   1      -4.841   4.255 126.188  0.00  0.00    +0.012 C 
ATOM     20  C   LIG A   1      -6.964   3.061 125.579  0.00  0.00    -0.002 C 
ATOM     21  C   LIG A   1      -8.039   3.589 126.575  0.00  0.00    +0.005 C 
ATOM     22  C   LIG A   1      -7.347   3.877 127.896  0.00  0.00    +0.008 C 
ENDROOT
BRANCH  13  23
ATOM     23  O   LIG A   1      -4.927  -2.900 131.631  0.00  0.00    -0.391 OA
ATOM     24  H   LIG A   1      -5.124  -3.506 132.368  0.00  0.00    +0.210 HD
ENDBRANCH  13  23
BRANCH  20  25
ATOM     25  C   LIG A   1      -7.561   1.918 124.692  0.00  0.00    -0.010 C 
ATOM     26  C   LIG A   1      -7.574   2.225 123.192  0.00  0.00    +0.008 C 
BRANCH  25  27
ATOM     27  C   LIG A   1      -9.027   1.548 125.121  0.00  0.00    +0.007 C 
BRANCH  27  28
ATOM     28  C   LIG A   1      -9.167   0.276 125.978  0.00  0.00    +0.028 C 
BRANCH  28  29
ATOM     29  C   LIG A   1      -8.133  -0.761 125.620  0.00  0.00    -0.021 C 
ATOM     30  C   LIG A   1      -8.294  -2.096 125.609  0.00  0.00    -0.015 C 
ATOM     31  C   LIG A   1      -9.520  -2.876 125.970  0.00  0.00    +0.046 C 
BRANCH  30  32
ATOM     32  C   LIG A   1      -7.111  -2.919 125.215  0.00  0.00    +0.254 C 
ATOM     33  O   LIG A   1      -6.036  -2.432 124.926  0.00  0.00    -0.296 OA
ENDBRANCH  30  32
ENDBRANCH  28  29
ENDBRANCH  27  28
ENDBRANCH  25  27
ENDBRANCH  20  25
TORSDOF 6
ENDMDL
MODEL 9
REMARK VINA RESULT:      -6.8      4.264      7.221
REMARK  Name = NuBBE_1653
REMARK  12 active torsions:
REMARK  status: ('A' for Active; 'I' for Inactive)
REMARK    1  A    between atoms: C_1  and  C_2
REMARK    2  A    between atoms: C_12  and  C_13
REMARK    3  A    between atoms: C_12  and  C_14
REMARK    4  A    between atoms: C_15  and  O_19
REMARK    5  A    between atoms: C_22  and  C_23
REMARK    6  A    between atoms: C_24  and  C_28
REMARK    7  A    between atoms: C_28  and  C_30
REMARK    8  A    between atoms: C_28  and  C_37
REMARK    9  A    between atoms: C_30  and  C_31
REMARK   10  A    between atoms: C_31  and  C_32
REMARK   11  A    between atoms: C_33  and  C_34
REMARK   12  A    between atoms: C_33  and  C_36
REMARK                            x       y       z     vdW  Elec       q    Type
REMARK                         _______ _______ _______ _____ _____    ______ ____
ROOT
ATOM      1  C   LIG A   1      -4.408  -1.676 131.732  0.00  0.00    +0.012 C 
ATOM      2  C   LIG A   1      -5.304  -1.743 130.477  0.00  0.00    -0.023 C 
ATOM      3  C   LIG A   1      -6.120  -0.408 130.282  0.00  0.00    +0.002 C 
ATOM      4  C   LIG A   1      -7.126  -0.218 131.420  0.00  0.00    -0.019 C 
ATOM      5  C   LIG A   1      -7.568   1.212 131.830  0.00  0.00    -0.019 C 
ATOM      6  C   LIG A   1      -6.700   0.371 132.746  0.00  0.00    +0.015 C 
ATOM      7  C   LIG A   1      -6.871   2.423 131.166  0.00  0.00    +0.004 C 
ATOM      8  C   LIG A   1      -6.255   2.043 129.812  0.00  0.00    +0.005 C 
ATOM      9  C   LIG A   1      -5.308   0.852 129.972  0.00  0.00    +0.005 C 
ATOM     10  C   LIG A   1      -7.754   3.717 131.118  0.00  0.00    -0.006 C 
ATOM     11  C   LIG A   1      -8.826   3.689 130.006  0.00  0.00    +0.014 C 
ATOM     12  C   LIG A   1      -6.857   4.949 130.825  0.00  0.00    +0.014 C 
ATOM     13  C   LIG A   1      -8.412   3.916 132.507  0.00  0.00    +0.120 C 
ATOM     14  C   LIG A   1      -9.267   2.744 132.981  0.00  0.00    +0.032 C 
ATOM     15  C   LIG A   1      -9.003   1.421 132.274  0.00  0.00    +0.010 C 
ATOM     16  C   LIG A   1      -8.143  -1.344 131.410  0.00  0.00    +0.008 C 
ATOM     17  C   LIG A   1      -7.473  -2.715 131.456  0.00  0.00    +0.008 C 
ATOM     18  C   LIG A   1      -6.311  -2.965 130.468  0.00  0.00    -0.023 C 
ATOM     19  C   LIG A   1      -5.635  -4.280 130.983  0.00  0.00    +0.012 C 
ATOM     20  C   LIG A   1      -6.590  -3.224 128.916  0.00  0.00    -0.002 C 
ATOM     21  C   LIG A   1      -5.383  -2.550 128.197  0.00  0.00    +0.005 C 
ATOM     22  C   LIG A   1      -4.418  -2.065 129.264  0.00  0.00    +0.008 C 
ENDROOT
BRANCH  13  23
ATOM     23  O   LIG A   1      -7.409   4.166 133.503  0.00  0.00    -0.391 OA
ATOM     24  H   LIG A   1      -6.565   3.811 133.173  0.00  0.00    +0.210 HD
ENDBRANCH  13  23
BRANCH  20  25
ATOM     25  C   LIG A   1      -7.925  -2.880 128.174  0.00  0.00    -0.010 C 
ATOM     26  C   LIG A   1      -8.965  -4.003 128.194  0.00  0.00    +0.008 C 
BRANCH  25  27
ATOM     27  C   LIG A   1      -7.676  -2.479 126.674  0.00  0.00    +0.007 C 
BRANCH  27  28
ATOM     28  C   LIG A   1      -8.293  -3.419 125.623  0.00  0.00    +0.028 C 
BRANCH  28  29
ATOM     29  C   LIG A   1      -9.030  -2.658 124.550  0.00  0.00    -0.021 C 
ATOM     30  C   LIG A   1      -8.499  -2.065 123.466  0.00  0.00    -0.015 C 
ATOM     31  C   LIG A   1      -7.057  -1.995 123.072  0.00  0.00    +0.046 C 
BRANCH  30  32
ATOM     32  C   LIG A   1      -9.444  -1.368 122.542  0.00  0.00    +0.254 C 
ATOM     33  O   LIG A   1     -10.068  -0.376 122.862  0.00  0.00    -0.296 OA
ENDBRANCH  30  32
ENDBRANCH  28  29
ENDBRANCH  27  28
ENDBRANCH  25  27
ENDBRANCH  20  25
TORSDOF 6
ENDMDL
