MODEL 1
REMARK VINA RESULT:      -8.9      0.000      0.000
REMARK  Name = NuBBE_924
REMARK  10 active torsions:
REMARK  status: ('A' for Active; 'I' for Inactive)
REMARK    1  A    between atoms: C_1  and  C_2
REMARK    2  A    between atoms: C_5  and  C_6
REMARK    3  A    between atoms: C_13  and  C_14
REMARK    4  A    between atoms: C_13  and  C_23
REMARK    5  A    between atoms: C_14  and  C_15
REMARK    6  A    between atoms: C_25  and  O_27
REMARK    7  A    between atoms: O_27  and  C_28
REMARK    8  A    between atoms: C_28  and  C_29
REMARK    9  A    between atoms: C_36  and  C_44
REMARK   10  A    between atoms: C_39  and  O_41
REMARK                            x       y       z     vdW  Elec       q    Type
REMARK                         _______ _______ _______ _____ _____    ______ ____
ROOT
ATOM      1  C   LIG A   1      -6.402   0.635 124.460  0.00  0.00    +0.020 C 
ATOM      2  C   LIG A   1      -6.931   1.180 125.809  0.00  0.00    +0.039 C 
ATOM      3  C   LIG A   1      -7.561  -0.019 126.726  0.00  0.00    +0.053 C 
ATOM      4  C   LIG A   1      -7.390   0.270 128.248  0.00  0.00    +0.016 C 
ATOM      5  C   LIG A   1      -8.310   1.490 128.616  0.00  0.00    +0.015 C 
ATOM      6  C   LIG A   1      -5.900   0.480 128.579  0.00  0.00    +0.183 C 
ATOM      7  O   LIG A   1      -5.773   1.066 129.879  0.00  0.00    -0.461 OA
ATOM      8  C   LIG A   1      -6.318   0.399 130.928  0.00  0.00    +0.308 C 
ATOM      9  C   LIG A   1      -7.531  -0.485 130.667  0.00  0.00    +0.126 C 
ATOM     10  C   LIG A   1      -7.844  -0.885 129.208  0.00  0.00    +0.023 C 
ATOM     11  C   LIG A   1      -7.435  -2.357 128.838  0.00  0.00    +0.034 C 
ATOM     12  C   LIG A   1      -8.447  -3.342 129.486  0.00  0.00    +0.019 C 
ATOM     13  C   LIG A   1      -7.631  -2.549 127.313  0.00  0.00    +0.059 C 
ATOM     14  C   LIG A   1      -7.075  -1.466 126.375  0.00  0.00    +0.182 C 
ATOM     15  O   LIG A   1      -5.915   0.582 132.072  0.00  0.00    -0.251 OA
ATOM     16  C   LIG A   1      -5.037   1.208 127.537  0.00  0.00    +0.050 C 
ATOM     17  C   LIG A   1      -5.873   2.048 126.590  0.00  0.00    +0.009 C 
ATOM     18  C   LIG A   1      -5.112   3.011 125.645  0.00  0.00    -0.007 C 
ATOM     19  C   LIG A   1      -6.133   4.052 125.138  0.00  0.00    +0.042 C 
ATOM     20  C   LIG A   1      -7.455   3.477 124.615  0.00  0.00    +0.181 C 
ATOM     21  C   LIG A   1      -7.977   2.248 125.407  0.00  0.00    +0.168 C 
ATOM     22  O   LIG A   1      -9.174   2.157 125.685  0.00  0.00    -0.294 OA
ATOM     23  C   LIG A   1      -3.930   3.727 126.302  0.00  0.00    +0.008 C 
ENDROOT
BRANCH  11  24
ATOM     24  C   LIG A   1      -5.985  -2.819 129.242  0.00  0.00    +0.146 C 
ATOM     25  O   LIG A   1      -5.085  -2.825 128.399  0.00  0.00    -0.296 OA
BRANCH  24  26
ATOM     26  C   LIG A   1      -5.678  -3.282 130.673  0.00  0.00    +0.104 C 
ATOM     27  C   LIG A   1      -5.509  -4.786 130.740  0.00  0.00    +0.243 C 
ATOM     28  O   LIG A   1      -4.597  -5.052 131.796  0.00  0.00    -0.464 OA
ATOM     29  C   LIG A   1      -3.891  -3.917 132.099  0.00  0.00    +0.308 C 
ATOM     30  C   LIG A   1      -4.354  -2.784 131.214  0.00  0.00    +0.135 C 
ATOM     31  O   LIG A   1      -3.009  -3.847 132.943  0.00  0.00    -0.251 OA
ENDBRANCH  24  26
ENDBRANCH  11  24
BRANCH  20  32
ATOM     32  O   LIG A   1      -8.414   4.534 124.617  0.00  0.00    -0.384 OA
ATOM     33  H   LIG A   1      -8.234   5.076 125.411  0.00  0.00    +0.210 HD
ENDBRANCH  20  32
BRANCH  14  34
ATOM     34  O   LIG A   1      -7.595  -1.773 125.051  0.00  0.00    -0.461 OA
BRANCH  34  35
ATOM     35  C   LIG A   1      -7.251  -2.961 124.485  0.00  0.00    +0.304 C 
ATOM     36  C   LIG A   1      -5.775  -3.006 124.221  0.00  0.00    +0.136 C 
ATOM     37  O   LIG A   1      -8.025  -3.877 124.235  0.00  0.00    -0.251 OA
ENDBRANCH  34  35
ENDBRANCH  14  34
TORSDOF 5
ENDMDL
MODEL 2
REMARK VINA RESULT:      -8.8      2.401      6.479
REMARK  Name = NuBBE_924
REMARK  10 active torsions:
REMARK  status: ('A' for Active; 'I' for Inactive)
REMARK    1  A    between atoms: C_1  and  C_2
REMARK    2  A    between atoms: C_5  and  C_6
REMARK    3  A    between atoms: C_13  and  C_14
REMARK    4  A    between atoms: C_13  and  C_23
REMARK    5  A    between atoms: C_14  and  C_15
REMARK    6  A    between atoms: C_25  and  O_27
REMARK    7  A    between atoms: O_27  and  C_28
REMARK    8  A    between atoms: C_28  and  C_29
REMARK    9  A    between atoms: C_36  and  C_44
REMARK   10  A    between atoms: C_39  and  O_41
REMARK                            x       y       z     vdW  Elec       q    Type
REMARK                         _______ _______ _______ _____ _____    ______ ____
ROOT
ATOM      1  C   LIG A   1      -7.379  -2.348 127.585  0.00  0.00    +0.020 C 
ATOM      2  C   LIG A   1      -7.668  -1.248 126.536  0.00  0.00    +0.039 C 
ATOM      3  C   LIG A   1      -7.873   0.210 127.247  0.00  0.00    +0.053 C 
ATOM      4  C   LIG A   1      -7.409   1.373 126.319  0.00  0.00    +0.016 C 
ATOM      5  C   LIG A   1      -8.406   1.451 125.107  0.00  0.00    +0.015 C 
ATOM      6  C   LIG A   1      -5.937   1.169 125.915  0.00  0.00    +0.183 C 
ATOM      7  O   LIG A   1      -5.614   2.031 124.818  0.00  0.00    -0.461 OA
ATOM      8  C   LIG A   1      -5.793   3.365 124.990  0.00  0.00    +0.308 C 
ATOM      9  C   LIG A   1      -6.875   3.828 125.956  0.00  0.00    +0.126 C 
ATOM     10  C   LIG A   1      -7.442   2.804 126.965  0.00  0.00    +0.023 C 
ATOM     11  C   LIG A   1      -6.897   2.966 128.430  0.00  0.00    +0.034 C 
ATOM     12  C   LIG A   1      -7.563   4.208 129.084  0.00  0.00    +0.019 C 
ATOM     13  C   LIG A   1      -7.400   1.768 129.274  0.00  0.00    +0.059 C 
ATOM     14  C   LIG A   1      -7.252   0.358 128.679  0.00  0.00    +0.182 C 
ATOM     15  O   LIG A   1      -5.175   4.178 124.309  0.00  0.00    -0.251 OA
ATOM     16  C   LIG A   1      -5.461  -0.271 125.671  0.00  0.00    +0.050 C 
ATOM     17  C   LIG A   1      -6.615  -1.209 125.366  0.00  0.00    +0.009 C 
ATOM     18  C   LIG A   1      -6.253  -2.632 124.872  0.00  0.00    -0.007 C 
ATOM     19  C   LIG A   1      -7.516  -3.216 124.204  0.00  0.00    +0.042 C 
ATOM     20  C   LIG A   1      -8.812  -3.078 125.013  0.00  0.00    +0.181 C 
ATOM     21  C   LIG A   1      -8.936  -1.745 125.800  0.00  0.00    +0.168 C 
ATOM     22  O   LIG A   1     -10.008  -1.137 125.819  0.00  0.00    -0.294 OA
ATOM     23  C   LIG A   1      -5.084  -2.673 123.885  0.00  0.00    +0.008 C 
ENDROOT
BRANCH  11  24
ATOM     24  C   LIG A   1      -5.338   3.109 128.600  0.00  0.00    +0.146 C 
ATOM     25  O   LIG A   1      -4.610   2.127 128.438  0.00  0.00    -0.296 OA
BRANCH  24  26
ATOM     26  C   LIG A   1      -4.710   4.456 128.984  0.00  0.00    +0.104 C 
ATOM     27  C   LIG A   1      -3.622   4.278 130.025  0.00  0.00    +0.243 C 
ATOM     28  O   LIG A   1      -2.679   5.318 129.817  0.00  0.00    -0.464 OA
ATOM     29  C   LIG A   1      -2.831   5.841 128.559  0.00  0.00    +0.308 C 
ATOM     30  C   LIG A   1      -3.965   5.137 127.854  0.00  0.00    +0.135 C 
ATOM     31  O   LIG A   1      -2.136   6.728 128.082  0.00  0.00    -0.251 OA
ENDBRANCH  24  26
ENDBRANCH  11  24
BRANCH  20  32
ATOM     32  O   LIG A   1      -9.903  -3.242 124.106  0.00  0.00    -0.384 OA
ATOM     33  H   LIG A   1     -10.673  -2.793 124.509  0.00  0.00    +0.210 HD
ENDBRANCH  20  32
BRANCH  14  34
ATOM     34  O   LIG A   1      -8.003  -0.529 129.554  0.00  0.00    -0.461 OA
BRANCH  34  35
ATOM     35  C   LIG A   1      -7.578  -0.678 130.837  0.00  0.00    +0.304 C 
ATOM     36  C   LIG A   1      -8.671  -0.308 131.795  0.00  0.00    +0.136 C 
ATOM     37  O   LIG A   1      -6.468  -1.072 131.175  0.00  0.00    -0.251 OA
ENDBRANCH  34  35
ENDBRANCH  14  34
TORSDOF 5
ENDMDL
MODEL 3
REMARK VINA RESULT:      -8.7      3.171      4.858
REMARK  Name = NuBBE_924
REMARK  10 active torsions:
REMARK  status: ('A' for Active; 'I' for Inactive)
REMARK    1  A    between atoms: C_1  and  C_2
REMARK    2  A    between atoms: C_5  and  C_6
REMARK    3  A    between atoms: C_13  and  C_14
REMARK    4  A    between atoms: C_13  and  C_23
REMARK    5  A    between atoms: C_14  and  C_15
REMARK    6  A    between atoms: C_25  and  O_27
REMARK    7  A    between atoms: O_27  and  C_28
REMARK    8  A    between atoms: C_28  and  C_29
REMARK    9  A    between atoms: C_36  and  C_44
REMARK   10  A    between atoms: C_39  and  O_41
REMARK                            x       y       z     vdW  Elec       q    Type
REMARK                         _______ _______ _______ _____ _____    ______ ____
ROOT
ATOM      1  C   LIG A   1      -8.570   4.873 129.188  0.00  0.00    +0.020 C 
ATOM      2  C   LIG A   1      -9.063   3.896 130.282  0.00  0.00    +0.039 C 
ATOM      3  C   LIG A   1      -8.894   2.340 129.805  0.00  0.00    +0.053 C 
ATOM      4  C   LIG A   1      -8.631   1.393 131.015  0.00  0.00    +0.016 C 
ATOM      5  C   LIG A   1      -9.942   1.337 131.880  0.00  0.00    +0.015 C 
ATOM      6  C   LIG A   1      -7.384   1.861 131.788  0.00  0.00    +0.183 C 
ATOM      7  O   LIG A   1      -7.336   1.213 133.064  0.00  0.00    -0.461 OA
ATOM      8  C   LIG A   1      -7.322  -0.144 133.082  0.00  0.00    +0.308 C 
ATOM      9  C   LIG A   1      -8.001  -0.886 131.938  0.00  0.00    +0.126 C 
ATOM     10  C   LIG A   1      -8.324  -0.101 130.646  0.00  0.00    +0.023 C 
ATOM     11  C   LIG A   1      -7.338  -0.380 129.454  0.00  0.00    +0.034 C 
ATOM     12  C   LIG A   1      -7.645  -1.782 128.860  0.00  0.00    +0.019 C 
ATOM     13  C   LIG A   1      -7.668   0.607 128.306  0.00  0.00    +0.059 C 
ATOM     14  C   LIG A   1      -7.850   2.091 128.665  0.00  0.00    +0.182 C 
ATOM     15  O   LIG A   1      -6.871  -0.759 134.043  0.00  0.00    -0.251 OA
ATOM     16  C   LIG A   1      -7.149   3.375 131.907  0.00  0.00    +0.050 C 
ATOM     17  C   LIG A   1      -8.426   4.169 131.696  0.00  0.00    +0.009 C 
ATOM     18  C   LIG A   1      -8.374   5.683 132.019  0.00  0.00    -0.007 C 
ATOM     19  C   LIG A   1      -9.833   6.163 132.179  0.00  0.00    +0.042 C 
ATOM     20  C   LIG A   1     -10.794   5.730 131.065  0.00  0.00    +0.181 C 
ATOM     21  C   LIG A   1     -10.539   4.299 130.519  0.00  0.00    +0.168 C 
ATOM     22  O   LIG A   1     -11.488   3.545 130.295  0.00  0.00    -0.294 OA
ATOM     23  C   LIG A   1      -7.579   6.027 133.280  0.00  0.00    +0.008 C 
ENDROOT
BRANCH  11  24
ATOM     24  C   LIG A   1      -5.797  -0.317 129.772  0.00  0.00    +0.146 C 
ATOM     25  O   LIG A   1      -5.131   0.650 129.396  0.00  0.00    -0.296 OA
BRANCH  24  26
ATOM     26  C   LIG A   1      -5.104  -1.457 130.532  0.00  0.00    +0.104 C 
ATOM     27  C   LIG A   1      -4.094  -2.169 129.654  0.00  0.00    +0.243 C 
ATOM     28  O   LIG A   1      -3.073  -2.655 130.511  0.00  0.00    -0.464 OA
ATOM     29  C   LIG A   1      -3.115  -1.992 131.710  0.00  0.00    +0.308 C 
ATOM     30  C   LIG A   1      -4.251  -0.997 131.696  0.00  0.00    +0.135 C 
ATOM     31  O   LIG A   1      -2.336  -2.171 132.636  0.00  0.00    -0.251 OA
ENDBRANCH  24  26
ENDBRANCH  11  24
BRANCH  20  32
ATOM     32  O   LIG A   1     -12.123   5.856 131.572  0.00  0.00    -0.384 OA
ATOM     33  H   LIG A   1     -12.695   6.077 130.810  0.00  0.00    +0.210 HD
ENDBRANCH  20  32
BRANCH  14  34
ATOM     34  O   LIG A   1      -8.374   2.733 127.469  0.00  0.00    -0.461 OA
BRANCH  34  35
ATOM     35  C   LIG A   1      -7.588   2.766 126.360  0.00  0.00    +0.304 C 
ATOM     36  C   LIG A   1      -6.271   3.413 126.671  0.00  0.00    +0.136 C 
ATOM     37  O   LIG A   1      -7.894   2.320 125.261  0.00  0.00    -0.251 OA
ENDBRANCH  34  35
ENDBRANCH  14  34
TORSDOF 5
ENDMDL
MODEL 4
REMARK VINA RESULT:      -8.3      2.044      5.256
REMARK  Name = NuBBE_924
REMARK  10 active torsions:
REMARK  status: ('A' for Active; 'I' for Inactive)
REMARK    1  A    between atoms: C_1  and  C_2
REMARK    2  A    between atoms: C_5  and  C_6
REMARK    3  A    between atoms: C_13  and  C_14
REMARK    4  A    between atoms: C_13  and  C_23
REMARK    5  A    between atoms: C_14  and  C_15
REMARK    6  A    between atoms: C_25  and  O_27
REMARK    7  A    between atoms: O_27  and  C_28
REMARK    8  A    between atoms: C_28  and  C_29
REMARK    9  A    between atoms: C_36  and  C_44
REMARK   10  A    between atoms: C_39  and  O_41
REMARK                            x       y       z     vdW  Elec       q    Type
REMARK                         _______ _______ _______ _____ _____    ______ ____
ROOT
ATOM      1  C   LIG A   1      -7.136   3.297 128.793  0.00  0.00    +0.020 C 
ATOM      2  C   LIG A   1      -7.286   2.000 129.625  0.00  0.00    +0.039 C 
ATOM      3  C   LIG A   1      -7.914   0.788 128.725  0.00  0.00    +0.053 C 
ATOM      4  C   LIG A   1      -7.396  -0.605 129.195  0.00  0.00    +0.016 C 
ATOM      5  C   LIG A   1      -8.004  -0.894 130.614  0.00  0.00    +0.015 C 
ATOM      6  C   LIG A   1      -5.856  -0.637 129.148  0.00  0.00    +0.183 C 
ATOM      7  O   LIG A   1      -5.375  -1.769 129.882  0.00  0.00    -0.461 OA
ATOM      8  C   LIG A   1      -5.806  -2.997 129.499  0.00  0.00    +0.308 C 
ATOM      9  C   LIG A   1      -7.178  -3.110 128.848  0.00  0.00    +0.126 C 
ATOM     10  C   LIG A   1      -7.839  -1.822 128.307  0.00  0.00    +0.023 C 
ATOM     11  C   LIG A   1      -7.767  -1.663 126.745  0.00  0.00    +0.034 C 
ATOM     12  C   LIG A   1      -8.781  -2.640 126.089  0.00  0.00    +0.019 C 
ATOM     13  C   LIG A   1      -8.292  -0.253 126.374  0.00  0.00    +0.059 C 
ATOM     14  C   LIG A   1      -7.759   0.947 127.174  0.00  0.00    +0.182 C 
ATOM     15  O   LIG A   1      -5.157  -4.005 129.764  0.00  0.00    -0.251 OA
ATOM     16  C   LIG A   1      -5.108   0.650 129.527  0.00  0.00    +0.050 C 
ATOM     17  C   LIG A   1      -5.962   1.580 130.368  0.00  0.00    +0.009 C 
ATOM     18  C   LIG A   1      -5.253   2.799 131.010  0.00  0.00    -0.007 C 
ATOM     19  C   LIG A   1      -6.164   3.307 132.148  0.00  0.00    +0.042 C 
ATOM     20  C   LIG A   1      -7.641   3.487 131.779  0.00  0.00    +0.181 C 
ATOM     21  C   LIG A   1      -8.195   2.408 130.810  0.00  0.00    +0.168 C 
ATOM     22  O   LIG A   1      -9.311   1.920 131.002  0.00  0.00    -0.294 OA
ATOM     23  C   LIG A   1      -3.860   2.492 131.564  0.00  0.00    +0.008 C 
ENDROOT
BRANCH  11  24
ATOM     24  C   LIG A   1      -6.365  -1.894 126.067  0.00  0.00    +0.146 C 
ATOM     25  O   LIG A   1      -5.374  -1.287 126.481  0.00  0.00    -0.296 OA
BRANCH  24  26
ATOM     26  C   LIG A   1      -6.216  -2.857 124.881  0.00  0.00    +0.104 C 
ATOM     27  C   LIG A   1      -5.840  -2.114 123.614  0.00  0.00    +0.243 C 
ATOM     28  O   LIG A   1      -5.072  -3.008 122.824  0.00  0.00    -0.464 OA
ATOM     29  C   LIG A   1      -4.593  -4.028 123.605  0.00  0.00    +0.308 C 
ATOM     30  C   LIG A   1      -5.076  -3.845 125.024  0.00  0.00    +0.135 C 
ATOM     31  O   LIG A   1      -3.870  -4.931 123.209  0.00  0.00    -0.251 OA
ENDBRANCH  24  26
ENDBRANCH  11  24
BRANCH  20  32
ATOM     32  O   LIG A   1      -8.388   3.516 132.995  0.00  0.00    -0.384 OA
ATOM     33  H   LIG A   1      -9.275   3.864 132.773  0.00  0.00    +0.210 HD
ENDBRANCH  20  32
BRANCH  14  34
ATOM     34  O   LIG A   1      -8.577   2.085 126.785  0.00  0.00    -0.461 OA
BRANCH  34  35
ATOM     35  C   LIG A   1      -8.496   2.528 125.502  0.00  0.00    +0.304 C 
ATOM     36  C   LIG A   1      -7.081   2.892 125.164  0.00  0.00    +0.136 C 
ATOM     37  O   LIG A   1      -9.435   2.608 124.720  0.00  0.00    -0.251 OA
ENDBRANCH  34  35
ENDBRANCH  14  34
TORSDOF 5
ENDMDL
MODEL 5
REMARK VINA RESULT:      -8.2      3.091      5.559
REMARK  Name = NuBBE_924
REMARK  10 active torsions:
REMARK  status: ('A' for Active; 'I' for Inactive)
REMARK    1  A    between atoms: C_1  and  C_2
REMARK    2  A    between atoms: C_5  and  C_6
REMARK    3  A    between atoms: C_13  and  C_14
REMARK    4  A    between atoms: C_13  and  C_23
REMARK    5  A    between atoms: C_14  and  C_15
REMARK    6  A    between atoms: C_25  and  O_27
REMARK    7  A    between atoms: O_27  and  C_28
REMARK    8  A    between atoms: C_28  and  C_29
REMARK    9  A    between atoms: C_36  and  C_44
REMARK   10  A    between atoms: C_39  and  O_41
REMARK                            x       y       z     vdW  Elec       q    Type
REMARK                         _______ _______ _______ _____ _____    ______ ____
ROOT
ATOM      1  C   LIG A   1      -8.894   1.274 126.746  0.00  0.00    +0.020 C 
ATOM      2  C   LIG A   1      -7.755   2.046 126.037  0.00  0.00    +0.039 C 
ATOM      3  C   LIG A   1      -7.152   3.225 126.998  0.00  0.00    +0.053 C 
ATOM      4  C   LIG A   1      -5.642   3.481 126.714  0.00  0.00    +0.016 C 
ATOM      5  C   LIG A   1      -5.519   4.121 125.284  0.00  0.00    +0.015 C 
ATOM      6  C   LIG A   1      -4.844   2.176 126.894  0.00  0.00    +0.183 C 
ATOM      7  O   LIG A   1      -3.541   2.324 126.319  0.00  0.00    -0.461 OA
ATOM      8  C   LIG A   1      -2.757   3.330 126.784  0.00  0.00    +0.308 C 
ATOM      9  C   LIG A   1      -3.437   4.581 127.326  0.00  0.00    +0.126 C 
ATOM     10  C   LIG A   1      -4.940   4.503 127.678  0.00  0.00    +0.023 C 
ATOM     11  C   LIG A   1      -5.240   4.393 129.217  0.00  0.00    +0.034 C 
ATOM     12  C   LIG A   1      -5.001   5.778 129.879  0.00  0.00    +0.019 C 
ATOM     13  C   LIG A   1      -6.756   4.133 129.401  0.00  0.00    +0.059 C 
ATOM     14  C   LIG A   1      -7.409   3.045 128.533  0.00  0.00    +0.182 C 
ATOM     15  O   LIG A   1      -1.536   3.281 126.676  0.00  0.00    -0.251 OA
ATOM     16  C   LIG A   1      -5.517   0.867 126.453  0.00  0.00    +0.050 C 
ATOM     17  C   LIG A   1      -6.634   1.108 125.454  0.00  0.00    +0.009 C 
ATOM     18  C   LIG A   1      -7.234  -0.138 124.756  0.00  0.00    -0.007 C 
ATOM     19  C   LIG A   1      -7.981   0.360 123.500  0.00  0.00    +0.042 C 
ATOM     20  C   LIG A   1      -8.928   1.546 123.724  0.00  0.00    +0.181 C 
ATOM     21  C   LIG A   1      -8.410   2.594 124.746  0.00  0.00    +0.168 C 
ATOM     22  O   LIG A   1      -8.531   3.798 124.510  0.00  0.00    -0.294 OA
ATOM     23  C   LIG A   1      -6.199  -1.190 124.354  0.00  0.00    +0.008 C 
ENDROOT
BRANCH  11  24
ATOM     24  C   LIG A   1      -4.423   3.322 130.030  0.00  0.00    +0.146 C 
ATOM     25  O   LIG A   1      -3.249   3.545 130.336  0.00  0.00    -0.296 OA
BRANCH  24  26
ATOM     26  C   LIG A   1      -5.063   1.987 130.437  0.00  0.00    +0.104 C 
ATOM     27  C   LIG A   1      -4.141   0.822 130.142  0.00  0.00    +0.243 C 
ATOM     28  O   LIG A   1      -4.424  -0.183 131.104  0.00  0.00    -0.464 OA
ATOM     29  C   LIG A   1      -5.088   0.366 132.170  0.00  0.00    +0.308 C 
ATOM     30  C   LIG A   1      -5.300   1.842 131.926  0.00  0.00    +0.135 C 
ATOM     31  O   LIG A   1      -5.434  -0.248 133.170  0.00  0.00    -0.251 OA
ENDBRANCH  24  26
ENDBRANCH  11  24
BRANCH  20  32
ATOM     32  O   LIG A   1      -9.172   2.146 122.453  0.00  0.00    -0.384 OA
ATOM     33  H   LIG A   1      -9.518   3.045 122.627  0.00  0.00    +0.210 HD
ENDBRANCH  20  32
BRANCH  14  34
ATOM     34  O   LIG A   1      -8.844   3.174 128.736  0.00  0.00    -0.461 OA
BRANCH  34  35
ATOM     35  C   LIG A   1      -9.341   2.944 129.980  0.00  0.00    +0.304 C 
ATOM     36  C   LIG A   1      -8.854   1.624 130.501  0.00  0.00    +0.136 C 
ATOM     37  O   LIG A   1     -10.071   3.704 130.604  0.00  0.00    -0.251 OA
ENDBRANCH  34  35
ENDBRANCH  14  34
TORSDOF 5
ENDMDL
MODEL 6
REMARK VINA RESULT:      -8.1      4.417      8.194
REMARK  Name = NuBBE_924
REMARK  10 active torsions:
REMARK  status: ('A' for Active; 'I' for Inactive)
REMARK    1  A    between atoms: C_1  and  C_2
REMARK    2  A    between atoms: C_5  and  C_6
REMARK    3  A    between atoms: C_13  and  C_14
REMARK    4  A    between atoms: C_13  and  C_23
REMARK    5  A    between atoms: C_14  and  C_15
REMARK    6  A    between atoms: C_25  and  O_27
REMARK    7  A    between atoms: O_27  and  C_28
REMARK    8  A    between atoms: C_28  and  C_29
REMARK    9  A    between atoms: C_36  and  C_44
REMARK   10  A    between atoms: C_39  and  O_41
REMARK                            x       y       z     vdW  Elec       q    Type
REMARK                         _______ _______ _______ _____ _____    ______ ____
ROOT
ATOM      1  C   LIG A   1      -7.015   6.118 131.864  0.00  0.00    +0.020 C 
ATOM      2  C   LIG A   1      -5.913   5.084 131.530  0.00  0.00    +0.039 C 
ATOM      3  C   LIG A   1      -6.463   3.948 130.489  0.00  0.00    +0.053 C 
ATOM      4  C   LIG A   1      -5.324   3.409 129.572  0.00  0.00    +0.016 C 
ATOM      5  C   LIG A   1      -4.329   2.587 130.468  0.00  0.00    +0.015 C 
ATOM      6  C   LIG A   1      -4.670   4.574 128.805  0.00  0.00    +0.183 C 
ATOM      7  O   LIG A   1      -3.431   4.139 128.233  0.00  0.00    -0.461 OA
ATOM      8  C   LIG A   1      -3.466   3.082 127.384  0.00  0.00    +0.308 C 
ATOM      9  C   LIG A   1      -4.560   2.039 127.576  0.00  0.00    +0.126 C 
ATOM     10  C   LIG A   1      -5.780   2.411 128.449  0.00  0.00    +0.023 C 
ATOM     11  C   LIG A   1      -7.078   2.758 127.634  0.00  0.00    +0.034 C 
ATOM     12  C   LIG A   1      -7.689   1.445 127.071  0.00  0.00    +0.019 C 
ATOM     13  C   LIG A   1      -8.147   3.290 128.622  0.00  0.00    +0.059 C 
ATOM     14  C   LIG A   1      -7.716   4.357 129.641  0.00  0.00    +0.182 C 
ATOM     15  O   LIG A   1      -2.582   2.911 126.550  0.00  0.00    -0.251 OA
ATOM     16  C   LIG A   1      -4.519   5.913 129.544  0.00  0.00    +0.050 C 
ATOM     17  C   LIG A   1      -4.565   5.742 131.051  0.00  0.00    +0.009 C 
ATOM     18  C   LIG A   1      -4.191   6.975 131.911  0.00  0.00    -0.007 C 
ATOM     19  C   LIG A   1      -3.862   6.459 133.328  0.00  0.00    +0.042 C 
ATOM     20  C   LIG A   1      -4.884   5.485 133.929  0.00  0.00    +0.181 C 
ATOM     21  C   LIG A   1      -5.507   4.499 132.905  0.00  0.00    +0.168 C 
ATOM     22  O   LIG A   1      -5.659   3.313 133.203  0.00  0.00    -0.294 OA
ATOM     23  C   LIG A   1      -3.009   7.781 131.370  0.00  0.00    +0.008 C 
ENDROOT
BRANCH  11  24
ATOM     24  C   LIG A   1      -6.922   3.769 126.438  0.00  0.00    +0.146 C 
ATOM     25  O   LIG A   1      -7.165   4.966 126.609  0.00  0.00    -0.296 OA
BRANCH  24  26
ATOM     26  C   LIG A   1      -6.486   3.282 125.049  0.00  0.00    +0.104 C 
ATOM     27  C   LIG A   1      -7.620   3.385 124.049  0.00  0.00    +0.243 C 
ATOM     28  O   LIG A   1      -7.030   3.610 122.778  0.00  0.00    -0.464 OA
ATOM     29  C   LIG A   1      -5.745   4.060 122.933  0.00  0.00    +0.308 C 
ATOM     30  C   LIG A   1      -5.410   4.133 124.404  0.00  0.00    +0.135 C 
ATOM     31  O   LIG A   1      -4.998   4.372 122.016  0.00  0.00    -0.251 OA
ENDBRANCH  24  26
ENDBRANCH  11  24
BRANCH  20  32
ATOM     32  O   LIG A   1      -4.236   4.782 134.989  0.00  0.00    -0.384 OA
ATOM     33  H   LIG A   1      -4.835   4.056 135.253  0.00  0.00    +0.210 HD
ENDBRANCH  20  32
BRANCH  14  34
ATOM     34  O   LIG A   1      -8.825   4.496 130.573  0.00  0.00    -0.461 OA
BRANCH  34  35
ATOM     35  C   LIG A   1     -10.016   4.944 130.093  0.00  0.00    +0.304 C 
ATOM     36  C   LIG A   1      -9.878   6.347 129.581  0.00  0.00    +0.136 C 
ATOM     37  O   LIG A   1     -11.056   4.298 130.063  0.00  0.00    -0.251 OA
ENDBRANCH  34  35
ENDBRANCH  14  34
TORSDOF 5
ENDMDL
MODEL 7
REMARK VINA RESULT:      -7.8      4.560      8.566
REMARK  Name = NuBBE_924
REMARK  10 active torsions:
REMARK  status: ('A' for Active; 'I' for Inactive)
REMARK    1  A    between atoms: C_1  and  C_2
REMARK    2  A    between atoms: C_5  and  C_6
REMARK    3  A    between atoms: C_13  and  C_14
REMARK    4  A    between atoms: C_13  and  C_23
REMARK    5  A    between atoms: C_14  and  C_15
REMARK    6  A    between atoms: C_25  and  O_27
REMARK    7  A    between atoms: O_27  and  C_28
REMARK    8  A    between atoms: C_28  and  C_29
REMARK    9  A    between atoms: C_36  and  C_44
REMARK   10  A    between atoms: C_39  and  O_41
REMARK                            x       y       z     vdW  Elec       q    Type
REMARK                         _______ _______ _______ _____ _____    ______ ____
ROOT
ATOM      1  C   LIG A   1      -4.829   6.391 132.464  0.00  0.00    +0.020 C 
ATOM      2  C   LIG A   1      -4.421   5.120 131.680  0.00  0.00    +0.039 C 
ATOM      3  C   LIG A   1      -5.524   3.927 131.872  0.00  0.00    +0.053 C 
ATOM      4  C   LIG A   1      -5.603   3.010 130.615  0.00  0.00    +0.016 C 
ATOM      5  C   LIG A   1      -4.256   2.206 130.517  0.00  0.00    +0.015 C 
ATOM      6  C   LIG A   1      -5.929   3.853 129.367  0.00  0.00    +0.183 C 
ATOM      7  O   LIG A   1      -5.673   3.084 128.186  0.00  0.00    -0.461 OA
ATOM      8  C   LIG A   1      -6.332   1.906 128.047  0.00  0.00    +0.308 C 
ATOM      9  C   LIG A   1      -6.733   1.151 129.307  0.00  0.00    +0.126 C 
ATOM     10  C   LIG A   1      -6.727   1.915 130.651  0.00  0.00    +0.023 C 
ATOM     11  C   LIG A   1      -8.152   2.335 131.163  0.00  0.00    +0.034 C 
ATOM     12  C   LIG A   1      -8.887   1.079 131.707  0.00  0.00    +0.019 C 
ATOM     13  C   LIG A   1      -7.975   3.247 132.404  0.00  0.00    +0.059 C 
ATOM     14  C   LIG A   1      -6.953   4.392 132.314  0.00  0.00    +0.182 C 
ATOM     15  O   LIG A   1      -6.507   1.407 126.939  0.00  0.00    -0.251 OA
ATOM     16  C   LIG A   1      -5.312   5.257 129.280  0.00  0.00    +0.050 C 
ATOM     17  C   LIG A   1      -4.089   5.400 130.167  0.00  0.00    +0.009 C 
ATOM     18  C   LIG A   1      -3.240   6.684 129.993  0.00  0.00    -0.007 C 
ATOM     19  C   LIG A   1      -1.859   6.405 130.624  0.00  0.00    +0.042 C 
ATOM     20  C   LIG A   1      -1.888   5.784 132.026  0.00  0.00    +0.181 C 
ATOM     21  C   LIG A   1      -3.027   4.752 132.245  0.00  0.00    +0.168 C 
ATOM     22  O   LIG A   1      -2.801   3.701 132.846  0.00  0.00    -0.294 OA
ATOM     23  C   LIG A   1      -3.062   7.125 128.539  0.00  0.00    +0.008 C 
ENDROOT
BRANCH  11  24
ATOM     24  C   LIG A   1      -9.105   3.041 130.128  0.00  0.00    +0.146 C 
ATOM     25  O   LIG A   1      -9.407   2.466 129.079  0.00  0.00    -0.296 OA
BRANCH  24  26
ATOM     26  C   LIG A   1      -9.655   4.448 130.397  0.00  0.00    +0.104 C 
ATOM     27  C   LIG A   1      -9.275   5.409 129.288  0.00  0.00    +0.243 C 
ATOM     28  O   LIG A   1     -10.308   6.379 129.211  0.00  0.00    -0.464 OA
ATOM     29  C   LIG A   1     -11.437   5.910 129.831  0.00  0.00    +0.308 C 
ATOM     30  C   LIG A   1     -11.168   4.534 130.394  0.00  0.00    +0.135 C 
ATOM     31  O   LIG A   1     -12.500   6.510 129.896  0.00  0.00    -0.251 OA
ENDBRANCH  24  26
ENDBRANCH  11  24
BRANCH  20  32
ATOM     32  O   LIG A   1      -0.610   5.194 132.261  0.00  0.00    -0.384 OA
ATOM     33  H   LIG A   1      -0.762   4.409 132.824  0.00  0.00    +0.210 HD
ENDBRANCH  20  32
BRANCH  14  34
ATOM     34  O   LIG A   1      -6.823   4.923 133.663  0.00  0.00    -0.461 OA
BRANCH  34  35
ATOM     35  C   LIG A   1      -7.855   5.647 134.172  0.00  0.00    +0.304 C 
ATOM     36  C   LIG A   1      -7.747   5.731 135.666  0.00  0.00    +0.136 C 
ATOM     37  O   LIG A   1      -8.745   6.173 133.514  0.00  0.00    -0.251 OA
ENDBRANCH  34  35
ENDBRANCH  14  34
TORSDOF 5
ENDMDL
MODEL 8
REMARK VINA RESULT:      -7.8      2.105      6.755
REMARK  Name = NuBBE_924
REMARK  10 active torsions:
REMARK  status: ('A' for Active; 'I' for Inactive)
REMARK    1  A    between atoms: C_1  and  C_2
REMARK    2  A    between atoms: C_5  and  C_6
REMARK    3  A    between atoms: C_13  and  C_14
REMARK    4  A    between atoms: C_13  and  C_23
REMARK    5  A    between atoms: C_14  and  C_15
REMARK    6  A    between atoms: C_25  and  O_27
REMARK    7  A    between atoms: O_27  and  C_28
REMARK    8  A    between atoms: C_28  and  C_29
REMARK    9  A    between atoms: C_36  and  C_44
REMARK   10  A    between atoms: C_39  and  O_41
REMARK                            x       y       z     vdW  Elec       q    Type
REMARK                         _______ _______ _______ _____ _____    ______ ____
ROOT
ATOM      1  C   LIG A   1      -6.792  -0.877 131.841  0.00  0.00    +0.020 C 
ATOM      2  C   LIG A   1      -6.493   0.433 131.073  0.00  0.00    +0.039 C 
ATOM      3  C   LIG A   1      -5.937   0.123 129.567  0.00  0.00    +0.053 C 
ATOM      4  C   LIG A   1      -6.341   1.244 128.562  0.00  0.00    +0.016 C 
ATOM      5  C   LIG A   1      -5.552   2.547 128.947  0.00  0.00    +0.015 C 
ATOM      6  C   LIG A   1      -7.872   1.412 128.549  0.00  0.00    +0.183 C 
ATOM      7  O   LIG A   1      -8.217   2.640 127.898  0.00  0.00    -0.461 OA
ATOM      8  C   LIG A   1      -7.792   2.817 126.621  0.00  0.00    +0.308 C 
ATOM      9  C   LIG A   1      -6.507   2.123 126.186  0.00  0.00    +0.126 C 
ATOM     10  C   LIG A   1      -5.966   0.970 127.062  0.00  0.00    +0.023 C 
ATOM     11  C   LIG A   1      -6.236  -0.466 126.483  0.00  0.00    +0.034 C 
ATOM     12  C   LIG A   1      -5.276  -0.719 125.288  0.00  0.00    +0.019 C 
ATOM     13  C   LIG A   1      -5.813  -1.509 127.548  0.00  0.00    +0.059 C 
ATOM     14  C   LIG A   1      -6.287  -1.293 128.994  0.00  0.00    +0.182 C 
ATOM     15  O   LIG A   1      -8.365   3.596 125.866  0.00  0.00    -0.251 OA
ATOM     16  C   LIG A   1      -8.615   1.245 129.884  0.00  0.00    +0.050 C 
ATOM     17  C   LIG A   1      -7.698   1.447 131.076  0.00  0.00    +0.009 C 
ATOM     18  C   LIG A   1      -8.368   1.538 132.471  0.00  0.00    -0.007 C 
ATOM     19  C   LIG A   1      -7.343   2.188 133.425  0.00  0.00    +0.042 C 
ATOM     20  C   LIG A   1      -5.930   1.593 133.378  0.00  0.00    +0.181 C 
ATOM     21  C   LIG A   1      -5.461   1.170 131.960  0.00  0.00    +0.168 C 
ATOM     22  O   LIG A   1      -4.313   1.423 131.589  0.00  0.00    -0.294 OA
ATOM     23  C   LIG A   1      -9.669   2.342 132.489  0.00  0.00    +0.008 C 
ENDROOT
BRANCH  11  24
ATOM     24  C   LIG A   1      -7.701  -0.777 125.998  0.00  0.00    +0.146 C 
ATOM     25  O   LIG A   1      -8.563  -1.104 126.818  0.00  0.00    -0.296 OA
BRANCH  24  26
ATOM     26  C   LIG A   1      -8.071  -0.696 124.511  0.00  0.00    +0.104 C 
ATOM     27  C   LIG A   1      -8.766  -1.961 124.047  0.00  0.00    +0.243 C 
ATOM     28  O   LIG A   1      -9.649  -1.587 123.001  0.00  0.00    -0.464 OA
ATOM     29  C   LIG A   1      -9.882  -0.237 123.047  0.00  0.00    +0.308 C 
ATOM     30  C   LIG A   1      -9.095   0.372 124.184  0.00  0.00    +0.135 C 
ATOM     31  O   LIG A   1     -10.629   0.370 122.293  0.00  0.00    -0.251 OA
ENDBRANCH  24  26
ENDBRANCH  11  24
BRANCH  20  32
ATOM     32  O   LIG A   1      -5.041   2.554 133.948  0.00  0.00    -0.384 OA
ATOM     33  H   LIG A   1      -4.718   3.110 133.211  0.00  0.00    +0.210 HD
ENDBRANCH  20  32
BRANCH  14  34
ATOM     34  O   LIG A   1      -5.566  -2.263 129.804  0.00  0.00    -0.461 OA
BRANCH  34  35
ATOM     35  C   LIG A   1      -6.072  -3.521 129.903  0.00  0.00    +0.304 C 
ATOM     36  C   LIG A   1      -7.524  -3.531 129.524  0.00  0.00    +0.136 C 
ATOM     37  O   LIG A   1      -5.440  -4.515 130.238  0.00  0.00    -0.251 OA
ENDBRANCH  34  35
ENDBRANCH  14  34
TORSDOF 5
ENDMDL
MODEL 9
REMARK VINA RESULT:      -7.7      3.840      6.184
REMARK  Name = NuBBE_924
REMARK  10 active torsions:
REMARK  status: ('A' for Active; 'I' for Inactive)
REMARK    1  A    between atoms: C_1  and  C_2
REMARK    2  A    between atoms: C_5  and  C_6
REMARK    3  A    between atoms: C_13  and  C_14
REMARK    4  A    between atoms: C_13  and  C_23
REMARK    5  A    between atoms: C_14  and  C_15
REMARK    6  A    between atoms: C_25  and  O_27
REMARK    7  A    between atoms: O_27  and  C_28
REMARK    8  A    between atoms: C_28  and  C_29
REMARK    9  A    between atoms: C_36  and  C_44
REMARK   10  A    between atoms: C_39  and  O_41
REMARK                            x       y       z     vdW  Elec       q    Type
REMARK                         _______ _______ _______ _____ _____    ______ ____
ROOT
ATOM      1  C   LIG A   1      -8.886   1.130 126.914  0.00  0.00    +0.020 C 
ATOM      2  C   LIG A   1      -7.787   1.953 126.199  0.00  0.00    +0.039 C 
ATOM      3  C   LIG A   1      -7.278   3.197 127.130  0.00  0.00    +0.053 C 
ATOM      4  C   LIG A   1      -5.782   3.542 126.863  0.00  0.00    +0.016 C 
ATOM      5  C   LIG A   1      -5.675   4.143 125.415  0.00  0.00    +0.015 C 
ATOM      6  C   LIG A   1      -4.905   2.297 127.097  0.00  0.00    +0.183 C 
ATOM      7  O   LIG A   1      -3.604   2.512 126.539  0.00  0.00    -0.461 OA
ATOM      8  C   LIG A   1      -2.896   3.580 126.984  0.00  0.00    +0.308 C 
ATOM      9  C   LIG A   1      -3.664   4.801 127.474  0.00  0.00    +0.126 C 
ATOM     10  C   LIG A   1      -5.165   4.636 127.804  0.00  0.00    +0.023 C 
ATOM     11  C   LIG A   1      -5.486   4.556 129.341  0.00  0.00    +0.034 C 
ATOM     12  C   LIG A   1      -5.348   5.973 129.962  0.00  0.00    +0.019 C 
ATOM     13  C   LIG A   1      -6.985   4.203 129.509  0.00  0.00    +0.059 C 
ATOM     14  C   LIG A   1      -7.551   3.049 128.666  0.00  0.00    +0.182 C 
ATOM     15  O   LIG A   1      -1.672   3.608 126.897  0.00  0.00    -0.251 OA
ATOM     16  C   LIG A   1      -5.485   0.934 126.688  0.00  0.00    +0.050 C 
ATOM     17  C   LIG A   1      -6.597   1.071 125.664  0.00  0.00    +0.009 C 
ATOM     18  C   LIG A   1      -7.103  -0.233 124.997  0.00  0.00    -0.007 C 
ATOM     19  C   LIG A   1      -7.858   0.176 123.714  0.00  0.00    +0.042 C 
ATOM     20  C   LIG A   1      -8.882   1.305 123.885  0.00  0.00    +0.181 C 
ATOM     21  C   LIG A   1      -8.452   2.416 124.880  0.00  0.00    +0.168 C 
ATOM     22  O   LIG A   1      -8.646   3.601 124.604  0.00  0.00    -0.294 OA
ATOM     23  C   LIG A   1      -5.995  -1.227 124.646  0.00  0.00    +0.008 C 
ENDROOT
BRANCH  11  24
ATOM     24  C   LIG A   1      -4.616   3.565 130.202  0.00  0.00    +0.146 C 
ATOM     25  O   LIG A   1      -4.499   2.388 129.853  0.00  0.00    -0.296 OA
BRANCH  24  26
ATOM     26  C   LIG A   1      -3.921   4.042 131.484  0.00  0.00    +0.104 C 
ATOM     27  C   LIG A   1      -3.422   2.870 132.307  0.00  0.00    +0.243 C 
ATOM     28  O   LIG A   1      -2.272   3.319 133.008  0.00  0.00    -0.464 OA
ATOM     29  C   LIG A   1      -1.778   4.453 132.418  0.00  0.00    +0.308 C 
ATOM     30  C   LIG A   1      -2.649   4.831 131.244  0.00  0.00    +0.135 C 
ATOM     31  O   LIG A   1      -0.773   5.049 132.780  0.00  0.00    -0.251 OA
ENDBRANCH  24  26
ENDBRANCH  11  24
BRANCH  20  32
ATOM     32  O   LIG A   1      -9.142   1.848 122.590  0.00  0.00    -0.384 OA
ATOM     33  H   LIG A   1      -9.790   1.254 122.161  0.00  0.00    +0.210 HD
ENDBRANCH  20  32
BRANCH  14  34
ATOM     34  O   LIG A   1      -8.994   3.091 128.842  0.00  0.00    -0.461 OA
BRANCH  34  35
ATOM     35  C   LIG A   1      -9.503   2.789 130.066  0.00  0.00    +0.304 C 
ATOM     36  C   LIG A   1     -10.586   3.759 130.435  0.00  0.00    +0.136 C 
ATOM     37  O   LIG A   1      -9.147   1.852 130.770  0.00  0.00    -0.251 OA
ENDBRANCH  34  35
ENDBRANCH  14  34
TORSDOF 5
ENDMDL
