MODEL 1
REMARK VINA RESULT:      -9.1      0.000      0.000
REMARK  Name = NuBBE_1271
REMARK  8 active torsions:
REMARK  status: ('A' for Active; 'I' for Inactive)
REMARK    1  A    between atoms: C_1  and  C_2
REMARK    2  A    between atoms: C_2  and  C_3
REMARK    3  A    between atoms: C_15  and  C_20
REMARK    4  A    between atoms: C_21  and  O_22
REMARK    5  A    between atoms: O_22  and  C_23
REMARK    6  A    between atoms: C_23  and  C_24
REMARK    7  A    between atoms: C_28  and  C_29
REMARK    8  A    between atoms: C_30  and  C_32
REMARK                            x       y       z     vdW  Elec       q    Type
REMARK                         _______ _______ _______ _____ _____    ______ ____
ROOT
ATOM      1  C   LIG A   1      -5.966  -2.141 123.460  0.00  0.00    +0.041 C 
ATOM      2  C   LIG A   1      -6.550  -0.939 124.249  0.00  0.00    +0.068 C 
ATOM      3  C   LIG A   1      -6.736   0.170 123.208  0.00  0.00    +0.041 C 
ATOM      4  C   LIG A   1      -5.705  -0.703 125.571  0.00  0.00    +0.036 C 
ATOM      5  C   LIG A   1      -4.895   0.583 125.736  0.00  0.00    +0.052 C 
ATOM      6  O   LIG A   1      -7.870  -1.317 124.741  0.00  0.00    -0.369 OA
ATOM      7  C   LIG A   1      -7.625  -1.989 125.969  0.00  0.00    +0.140 C 
ATOM      8  C   LIG A   1      -6.660  -1.081 126.743  0.00  0.00    +0.041 C 
ATOM      9  C   LIG A   1      -6.039  -2.109 127.709  0.00  0.00    +0.242 C 
ATOM     10  O   LIG A   1      -7.032  -2.900 128.425  0.00  0.00    -0.464 OA
ATOM     11  C   LIG A   1      -7.366   0.186 127.495  0.00  0.00    +0.014 C 
ATOM     12  C   LIG A   1      -6.652   1.605 127.299  0.00  0.00    +0.041 C 
ATOM     13  C   LIG A   1      -6.902   2.638 128.472  0.00  0.00    +0.125 C 
ATOM     14  O   LIG A   1      -7.795   3.695 128.063  0.00  0.00    -0.351 OA
ATOM     15  C   LIG A   1      -6.464   4.097 128.366  0.00  0.00    +0.260 C 
ATOM     16  C   LIG A   1      -7.281   2.243 126.021  0.00  0.00    +0.018 C 
ATOM     17  C   LIG A   1      -5.136   1.355 127.045  0.00  0.00    +0.186 C 
ATOM     18  C   LIG A   1      -7.690  -0.127 128.982  0.00  0.00    +0.006 C 
ATOM     19  C   LIG A   1      -8.232   1.037 129.788  0.00  0.00    +0.014 C 
ATOM     20  C   LIG A   1      -7.212   2.172 129.885  0.00  0.00    +0.042 C 
ATOM     21  C   LIG A   1      -5.913   1.688 130.583  0.00  0.00    +0.018 C 
ATOM     22  C   LIG A   1      -7.770   3.360 130.765  0.00  0.00    +0.218 C 
ATOM     23  O   LIG A   1      -6.883   4.509 130.734  0.00  0.00    -0.454 OA
ATOM     24  C   LIG A   1      -6.314   4.944 129.574  0.00  0.00    +0.340 C 
ATOM     25  O   LIG A   1      -5.649   5.966 129.521  0.00  0.00    -0.248 OA
ATOM     26  C   LIG A   1      -8.806  -2.435 126.776  0.00  0.00    +0.152 C 
ATOM     27  C   LIG A   1      -8.292  -3.178 127.987  0.00  0.00    +0.310 C 
ATOM     28  O   LIG A   1      -9.013  -3.948 128.614  0.00  0.00    -0.251 OA
ENDROOT
BRANCH  22  29
ATOM     29  C   LIG A   1      -9.217   3.778 130.597  0.00  0.00    +0.031 A 
ATOM     30  C   LIG A   1     -10.332   2.978 130.426  0.00  0.00    +0.202 A 
ATOM     31  O   LIG A   1     -11.460   3.718 130.300  0.00  0.00    -0.471 OA
ATOM     32  C   LIG A   1     -11.083   5.017 130.350  0.00  0.00    +0.195 A 
ATOM     33  C   LIG A   1      -9.720   5.114 130.513  0.00  0.00    +0.048 A 
ENDBRANCH  22  29
BRANCH  17  34
ATOM     34  O   LIG A   1      -4.419   2.605 126.893  0.00  0.00    -0.461 OA
BRANCH  34  35
ATOM     35  C   LIG A   1      -3.278   2.772 127.620  0.00  0.00    +0.304 C 
ATOM     36  C   LIG A   1      -2.115   3.038 126.709  0.00  0.00    +0.136 C 
ATOM     37  O   LIG A   1      -3.208   2.736 128.838  0.00  0.00    -0.251 OA
ENDBRANCH  34  35
ENDBRANCH  17  34
TORSDOF 3
ENDMDL
MODEL 2
REMARK VINA RESULT:      -8.8      2.070      6.710
REMARK  Name = NuBBE_1271
REMARK  8 active torsions:
REMARK  status: ('A' for Active; 'I' for Inactive)
REMARK    1  A    between atoms: C_1  and  C_2
REMARK    2  A    between atoms: C_2  and  C_3
REMARK    3  A    between atoms: C_15  and  C_20
REMARK    4  A    between atoms: C_21  and  O_22
REMARK    5  A    between atoms: O_22  and  C_23
REMARK    6  A    between atoms: C_23  and  C_24
REMARK    7  A    between atoms: C_28  and  C_29
REMARK    8  A    between atoms: C_30  and  C_32
REMARK                            x       y       z     vdW  Elec       q    Type
REMARK                         _______ _______ _______ _____ _____    ______ ____
ROOT
ATOM      1  C   LIG A   1      -3.762   6.153 127.651  0.00  0.00    +0.041 C 
ATOM      2  C   LIG A   1      -4.158   4.671 127.416  0.00  0.00    +0.068 C 
ATOM      3  C   LIG A   1      -2.857   3.970 127.010  0.00  0.00    +0.041 C 
ATOM      4  C   LIG A   1      -5.456   4.599 126.506  0.00  0.00    +0.036 C 
ATOM      5  C   LIG A   1      -5.372   3.988 125.108  0.00  0.00    +0.052 C 
ATOM      6  O   LIG A   1      -4.591   4.109 128.689  0.00  0.00    -0.369 OA
ATOM      7  C   LIG A   1      -5.968   4.447 128.790  0.00  0.00    +0.140 C 
ATOM      8  C   LIG A   1      -6.581   4.058 127.439  0.00  0.00    +0.041 C 
ATOM      9  C   LIG A   1      -7.834   4.955 127.442  0.00  0.00    +0.242 C 
ATOM     10  O   LIG A   1      -8.621   4.841 128.664  0.00  0.00    -0.464 OA
ATOM     11  C   LIG A   1      -6.913   2.467 127.270  0.00  0.00    +0.014 C 
ATOM     12  C   LIG A   1      -6.437   1.793 125.898  0.00  0.00    +0.041 C 
ATOM     13  C   LIG A   1      -7.279   0.527 125.457  0.00  0.00    +0.125 C 
ATOM     14  O   LIG A   1      -6.527  -0.692 125.629  0.00  0.00    -0.351 OA
ATOM     15  C   LIG A   1      -6.853  -0.355 124.285  0.00  0.00    +0.260 C 
ATOM     16  C   LIG A   1      -4.982   1.282 126.136  0.00  0.00    +0.018 C 
ATOM     17  C   LIG A   1      -6.412   2.897 124.798  0.00  0.00    +0.186 C 
ATOM     18  C   LIG A   1      -8.389   2.139 127.625  0.00  0.00    +0.006 C 
ATOM     19  C   LIG A   1      -8.814   0.705 127.375  0.00  0.00    +0.014 C 
ATOM     20  C   LIG A   1      -8.725   0.347 125.891  0.00  0.00    +0.042 C 
ATOM     21  C   LIG A   1      -9.652   1.261 125.046  0.00  0.00    +0.018 C 
ATOM     22  C   LIG A   1      -9.213  -1.134 125.636  0.00  0.00    +0.218 C 
ATOM     23  O   LIG A   1      -8.984  -1.542 124.262  0.00  0.00    -0.454 OA
ATOM     24  C   LIG A   1      -7.817  -1.263 123.617  0.00  0.00    +0.340 C 
ATOM     25  O   LIG A   1      -7.575  -1.687 122.499  0.00  0.00    -0.248 OA
ATOM     26  C   LIG A   1      -6.736   3.932 129.969  0.00  0.00    +0.152 C 
ATOM     27  C   LIG A   1      -8.141   4.480 129.887  0.00  0.00    +0.310 C 
ATOM     28  O   LIG A   1      -8.865   4.522 130.877  0.00  0.00    -0.251 OA
ENDROOT
BRANCH  22  29
ATOM     29  C   LIG A   1      -8.799  -2.219 126.609  0.00  0.00    +0.031 A 
ATOM     30  C   LIG A   1      -9.131  -3.563 126.598  0.00  0.00    +0.202 A 
ATOM     31  O   LIG A   1      -8.576  -4.221 127.644  0.00  0.00    -0.471 OA
ATOM     32  C   LIG A   1      -7.904  -3.299 128.373  0.00  0.00    +0.195 A 
ATOM     33  C   LIG A   1      -8.021  -2.056 127.797  0.00  0.00    +0.048 A 
ENDBRANCH  22  29
BRANCH  17  34
ATOM     34  O   LIG A   1      -6.023   2.346 123.515  0.00  0.00    -0.461 OA
BRANCH  34  35
ATOM     35  C   LIG A   1      -6.440   3.000 122.395  0.00  0.00    +0.304 C 
ATOM     36  C   LIG A   1      -7.938   3.083 122.368  0.00  0.00    +0.136 C 
ATOM     37  O   LIG A   1      -5.706   3.475 121.542  0.00  0.00    -0.251 OA
ENDBRANCH  34  35
ENDBRANCH  17  34
TORSDOF 3
ENDMDL
MODEL 3
REMARK VINA RESULT:      -8.7      1.886      7.048
REMARK  Name = NuBBE_1271
REMARK  8 active torsions:
REMARK  status: ('A' for Active; 'I' for Inactive)
REMARK    1  A    between atoms: C_1  and  C_2
REMARK    2  A    between atoms: C_2  and  C_3
REMARK    3  A    between atoms: C_15  and  C_20
REMARK    4  A    between atoms: C_21  and  O_22
REMARK    5  A    between atoms: O_22  and  C_23
REMARK    6  A    between atoms: C_23  and  C_24
REMARK    7  A    between atoms: C_28  and  C_29
REMARK    8  A    between atoms: C_30  and  C_32
REMARK                            x       y       z     vdW  Elec       q    Type
REMARK                         _______ _______ _______ _____ _____    ______ ____
ROOT
ATOM      1  C   LIG A   1      -6.224   3.525 132.734  0.00  0.00    +0.041 C 
ATOM      2  C   LIG A   1      -6.895   3.214 131.371  0.00  0.00    +0.068 C 
ATOM      3  C   LIG A   1      -8.400   3.207 131.658  0.00  0.00    +0.041 C 
ATOM      4  C   LIG A   1      -6.176   1.974 130.689  0.00  0.00    +0.036 C 
ATOM      5  C   LIG A   1      -6.943   0.668 130.483  0.00  0.00    +0.052 C 
ATOM      6  O   LIG A   1      -6.617   4.321 130.464  0.00  0.00    -0.369 OA
ATOM      7  C   LIG A   1      -5.350   4.020 129.895  0.00  0.00    +0.140 C 
ATOM      8  C   LIG A   1      -5.445   2.558 129.442  0.00  0.00    +0.041 C 
ATOM      9  C   LIG A   1      -3.949   2.190 129.403  0.00  0.00    +0.242 C 
ATOM     10  O   LIG A   1      -3.142   3.139 128.647  0.00  0.00    -0.464 OA
ATOM     11  C   LIG A   1      -6.216   2.330 128.020  0.00  0.00    +0.014 C 
ATOM     12  C   LIG A   1      -7.310   1.162 127.994  0.00  0.00    +0.041 C 
ATOM     13  C   LIG A   1      -7.560   0.523 126.567  0.00  0.00    +0.125 C 
ATOM     14  O   LIG A   1      -8.837   0.923 126.027  0.00  0.00    -0.351 OA
ATOM     15  C   LIG A   1      -8.699  -0.464 126.316  0.00  0.00    +0.260 C 
ATOM     16  C   LIG A   1      -8.663   1.813 128.418  0.00  0.00    +0.018 C 
ATOM     17  C   LIG A   1      -6.907   0.096 129.055  0.00  0.00    +0.186 C 
ATOM     18  C   LIG A   1      -5.224   2.257 126.826  0.00  0.00    +0.006 C 
ATOM     19  C   LIG A   1      -5.848   1.922 125.484  0.00  0.00    +0.014 C 
ATOM     20  C   LIG A   1      -6.482   0.532 125.496  0.00  0.00    +0.042 C 
ATOM     21  C   LIG A   1      -5.420  -0.558 125.800  0.00  0.00    +0.018 C 
ATOM     22  C   LIG A   1      -7.088   0.175 124.080  0.00  0.00    +0.218 C 
ATOM     23  O   LIG A   1      -7.833  -1.070 124.117  0.00  0.00    -0.454 OA
ATOM     24  C   LIG A   1      -8.690  -1.362 125.136  0.00  0.00    +0.340 C 
ATOM     25  O   LIG A   1      -9.395  -2.357 125.126  0.00  0.00    -0.248 OA
ATOM     26  C   LIG A   1      -4.814   4.942 128.842  0.00  0.00    +0.152 C 
ATOM     27  C   LIG A   1      -3.438   4.455 128.451  0.00  0.00    +0.310 C 
ATOM     28  O   LIG A   1      -2.636   5.197 127.893  0.00  0.00    -0.251 OA
ENDROOT
BRANCH  22  29
ATOM     29  C   LIG A   1      -7.840   1.244 123.315  0.00  0.00    +0.031 A 
ATOM     30  C   LIG A   1      -9.166   1.251 122.917  0.00  0.00    +0.202 A 
ATOM     31  O   LIG A   1      -9.475   2.383 122.239  0.00  0.00    -0.471 OA
ATOM     32  C   LIG A   1      -8.337   3.111 122.154  0.00  0.00    +0.195 A 
ATOM     33  C   LIG A   1      -7.302   2.456 122.779  0.00  0.00    +0.048 A 
ENDBRANCH  22  29
BRANCH  17  34
ATOM     34  O   LIG A   1      -7.839  -1.014 129.061  0.00  0.00    -0.461 OA
BRANCH  34  35
ATOM     35  C   LIG A   1      -7.321  -2.274 129.045  0.00  0.00    +0.304 C 
ATOM     36  C   LIG A   1      -8.413  -3.284 128.843  0.00  0.00    +0.136 C 
ATOM     37  O   LIG A   1      -6.136  -2.550 129.154  0.00  0.00    -0.251 OA
ENDBRANCH  34  35
ENDBRANCH  17  34
TORSDOF 3
ENDMDL
MODEL 4
REMARK VINA RESULT:      -8.7      4.180      7.026
REMARK  Name = NuBBE_1271
REMARK  8 active torsions:
REMARK  status: ('A' for Active; 'I' for Inactive)
REMARK    1  A    between atoms: C_1  and  C_2
REMARK    2  A    between atoms: C_2  and  C_3
REMARK    3  A    between atoms: C_15  and  C_20
REMARK    4  A    between atoms: C_21  and  O_22
REMARK    5  A    between atoms: O_22  and  C_23
REMARK    6  A    between atoms: C_23  and  C_24
REMARK    7  A    between atoms: C_28  and  C_29
REMARK    8  A    between atoms: C_30  and  C_32
REMARK                            x       y       z     vdW  Elec       q    Type
REMARK                         _______ _______ _______ _____ _____    ______ ____
ROOT
ATOM      1  C   LIG A   1      -1.144   5.543 131.704  0.00  0.00    +0.041 C 
ATOM      2  C   LIG A   1      -2.549   6.064 131.302  0.00  0.00    +0.068 C 
ATOM      3  C   LIG A   1      -2.611   7.499 131.835  0.00  0.00    +0.041 C 
ATOM      4  C   LIG A   1      -3.650   4.988 131.688  0.00  0.00    +0.036 C 
ATOM      5  C   LIG A   1      -4.690   5.315 132.760  0.00  0.00    +0.052 C 
ATOM      6  O   LIG A   1      -2.613   6.122 129.847  0.00  0.00    -0.369 OA
ATOM      7  C   LIG A   1      -2.995   4.815 129.443  0.00  0.00    +0.140 C 
ATOM      8  C   LIG A   1      -4.193   4.450 130.329  0.00  0.00    +0.041 C 
ATOM      9  C   LIG A   1      -4.141   2.913 130.235  0.00  0.00    +0.242 C 
ATOM     10  O   LIG A   1      -4.069   2.422 128.864  0.00  0.00    -0.464 OA
ATOM     11  C   LIG A   1      -5.619   5.091 129.853  0.00  0.00    +0.014 C 
ATOM     12  C   LIG A   1      -6.500   5.774 131.001  0.00  0.00    +0.041 C 
ATOM     13  C   LIG A   1      -8.057   5.793 130.716  0.00  0.00    +0.125 C 
ATOM     14  O   LIG A   1      -8.517   7.121 130.393  0.00  0.00    -0.351 OA
ATOM     15  C   LIG A   1      -9.028   6.570 131.602  0.00  0.00    +0.260 C 
ATOM     16  C   LIG A   1      -6.056   7.268 131.070  0.00  0.00    +0.018 C 
ATOM     17  C   LIG A   1      -6.156   5.081 132.354  0.00  0.00    +0.186 C 
ATOM     18  C   LIG A   1      -6.433   4.104 128.971  0.00  0.00    +0.006 C 
ATOM     19  C   LIG A   1      -7.825   4.573 128.589  0.00  0.00    +0.014 C 
ATOM     20  C   LIG A   1      -8.710   4.751 129.822  0.00  0.00    +0.042 C 
ATOM     21  C   LIG A   1      -8.865   3.412 130.591  0.00  0.00    +0.018 C 
ATOM     22  C   LIG A   1     -10.171   5.194 129.410  0.00  0.00    +0.218 C 
ATOM     23  O   LIG A   1     -10.976   5.524 130.571  0.00  0.00    -0.454 OA
ATOM     24  C   LIG A   1     -10.480   6.267 131.600  0.00  0.00    +0.340 C 
ATOM     25  O   LIG A   1     -11.177   6.634 132.532  0.00  0.00    -0.248 OA
ATOM     26  C   LIG A   1      -3.232   4.569 127.984  0.00  0.00    +0.152 C 
ATOM     27  C   LIG A   1      -3.553   3.104 127.803  0.00  0.00    +0.310 C 
ATOM     28  O   LIG A   1      -3.437   2.558 126.710  0.00  0.00    -0.251 OA
ENDROOT
BRANCH  22  29
ATOM     29  C   LIG A   1     -10.340   6.225 128.312  0.00  0.00    +0.031 A 
ATOM     30  C   LIG A   1      -9.790   6.233 127.042  0.00  0.00    +0.202 A 
ATOM     31  O   LIG A   1     -10.164   7.334 126.346  0.00  0.00    -0.471 OA
ATOM     32  C   LIG A   1     -10.935   8.077 127.174  0.00  0.00    +0.195 A 
ATOM     33  C   LIG A   1     -11.062   7.457 128.395  0.00  0.00    +0.048 A 
ENDBRANCH  22  29
BRANCH  17  34
ATOM     34  O   LIG A   1      -6.948   5.629 133.437  0.00  0.00    -0.461 OA
BRANCH  34  35
ATOM     35  C   LIG A   1      -7.227   4.812 134.491  0.00  0.00    +0.304 C 
ATOM     36  C   LIG A   1      -8.173   3.725 134.072  0.00  0.00    +0.136 C 
ATOM     37  O   LIG A   1      -6.759   4.927 135.614  0.00  0.00    -0.251 OA
ENDBRANCH  34  35
ENDBRANCH  17  34
TORSDOF 3
ENDMDL
MODEL 5
REMARK VINA RESULT:      -8.5      1.988      2.422
REMARK  Name = NuBBE_1271
REMARK  8 active torsions:
REMARK  status: ('A' for Active; 'I' for Inactive)
REMARK    1  A    between atoms: C_1  and  C_2
REMARK    2  A    between atoms: C_2  and  C_3
REMARK    3  A    between atoms: C_15  and  C_20
REMARK    4  A    between atoms: C_21  and  O_22
REMARK    5  A    between atoms: O_22  and  C_23
REMARK    6  A    between atoms: C_23  and  C_24
REMARK    7  A    between atoms: C_28  and  C_29
REMARK    8  A    between atoms: C_30  and  C_32
REMARK                            x       y       z     vdW  Elec       q    Type
REMARK                         _______ _______ _______ _____ _____    ______ ____
ROOT
ATOM      1  C   LIG A   1      -7.797  -3.208 125.060  0.00  0.00    +0.041 C 
ATOM      2  C   LIG A   1      -8.015  -2.022 126.036  0.00  0.00    +0.068 C 
ATOM      3  C   LIG A   1      -9.131  -1.183 125.404  0.00  0.00    +0.041 C 
ATOM      4  C   LIG A   1      -6.615  -1.383 126.424  0.00  0.00    +0.036 C 
ATOM      5  C   LIG A   1      -6.286   0.047 125.993  0.00  0.00    +0.052 C 
ATOM      6  O   LIG A   1      -8.516  -2.558 127.297  0.00  0.00    -0.369 OA
ATOM      7  C   LIG A   1      -7.353  -2.928 128.026  0.00  0.00    +0.140 C 
ATOM      8  C   LIG A   1      -6.413  -1.720 127.933  0.00  0.00    +0.041 C 
ATOM      9  C   LIG A   1      -5.062  -2.407 128.212  0.00  0.00    +0.242 C 
ATOM     10  O   LIG A   1      -5.074  -3.234 129.413  0.00  0.00    -0.464 OA
ATOM     11  C   LIG A   1      -6.758  -0.502 128.965  0.00  0.00    +0.014 C 
ATOM     12  C   LIG A   1      -6.770   0.969 128.336  0.00  0.00    +0.041 C 
ATOM     13  C   LIG A   1      -6.454   2.131 129.364  0.00  0.00    +0.125 C 
ATOM     14  O   LIG A   1      -7.638   2.895 129.676  0.00  0.00    -0.351 OA
ATOM     15  C   LIG A   1      -6.612   3.603 128.989  0.00  0.00    +0.260 C 
ATOM     16  C   LIG A   1      -8.226   1.223 127.833  0.00  0.00    +0.018 C 
ATOM     17  C   LIG A   1      -5.804   0.983 127.114  0.00  0.00    +0.186 C 
ATOM     18  C   LIG A   1      -5.922  -0.593 130.272  0.00  0.00    +0.006 C 
ATOM     19  C   LIG A   1      -6.090   0.569 131.232  0.00  0.00    +0.014 C 
ATOM     20  C   LIG A   1      -5.617   1.881 130.607  0.00  0.00    +0.042 C 
ATOM     21  C   LIG A   1      -4.113   1.802 130.229  0.00  0.00    +0.018 C 
ATOM     22  C   LIG A   1      -5.752   3.077 131.632  0.00  0.00    +0.218 C 
ATOM     23  O   LIG A   1      -5.461   4.353 131.005  0.00  0.00    -0.454 OA
ATOM     24  C   LIG A   1      -5.942   4.671 129.770  0.00  0.00    +0.340 C 
ATOM     25  O   LIG A   1      -5.787   5.776 129.278  0.00  0.00    -0.248 OA
ATOM     26  C   LIG A   1      -7.532  -3.444 129.422  0.00  0.00    +0.152 C 
ATOM     27  C   LIG A   1      -6.173  -3.833 129.953  0.00  0.00    +0.310 C 
ATOM     28  O   LIG A   1      -6.058  -4.602 130.904  0.00  0.00    -0.251 OA
ENDROOT
BRANCH  22  29
ATOM     29  C   LIG A   1      -6.992   3.160 132.499  0.00  0.00    +0.031 A 
ATOM     30  C   LIG A   1      -7.706   2.131 133.088  0.00  0.00    +0.202 A 
ATOM     31  O   LIG A   1      -8.770   2.599 133.784  0.00  0.00    -0.471 OA
ATOM     32  C   LIG A   1      -8.782   3.943 133.623  0.00  0.00    +0.195 A 
ATOM     33  C   LIG A   1      -7.729   4.340 132.832  0.00  0.00    +0.048 A 
ENDBRANCH  22  29
BRANCH  17  34
ATOM     34  O   LIG A   1      -5.739   2.302 126.514  0.00  0.00    -0.461 OA
BRANCH  34  35
ATOM     35  C   LIG A   1      -4.506   2.808 126.234  0.00  0.00    +0.304 C 
ATOM     36  C   LIG A   1      -4.627   4.015 125.351  0.00  0.00    +0.136 C 
ATOM     37  O   LIG A   1      -3.449   2.364 126.657  0.00  0.00    -0.251 OA
ENDBRANCH  34  35
ENDBRANCH  17  34
TORSDOF 3
ENDMDL
MODEL 6
REMARK VINA RESULT:      -8.3      2.136      4.953
REMARK  Name = NuBBE_1271
REMARK  8 active torsions:
REMARK  status: ('A' for Active; 'I' for Inactive)
REMARK    1  A    between atoms: C_1  and  C_2
REMARK    2  A    between atoms: C_2  and  C_3
REMARK    3  A    between atoms: C_15  and  C_20
REMARK    4  A    between atoms: C_21  and  O_22
REMARK    5  A    between atoms: O_22  and  C_23
REMARK    6  A    between atoms: C_23  and  C_24
REMARK    7  A    between atoms: C_28  and  C_29
REMARK    8  A    between atoms: C_30  and  C_32
REMARK                            x       y       z     vdW  Elec       q    Type
REMARK                         _______ _______ _______ _____ _____    ______ ____
ROOT
ATOM      1  C   LIG A   1      -7.848  -2.843 123.642  0.00  0.00    +0.041 C 
ATOM      2  C   LIG A   1      -6.969  -1.925 124.531  0.00  0.00    +0.068 C 
ATOM      3  C   LIG A   1      -5.714  -2.749 124.840  0.00  0.00    +0.041 C 
ATOM      4  C   LIG A   1      -7.851  -1.294 125.689  0.00  0.00    +0.036 C 
ATOM      5  C   LIG A   1      -7.572  -1.663 127.146  0.00  0.00    +0.052 C 
ATOM      6  O   LIG A   1      -6.563  -0.773 123.734  0.00  0.00    -0.369 OA
ATOM      7  C   LIG A   1      -7.633   0.154 123.857  0.00  0.00    +0.140 C 
ATOM      8  C   LIG A   1      -7.936   0.227 125.359  0.00  0.00    +0.041 C 
ATOM      9  C   LIG A   1      -9.386   0.747 125.317  0.00  0.00    +0.242 C 
ATOM     10  O   LIG A   1      -9.551   1.928 124.479  0.00  0.00    -0.464 OA
ATOM     11  C   LIG A   1      -6.921   1.178 126.217  0.00  0.00    +0.014 C 
ATOM     12  C   LIG A   1      -6.354   0.552 127.577  0.00  0.00    +0.041 C 
ATOM     13  C   LIG A   1      -5.947   1.617 128.675  0.00  0.00    +0.125 C 
ATOM     14  O   LIG A   1      -4.513   1.709 128.813  0.00  0.00    -0.351 OA
ATOM     15  C   LIG A   1      -5.211   1.215 129.951  0.00  0.00    +0.260 C 
ATOM     16  C   LIG A   1      -5.042  -0.205 127.202  0.00  0.00    +0.018 C 
ATOM     17  C   LIG A   1      -7.396  -0.476 128.109  0.00  0.00    +0.186 C 
ATOM     18  C   LIG A   1      -7.485   2.614 126.402  0.00  0.00    +0.006 C 
ATOM     19  C   LIG A   1      -6.663   3.525 127.293  0.00  0.00    +0.014 C 
ATOM     20  C   LIG A   1      -6.594   2.991 128.724  0.00  0.00    +0.042 C 
ATOM     21  C   LIG A   1      -8.013   2.889 129.344  0.00  0.00    +0.018 C 
ATOM     22  C   LIG A   1      -5.775   3.971 129.654  0.00  0.00    +0.218 C 
ATOM     23  O   LIG A   1      -5.562   3.403 130.972  0.00  0.00    -0.454 OA
ATOM     24  C   LIG A   1      -5.197   2.101 131.141  0.00  0.00    +0.340 C 
ATOM     25  O   LIG A   1      -4.919   1.641 132.236  0.00  0.00    -0.248 OA
ATOM     26  C   LIG A   1      -7.481   1.496 123.209  0.00  0.00    +0.152 C 
ATOM     27  C   LIG A   1      -8.764   2.265 123.418  0.00  0.00    +0.310 C 
ATOM     28  O   LIG A   1      -9.055   3.222 122.707  0.00  0.00    -0.251 OA
ENDROOT
BRANCH  22  29
ATOM     29  C   LIG A   1      -4.506   4.601 129.116  0.00  0.00    +0.031 A 
ATOM     30  C   LIG A   1      -3.298   4.800 129.762  0.00  0.00    +0.202 A 
ATOM     31  O   LIG A   1      -2.396   5.407 128.954  0.00  0.00    -0.471 OA
ATOM     32  C   LIG A   1      -3.023   5.647 127.779  0.00  0.00    +0.195 A 
ATOM     33  C   LIG A   1      -4.320   5.191 127.827  0.00  0.00    +0.048 A 
ENDBRANCH  22  29
BRANCH  17  34
ATOM     34  O   LIG A   1      -6.961  -1.059 129.364  0.00  0.00    -0.461 OA
BRANCH  34  35
ATOM     35  C   LIG A   1      -7.921  -1.532 130.207  0.00  0.00    +0.304 C 
ATOM     36  C   LIG A   1      -8.507  -0.408 131.011  0.00  0.00    +0.136 C 
ATOM     37  O   LIG A   1      -8.276  -2.698 130.286  0.00  0.00    -0.251 OA
ENDBRANCH  34  35
ENDBRANCH  17  34
TORSDOF 3
ENDMDL
MODEL 7
REMARK VINA RESULT:      -8.2      2.721      7.071
REMARK  Name = NuBBE_1271
REMARK  8 active torsions:
REMARK  status: ('A' for Active; 'I' for Inactive)
REMARK    1  A    between atoms: C_1  and  C_2
REMARK    2  A    between atoms: C_2  and  C_3
REMARK    3  A    between atoms: C_15  and  C_20
REMARK    4  A    between atoms: C_21  and  O_22
REMARK    5  A    between atoms: O_22  and  C_23
REMARK    6  A    between atoms: C_23  and  C_24
REMARK    7  A    between atoms: C_28  and  C_29
REMARK    8  A    between atoms: C_30  and  C_32
REMARK                            x       y       z     vdW  Elec       q    Type
REMARK                         _______ _______ _______ _____ _____    ______ ____
ROOT
ATOM      1  C   LIG A   1      -3.466   7.473 131.554  0.00  0.00    +0.041 C 
ATOM      2  C   LIG A   1      -3.745   5.948 131.629  0.00  0.00    +0.068 C 
ATOM      3  C   LIG A   1      -2.392   5.310 131.960  0.00  0.00    +0.041 C 
ATOM      4  C   LIG A   1      -4.588   5.494 130.364  0.00  0.00    +0.036 C 
ATOM      5  C   LIG A   1      -3.970   4.542 129.339  0.00  0.00    +0.052 C 
ATOM      6  O   LIG A   1      -4.642   5.705 132.752  0.00  0.00    -0.369 OA
ATOM      7  C   LIG A   1      -5.948   5.906 132.229  0.00  0.00    +0.140 C 
ATOM      8  C   LIG A   1      -5.990   5.104 130.923  0.00  0.00    +0.041 C 
ATOM      9  C   LIG A   1      -7.142   5.827 130.198  0.00  0.00    +0.242 C 
ATOM     10  O   LIG A   1      -8.342   5.960 131.014  0.00  0.00    -0.464 OA
ATOM     11  C   LIG A   1      -6.236   3.500 131.111  0.00  0.00    +0.014 C 
ATOM     12  C   LIG A   1      -5.268   2.538 130.275  0.00  0.00    +0.041 C 
ATOM     13  C   LIG A   1      -5.878   1.116 129.939  0.00  0.00    +0.125 C 
ATOM     14  O   LIG A   1      -5.257   0.078 130.725  0.00  0.00    -0.351 OA
ATOM     15  C   LIG A   1      -5.034   0.003 129.321  0.00  0.00    +0.260 C 
ATOM     16  C   LIG A   1      -4.022   2.271 131.176  0.00  0.00    +0.018 C 
ATOM     17  C   LIG A   1      -4.813   3.301 128.995  0.00  0.00    +0.186 C 
ATOM     18  C   LIG A   1      -7.736   3.121 130.969  0.00  0.00    +0.006 C 
ATOM     19  C   LIG A   1      -8.037   1.635 131.006  0.00  0.00    +0.014 C 
ATOM     20  C   LIG A   1      -7.379   0.904 129.835  0.00  0.00    +0.042 C 
ATOM     21  C   LIG A   1      -7.902   1.450 128.479  0.00  0.00    +0.018 C 
ATOM     22  C   LIG A   1      -7.737  -0.636 129.857  0.00  0.00    +0.218 C 
ATOM     23  O   LIG A   1      -6.994  -1.371 128.851  0.00  0.00    -0.454 OA
ATOM     24  C   LIG A   1      -5.666  -1.150 128.636  0.00  0.00    +0.340 C 
ATOM     25  O   LIG A   1      -5.011  -1.830 127.864  0.00  0.00    -0.248 OA
ATOM     26  C   LIG A   1      -7.116   5.646 133.131  0.00  0.00    +0.152 C 
ATOM     27  C   LIG A   1      -8.377   5.996 132.377  0.00  0.00    +0.310 C 
ATOM     28  O   LIG A   1      -9.428   6.223 132.967  0.00  0.00    -0.251 OA
ENDROOT
BRANCH  22  29
ATOM     29  C   LIG A   1      -7.738  -1.368 131.184  0.00  0.00    +0.031 A 
ATOM     30  C   LIG A   1      -8.035  -0.875 132.443  0.00  0.00    +0.202 A 
ATOM     31  O   LIG A   1      -7.915  -1.833 133.393  0.00  0.00    -0.471 OA
ATOM     32  C   LIG A   1      -7.499  -2.958 132.764  0.00  0.00    +0.195 A 
ATOM     33  C   LIG A   1      -7.356  -2.726 131.415  0.00  0.00    +0.048 A 
ENDBRANCH  22  29
BRANCH  17  34
ATOM     34  O   LIG A   1      -3.958   2.472 128.169  0.00  0.00    -0.461 OA
BRANCH  34  35
ATOM     35  C   LIG A   1      -3.659   2.922 126.918  0.00  0.00    +0.304 C 
ATOM     36  C   LIG A   1      -2.172   3.035 126.748  0.00  0.00    +0.136 C 
ATOM     37  O   LIG A   1      -4.476   3.177 126.047  0.00  0.00    -0.251 OA
ENDBRANCH  34  35
ENDBRANCH  17  34
TORSDOF 3
ENDMDL
MODEL 8
REMARK VINA RESULT:      -8.2      2.563      7.223
REMARK  Name = NuBBE_1271
REMARK  8 active torsions:
REMARK  status: ('A' for Active; 'I' for Inactive)
REMARK    1  A    between atoms: C_1  and  C_2
REMARK    2  A    between atoms: C_2  and  C_3
REMARK    3  A    between atoms: C_15  and  C_20
REMARK    4  A    between atoms: C_21  and  O_22
REMARK    5  A    between atoms: O_22  and  C_23
REMARK    6  A    between atoms: C_23  and  C_24
REMARK    7  A    between atoms: C_28  and  C_29
REMARK    8  A    between atoms: C_30  and  C_32
REMARK                            x       y       z     vdW  Elec       q    Type
REMARK                         _______ _______ _______ _____ _____    ______ ____
ROOT
ATOM      1  C   LIG A   1      -6.603   6.724 131.099  0.00  0.00    +0.041 C 
ATOM      2  C   LIG A   1      -7.108   5.282 130.827  0.00  0.00    +0.068 C 
ATOM      3  C   LIG A   1      -8.573   5.280 131.277  0.00  0.00    +0.041 C 
ATOM      4  C   LIG A   1      -6.064   4.231 131.395  0.00  0.00    +0.036 C 
ATOM      5  C   LIG A   1      -6.460   3.317 132.555  0.00  0.00    +0.052 C 
ATOM      6  O   LIG A   1      -7.082   5.056 129.386  0.00  0.00    -0.369 OA
ATOM      7  C   LIG A   1      -5.755   4.631 129.106  0.00  0.00    +0.140 C 
ATOM      8  C   LIG A   1      -5.451   3.541 130.140  0.00  0.00    +0.041 C 
ATOM      9  C   LIG A   1      -3.910   3.582 130.131  0.00  0.00    +0.242 C 
ATOM     10  O   LIG A   1      -3.340   3.501 128.793  0.00  0.00    -0.464 OA
ATOM     11  C   LIG A   1      -6.071   2.070 129.788  0.00  0.00    +0.014 C 
ATOM     12  C   LIG A   1      -6.826   1.323 130.985  0.00  0.00    +0.041 C 
ATOM     13  C   LIG A   1      -6.838  -0.257 130.875  0.00  0.00    +0.125 C 
ATOM     14  O   LIG A   1      -8.148  -0.751 130.527  0.00  0.00    -0.351 OA
ATOM     15  C   LIG A   1      -7.672  -1.123 131.815  0.00  0.00    +0.260 C 
ATOM     16  C   LIG A   1      -8.319   1.771 130.916  0.00  0.00    +0.018 C 
ATOM     17  C   LIG A   1      -6.212   1.815 132.330  0.00  0.00    +0.186 C 
ATOM     18  C   LIG A   1      -5.040   1.163 129.063  0.00  0.00    +0.006 C 
ATOM     19  C   LIG A   1      -5.494  -0.263 128.811  0.00  0.00    +0.014 C 
ATOM     20  C   LIG A   1      -5.750  -1.005 130.122  0.00  0.00    +0.042 C 
ATOM     21  C   LIG A   1      -4.459  -1.073 130.981  0.00  0.00    +0.018 C 
ATOM     22  C   LIG A   1      -6.177  -2.503 129.850  0.00  0.00    +0.218 C 
ATOM     23  O   LIG A   1      -6.579  -3.174 131.072  0.00  0.00    -0.454 OA
ATOM     24  C   LIG A   1      -7.379  -2.566 131.994  0.00  0.00    +0.340 C 
ATOM     25  O   LIG A   1      -7.804  -3.155 132.974  0.00  0.00    -0.248 OA
ATOM     26  C   LIG A   1      -5.426   4.234 127.699  0.00  0.00    +0.152 C 
ATOM     27  C   LIG A   1      -3.955   3.895 127.642  0.00  0.00    +0.310 C 
ATOM     28  O   LIG A   1      -3.345   3.888 126.576  0.00  0.00    -0.251 OA
ENDROOT
BRANCH  22  29
ATOM     29  C   LIG A   1      -7.143  -2.794 128.719  0.00  0.00    +0.031 A 
ATOM     30  C   LIG A   1      -7.176  -2.246 127.448  0.00  0.00    +0.202 A 
ATOM     31  O   LIG A   1      -8.199  -2.750 126.716  0.00  0.00    -0.471 OA
ATOM     32  C   LIG A   1      -8.870  -3.607 127.521  0.00  0.00    +0.195 A 
ATOM     33  C   LIG A   1      -8.280  -3.660 128.762  0.00  0.00    +0.048 A 
ENDBRANCH  22  29
BRANCH  17  34
ATOM     34  O   LIG A   1      -6.828   1.148 133.460  0.00  0.00    -0.461 OA
BRANCH  34  35
ATOM     35  C   LIG A   1      -6.012   0.463 134.310  0.00  0.00    +0.304 C 
ATOM     36  C   LIG A   1      -4.590   0.914 134.143  0.00  0.00    +0.136 C 
ATOM     37  O   LIG A   1      -6.380  -0.380 135.113  0.00  0.00    -0.251 OA
ENDBRANCH  34  35
ENDBRANCH  17  34
TORSDOF 3
ENDMDL
MODEL 9
REMARK VINA RESULT:      -8.2      1.726      7.231
REMARK  Name = NuBBE_1271
REMARK  8 active torsions:
REMARK  status: ('A' for Active; 'I' for Inactive)
REMARK    1  A    between atoms: C_1  and  C_2
REMARK    2  A    between atoms: C_2  and  C_3
REMARK    3  A    between atoms: C_15  and  C_20
REMARK    4  A    between atoms: C_21  and  O_22
REMARK    5  A    between atoms: O_22  and  C_23
REMARK    6  A    between atoms: C_23  and  C_24
REMARK    7  A    between atoms: C_28  and  C_29
REMARK    8  A    between atoms: C_30  and  C_32
REMARK                            x       y       z     vdW  Elec       q    Type
REMARK                         _______ _______ _______ _____ _____    ______ ____
ROOT
ATOM      1  C   LIG A   1      -6.711   5.467 130.345  0.00  0.00    +0.041 C 
ATOM      2  C   LIG A   1      -7.192   4.346 129.385  0.00  0.00    +0.068 C 
ATOM      3  C   LIG A   1      -8.717   4.494 129.331  0.00  0.00    +0.041 C 
ATOM      4  C   LIG A   1      -6.506   2.971 129.778  0.00  0.00    +0.036 C 
ATOM      5  C   LIG A   1      -7.361   1.817 130.302  0.00  0.00    +0.052 C 
ATOM      6  O   LIG A   1      -6.667   4.631 128.055  0.00  0.00    -0.369 OA
ATOM      7  C   LIG A   1      -5.365   4.063 128.045  0.00  0.00    +0.140 C 
ATOM      8  C   LIG A   1      -5.536   2.645 128.602  0.00  0.00    +0.041 C 
ATOM      9  C   LIG A   1      -4.097   2.365 129.078  0.00  0.00    +0.242 C 
ATOM     10  O   LIG A   1      -3.091   2.634 128.058  0.00  0.00    -0.464 OA
ATOM     11  C   LIG A   1      -6.098   1.550 127.528  0.00  0.00    +0.014 C 
ATOM     12  C   LIG A   1      -7.287   0.609 128.041  0.00  0.00    +0.041 C 
ATOM     13  C   LIG A   1      -7.379  -0.796 127.316  0.00  0.00    +0.125 C 
ATOM     14  O   LIG A   1      -8.510  -0.855 126.422  0.00  0.00    -0.351 OA
ATOM     15  C   LIG A   1      -8.559  -1.740 127.536  0.00  0.00    +0.260 C 
ATOM     16  C   LIG A   1      -8.617   1.355 127.706  0.00  0.00    +0.018 C 
ATOM     17  C   LIG A   1      -7.162   0.468 129.587  0.00  0.00    +0.186 C 
ATOM     18  C   LIG A   1      -4.947   0.755 126.851  0.00  0.00    +0.006 C 
ATOM     19  C   LIG A   1      -5.387  -0.368 125.932  0.00  0.00    +0.014 C 
ATOM     20  C   LIG A   1      -6.153  -1.448 126.697  0.00  0.00    +0.042 C 
ATOM     21  C   LIG A   1      -5.266  -2.074 127.806  0.00  0.00    +0.018 C 
ATOM     22  C   LIG A   1      -6.566  -2.635 125.739  0.00  0.00    +0.218 C 
ATOM     23  O   LIG A   1      -7.431  -3.587 126.411  0.00  0.00    -0.454 OA
ATOM     24  C   LIG A   1      -8.460  -3.182 127.208  0.00  0.00    +0.340 C 
ATOM     25  O   LIG A   1      -9.252  -3.971 127.696  0.00  0.00    -0.248 OA
ATOM     26  C   LIG A   1      -4.583   4.116 126.768  0.00  0.00    +0.152 C 
ATOM     27  C   LIG A   1      -3.220   3.519 127.029  0.00  0.00    +0.310 C 
ATOM     28  O   LIG A   1      -2.270   3.754 126.288  0.00  0.00    -0.251 OA
ENDROOT
BRANCH  22  29
ATOM     29  C   LIG A   1      -7.080  -2.310 124.350  0.00  0.00    +0.031 A 
ATOM     30  C   LIG A   1      -8.352  -2.491 123.836  0.00  0.00    +0.202 A 
ATOM     31  O   LIG A   1      -8.427  -2.089 122.544  0.00  0.00    -0.471 OA
ATOM     32  C   LIG A   1      -7.187  -1.675 122.191  0.00  0.00    +0.195 A 
ATOM     33  C   LIG A   1      -6.320  -1.804 123.250  0.00  0.00    +0.048 A 
ENDBRANCH  22  29
BRANCH  17  34
ATOM     34  O   LIG A   1      -8.192  -0.404 130.117  0.00  0.00    -0.461 OA
BRANCH  34  35
ATOM     35  C   LIG A   1      -7.902  -1.111 131.245  0.00  0.00    +0.304 C 
ATOM     36  C   LIG A   1      -7.276  -2.428 130.887  0.00  0.00    +0.136 C 
ATOM     37  O   LIG A   1      -8.097  -0.726 132.387  0.00  0.00    -0.251 OA
ENDBRANCH  34  35
ENDBRANCH  17  34
TORSDOF 3
ENDMDL
