MODEL 1
REMARK VINA RESULT:      -7.6      0.000      0.000
REMARK  Name = NuBBE_32
REMARK  13 active torsions:
REMARK  status: ('A' for Active; 'I' for Inactive)
REMARK    1  A    between atoms: O_1  and  C_2
REMARK    2  A    between atoms: C_6  and  C_7
REMARK    3  A    between atoms: C_6  and  C_13
REMARK    4  A    between atoms: C_8  and  C_9
REMARK    5  A    between atoms: C_10  and  C_11
REMARK    6  A    between atoms: C_10  and  C_12
REMARK    7  A    between atoms: C_16  and  C_17
REMARK    8  A    between atoms: C_17  and  C_18
REMARK    9  A    between atoms: C_19  and  C_20
REMARK   10  A    between atoms: C_19  and  C_21
REMARK   11  A    between atoms: C_22  and  C_23
REMARK   12  A    between atoms: C_24  and  C_25
REMARK   13  A    between atoms: C_25  and  O_26
REMARK                            x       y       z     vdW  Elec       q    Type
REMARK                         _______ _______ _______ _____ _____    ______ ____
ROOT
ATOM      1  C   LIG A   1      -5.560   2.627 125.612  0.00  0.00    +0.138 A 
ATOM      2  C   LIG A   1      -5.931   1.591 126.479  0.00  0.00    +0.037 A 
ATOM      3  C   LIG A   1      -7.113   0.887 126.227  0.00  0.00    +0.132 A 
ATOM      4  O   LIG A   1      -7.509  -0.182 126.995  0.00  0.00    -0.481 OA
ATOM      5  C   LIG A   1      -6.528  -0.780 127.866  0.00  0.00    +0.127 C 
ATOM      6  C   LIG A   1      -7.331  -1.583 128.903  0.00  0.00    +0.060 C 
ATOM      7  C   LIG A   1      -5.739   0.306 128.608  0.00  0.00    +0.057 C 
ATOM      8  C   LIG A   1      -5.035   1.227 127.630  0.00  0.00    +0.047 C 
ATOM      9  C   LIG A   1      -7.969   1.251 125.159  0.00  0.00    +0.002 A 
ATOM     10  C   LIG A   1      -7.566   2.276 124.258  0.00  0.00    -0.026 A 
ATOM     11  C   LIG A   1      -8.413   2.624 123.055  0.00  0.00    +0.045 C 
ATOM     12  C   LIG A   1      -6.358   2.980 124.506  0.00  0.00    +0.104 A 
ENDROOT
BRANCH   1  13
ATOM     13  O   LIG A   1      -4.379   3.267 125.903  0.00  0.00    -0.505 OA
ATOM     14  H   LIG A   1      -4.163   3.079 126.840  0.00  0.00    +0.292 HD
ENDBRANCH   1  13
BRANCH   5  15
ATOM     15  C   LIG A   1      -5.631  -1.758 127.109  0.00  0.00    +0.020 C 
ATOM     16  C   LIG A   1      -5.906  -2.306 125.911  0.00  0.00    -0.000 C 
BRANCH  16  17
ATOM     17  C   LIG A   1      -5.041  -3.271 125.264  0.00  0.00    -0.002 C 
ATOM     18  C   LIG A   1      -4.878  -3.460 123.939  0.00  0.00    -0.076 C 
ATOM     19  C   LIG A   1      -5.519  -2.656 122.843  0.00  0.00    +0.038 C 
ATOM     20  C   LIG A   1      -3.991  -4.563 123.422  0.00  0.00    +0.038 C 
ENDBRANCH  16  17
ENDBRANCH   5  15
BRANCH  12  21
ATOM     21  C   LIG A   1      -5.944   4.108 123.629  0.00  0.00    +0.341 C 
ATOM     22  O   LIG A   1      -5.482   4.045 122.499  0.00  0.00    -0.245 OA
BRANCH  21  23
ATOM     23  O   LIG A   1      -6.097   5.307 124.227  0.00  0.00    -0.477 OA
ATOM     24  H   LIG A   1      -6.612   5.826 123.572  0.00  0.00    +0.295 HD
ENDBRANCH  21  23
ENDBRANCH  12  21
BRANCH   9  25
ATOM     25  C   LIG A   1      -9.298   0.516 124.992  0.00  0.00    +0.066 C 
BRANCH  25  26
ATOM     26  C   LIG A   1      -9.206  -0.678 124.075  0.00  0.00    -0.023 C 
ATOM     27  C   LIG A   1      -9.266  -1.982 124.411  0.00  0.00    -0.079 C 
ATOM     28  C   LIG A   1      -9.463  -2.498 125.810  0.00  0.00    +0.038 C 
ATOM     29  C   LIG A   1      -9.106  -3.060 123.372  0.00  0.00    +0.038 C 
ENDBRANCH  25  26
ENDBRANCH   9  25
TORSDOF 7
ENDMDL
MODEL 2
REMARK VINA RESULT:      -7.1      2.577      4.575
REMARK  Name = NuBBE_32
REMARK  13 active torsions:
REMARK  status: ('A' for Active; 'I' for Inactive)
REMARK    1  A    between atoms: O_1  and  C_2
REMARK    2  A    between atoms: C_6  and  C_7
REMARK    3  A    between atoms: C_6  and  C_13
REMARK    4  A    between atoms: C_8  and  C_9
REMARK    5  A    between atoms: C_10  and  C_11
REMARK    6  A    between atoms: C_10  and  C_12
REMARK    7  A    between atoms: C_16  and  C_17
REMARK    8  A    between atoms: C_17  and  C_18
REMARK    9  A    between atoms: C_19  and  C_20
REMARK   10  A    between atoms: C_19  and  C_21
REMARK   11  A    between atoms: C_22  and  C_23
REMARK   12  A    between atoms: C_24  and  C_25
REMARK   13  A    between atoms: C_25  and  O_26
REMARK                            x       y       z     vdW  Elec       q    Type
REMARK                         _______ _______ _______ _____ _____    ______ ____
ROOT
ATOM      1  C   LIG A   1      -9.008   1.552 125.248  0.00  0.00    +0.138 A 
ATOM      2  C   LIG A   1      -8.404   1.216 126.465  0.00  0.00    +0.037 A 
ATOM      3  C   LIG A   1      -7.979  -0.101 126.670  0.00  0.00    +0.132 A 
ATOM      4  O   LIG A   1      -7.320  -0.492 127.811  0.00  0.00    -0.481 OA
ATOM      5  C   LIG A   1      -6.778   0.541 128.658  0.00  0.00    +0.127 C 
ATOM      6  C   LIG A   1      -6.548  -0.123 130.025  0.00  0.00    +0.060 C 
ATOM      7  C   LIG A   1      -7.800   1.671 128.842  0.00  0.00    +0.057 C 
ATOM      8  C   LIG A   1      -8.181   2.278 127.505  0.00  0.00    +0.047 C 
ATOM      9  C   LIG A   1      -8.215  -1.106 125.700  0.00  0.00    +0.002 A 
ATOM     10  C   LIG A   1      -8.791  -0.749 124.449  0.00  0.00    -0.026 A 
ATOM     11  C   LIG A   1      -8.971  -1.780 123.358  0.00  0.00    +0.045 C 
ATOM     12  C   LIG A   1      -9.208   0.591 124.236  0.00  0.00    +0.104 A 
ENDROOT
BRANCH   1  13
ATOM     13  O   LIG A   1      -9.386   2.866 125.102  0.00  0.00    -0.505 OA
ATOM     14  H   LIG A   1      -8.645   3.424 125.416  0.00  0.00    +0.292 HD
ENDBRANCH   1  13
BRANCH   5  15
ATOM     15  C   LIG A   1      -5.428   1.035 128.143  0.00  0.00    +0.020 C 
ATOM     16  C   LIG A   1      -4.724   2.062 128.651  0.00  0.00    -0.000 C 
BRANCH  16  17
ATOM     17  C   LIG A   1      -3.471   2.521 128.087  0.00  0.00    -0.002 C 
ATOM     18  C   LIG A   1      -3.290   3.155 126.911  0.00  0.00    -0.076 C 
ATOM     19  C   LIG A   1      -4.370   3.580 125.957  0.00  0.00    +0.038 C 
ATOM     20  C   LIG A   1      -1.905   3.501 126.429  0.00  0.00    +0.038 C 
ENDBRANCH  16  17
ENDBRANCH   5  15
BRANCH  12  21
ATOM     21  C   LIG A   1      -9.885   0.984 122.971  0.00  0.00    +0.341 C 
ATOM     22  O   LIG A   1     -10.874   0.476 122.465  0.00  0.00    -0.245 OA
BRANCH  21  23
ATOM     23  O   LIG A   1      -9.261   2.005 122.350  0.00  0.00    -0.477 OA
ATOM     24  H   LIG A   1      -9.125   1.671 121.437  0.00  0.00    +0.295 HD
ENDBRANCH  21  23
ENDBRANCH  12  21
BRANCH   9  25
ATOM     25  C   LIG A   1      -7.824  -2.548 126.017  0.00  0.00    +0.066 C 
BRANCH  25  26
ATOM     26  C   LIG A   1      -8.907  -3.314 126.735  0.00  0.00    -0.023 C 
ATOM     27  C   LIG A   1      -8.906  -3.742 128.013  0.00  0.00    -0.079 C 
ATOM     28  C   LIG A   1      -7.790  -3.507 128.994  0.00  0.00    +0.038 C 
ATOM     29  C   LIG A   1     -10.056  -4.542 128.566  0.00  0.00    +0.038 C 
ENDBRANCH  25  26
ENDBRANCH   9  25
TORSDOF 7
ENDMDL
MODEL 3
REMARK VINA RESULT:      -7.1      2.222      4.475
REMARK  Name = NuBBE_32
REMARK  13 active torsions:
REMARK  status: ('A' for Active; 'I' for Inactive)
REMARK    1  A    between atoms: O_1  and  C_2
REMARK    2  A    between atoms: C_6  and  C_7
REMARK    3  A    between atoms: C_6  and  C_13
REMARK    4  A    between atoms: C_8  and  C_9
REMARK    5  A    between atoms: C_10  and  C_11
REMARK    6  A    between atoms: C_10  and  C_12
REMARK    7  A    between atoms: C_16  and  C_17
REMARK    8  A    between atoms: C_17  and  C_18
REMARK    9  A    between atoms: C_19  and  C_20
REMARK   10  A    between atoms: C_19  and  C_21
REMARK   11  A    between atoms: C_22  and  C_23
REMARK   12  A    between atoms: C_24  and  C_25
REMARK   13  A    between atoms: C_25  and  O_26
REMARK                            x       y       z     vdW  Elec       q    Type
REMARK                         _______ _______ _______ _____ _____    ______ ____
ROOT
ATOM      1  C   LIG A   1      -9.121   1.431 125.186  0.00  0.00    +0.138 A 
ATOM      2  C   LIG A   1      -8.580   0.986 126.397  0.00  0.00    +0.037 A 
ATOM      3  C   LIG A   1      -8.185  -0.351 126.512  0.00  0.00    +0.132 A 
ATOM      4  O   LIG A   1      -7.587  -0.846 127.647  0.00  0.00    -0.481 OA
ATOM      5  C   LIG A   1      -7.072   0.104 128.600  0.00  0.00    +0.127 C 
ATOM      6  C   LIG A   1      -6.916  -0.674 129.917  0.00  0.00    +0.060 C 
ATOM      7  C   LIG A   1      -8.085   1.234 128.830  0.00  0.00    +0.057 C 
ATOM      8  C   LIG A   1      -8.393   1.955 127.531  0.00  0.00    +0.047 C 
ATOM      9  C   LIG A   1      -8.388  -1.269 125.452  0.00  0.00    +0.002 A 
ATOM     10  C   LIG A   1      -8.899  -0.800 124.210  0.00  0.00    -0.026 A 
ATOM     11  C   LIG A   1      -9.040  -1.734 123.030  0.00  0.00    +0.045 C 
ATOM     12  C   LIG A   1      -9.286   0.561 124.090  0.00  0.00    +0.104 A 
ENDROOT
BRANCH   1  13
ATOM     13  O   LIG A   1      -9.472   2.760 125.131  0.00  0.00    -0.505 OA
ATOM     14  H   LIG A   1      -9.252   3.088 124.235  0.00  0.00    +0.292 HD
ENDBRANCH   1  13
BRANCH   5  15
ATOM     15  C   LIG A   1      -5.691   0.614 128.191  0.00  0.00    +0.020 C 
ATOM     16  C   LIG A   1      -5.115   1.749 128.626  0.00  0.00    -0.000 C 
BRANCH  16  17
ATOM     17  C   LIG A   1      -3.823   2.211 128.162  0.00  0.00    -0.002 C 
ATOM     18  C   LIG A   1      -3.554   2.862 127.012  0.00  0.00    -0.076 C 
ATOM     19  C   LIG A   1      -4.560   3.307 125.989  0.00  0.00    +0.038 C 
ATOM     20  C   LIG A   1      -2.137   3.209 126.638  0.00  0.00    +0.038 C 
ENDBRANCH  16  17
ENDBRANCH   5  15
BRANCH  12  21
ATOM     21  C   LIG A   1      -9.895   1.068 122.831  0.00  0.00    +0.341 C 
ATOM     22  O   LIG A   1      -9.455   1.927 122.081  0.00  0.00    -0.245 OA
BRANCH  21  23
ATOM     23  O   LIG A   1     -11.084   0.489 122.565  0.00  0.00    -0.477 OA
ATOM     24  H   LIG A   1     -11.529   1.138 121.980  0.00  0.00    +0.295 HD
ENDBRANCH  21  23
ENDBRANCH  12  21
BRANCH   9  25
ATOM     25  C   LIG A   1      -8.033  -2.739 125.667  0.00  0.00    +0.066 C 
BRANCH  25  26
ATOM     26  C   LIG A   1      -6.985  -3.244 124.708  0.00  0.00    -0.023 C 
ATOM     27  C   LIG A   1      -5.757  -2.732 124.485  0.00  0.00    -0.079 C 
ATOM     28  C   LIG A   1      -5.185  -1.536 125.194  0.00  0.00    +0.038 C 
ATOM     29  C   LIG A   1      -4.843  -3.331 123.448  0.00  0.00    +0.038 C 
ENDBRANCH  25  26
ENDBRANCH   9  25
TORSDOF 7
ENDMDL
MODEL 4
REMARK VINA RESULT:      -7.0      3.052      6.280
REMARK  Name = NuBBE_32
REMARK  13 active torsions:
REMARK  status: ('A' for Active; 'I' for Inactive)
REMARK    1  A    between atoms: O_1  and  C_2
REMARK    2  A    between atoms: C_6  and  C_7
REMARK    3  A    between atoms: C_6  and  C_13
REMARK    4  A    between atoms: C_8  and  C_9
REMARK    5  A    between atoms: C_10  and  C_11
REMARK    6  A    between atoms: C_10  and  C_12
REMARK    7  A    between atoms: C_16  and  C_17
REMARK    8  A    between atoms: C_17  and  C_18
REMARK    9  A    between atoms: C_19  and  C_20
REMARK   10  A    between atoms: C_19  and  C_21
REMARK   11  A    between atoms: C_22  and  C_23
REMARK   12  A    between atoms: C_24  and  C_25
REMARK   13  A    between atoms: C_25  and  O_26
REMARK                            x       y       z     vdW  Elec       q    Type
REMARK                         _______ _______ _______ _____ _____    ______ ____
ROOT
ATOM      1  C   LIG A   1      -8.981  -2.209 125.581  0.00  0.00    +0.138 A 
ATOM      2  C   LIG A   1      -8.312  -2.581 126.753  0.00  0.00    +0.037 A 
ATOM      3  C   LIG A   1      -7.136  -1.910 127.105  0.00  0.00    +0.132 A 
ATOM      4  O   LIG A   1      -6.459  -2.175 128.272  0.00  0.00    -0.481 OA
ATOM      5  C   LIG A   1      -7.152  -2.923 129.291  0.00  0.00    +0.127 C 
ATOM      6  C   LIG A   1      -6.055  -3.466 130.222  0.00  0.00    +0.060 C 
ATOM      7  C   LIG A   1      -7.886  -4.119 128.670  0.00  0.00    +0.057 C 
ATOM      8  C   LIG A   1      -8.889  -3.657 127.630  0.00  0.00    +0.047 C 
ATOM      9  C   LIG A   1      -6.579  -0.917 126.262  0.00  0.00    +0.002 A 
ATOM     10  C   LIG A   1      -7.286  -0.515 125.095  0.00  0.00    -0.026 A 
ATOM     11  C   LIG A   1      -6.766   0.607 124.224  0.00  0.00    +0.045 C 
ATOM     12  C   LIG A   1      -8.488  -1.186 124.746  0.00  0.00    +0.104 A 
ENDROOT
BRANCH   1  13
ATOM     13  O   LIG A   1     -10.140  -2.894 125.301  0.00  0.00    -0.505 OA
ATOM     14  H   LIG A   1     -10.167  -3.046 124.334  0.00  0.00    +0.292 HD
ENDBRANCH   1  13
BRANCH   5  15
ATOM     15  C   LIG A   1      -8.067  -2.025 130.119  0.00  0.00    +0.020 C 
ATOM     16  C   LIG A   1      -7.771  -0.782 130.541  0.00  0.00    -0.000 C 
BRANCH  16  17
ATOM     17  C   LIG A   1      -8.659   0.006 131.371  0.00  0.00    -0.002 C 
ATOM     18  C   LIG A   1      -9.012   1.295 131.194  0.00  0.00    -0.076 C 
ATOM     19  C   LIG A   1      -8.603   2.177 130.048  0.00  0.00    +0.038 C 
ATOM     20  C   LIG A   1      -9.892   1.997 132.196  0.00  0.00    +0.038 C 
ENDBRANCH  16  17
ENDBRANCH   5  15
BRANCH  12  21
ATOM     21  C   LIG A   1      -9.212  -0.844 123.493  0.00  0.00    +0.341 C 
ATOM     22  O   LIG A   1      -9.999   0.073 123.311  0.00  0.00    -0.245 OA
BRANCH  21  23
ATOM     23  O   LIG A   1      -8.944  -1.708 122.492  0.00  0.00    -0.477 OA
ATOM     24  H   LIG A   1      -9.823  -1.873 122.090  0.00  0.00    +0.295 HD
ENDBRANCH  21  23
ENDBRANCH  12  21
BRANCH   9  25
ATOM     25  C   LIG A   1      -5.240  -0.289 126.642  0.00  0.00    +0.066 C 
BRANCH  25  26
ATOM     26  C   LIG A   1      -5.371   0.826 127.650  0.00  0.00    -0.023 C 
ATOM     27  C   LIG A   1      -4.985   2.111 127.512  0.00  0.00    -0.079 C 
ATOM     28  C   LIG A   1      -4.350   2.687 126.277  0.00  0.00    +0.038 C 
ATOM     29  C   LIG A   1      -5.145   3.095 128.642  0.00  0.00    +0.038 C 
ENDBRANCH  25  26
ENDBRANCH   9  25
TORSDOF 7
ENDMDL
MODEL 5
REMARK VINA RESULT:      -6.8      3.225      5.349
REMARK  Name = NuBBE_32
REMARK  13 active torsions:
REMARK  status: ('A' for Active; 'I' for Inactive)
REMARK    1  A    between atoms: O_1  and  C_2
REMARK    2  A    between atoms: C_6  and  C_7
REMARK    3  A    between atoms: C_6  and  C_13
REMARK    4  A    between atoms: C_8  and  C_9
REMARK    5  A    between atoms: C_10  and  C_11
REMARK    6  A    between atoms: C_10  and  C_12
REMARK    7  A    between atoms: C_16  and  C_17
REMARK    8  A    between atoms: C_17  and  C_18
REMARK    9  A    between atoms: C_19  and  C_20
REMARK   10  A    between atoms: C_19  and  C_21
REMARK   11  A    between atoms: C_22  and  C_23
REMARK   12  A    between atoms: C_24  and  C_25
REMARK   13  A    between atoms: C_25  and  O_26
REMARK                            x       y       z     vdW  Elec       q    Type
REMARK                         _______ _______ _______ _____ _____    ______ ____
ROOT
ATOM      1  C   LIG A   1      -8.640   3.411 128.873  0.00  0.00    +0.138 A 
ATOM      2  C   LIG A   1      -7.683   2.662 128.179  0.00  0.00    +0.037 A 
ATOM      3  C   LIG A   1      -7.289   1.421 128.692  0.00  0.00    +0.132 A 
ATOM      4  O   LIG A   1      -6.404   0.601 128.035  0.00  0.00    -0.481 OA
ATOM      5  C   LIG A   1      -6.133   0.885 126.648  0.00  0.00    +0.127 C 
ATOM      6  C   LIG A   1      -4.815   0.160 126.327  0.00  0.00    +0.060 C 
ATOM      7  C   LIG A   1      -5.912   2.390 126.443  0.00  0.00    +0.057 C 
ATOM      8  C   LIG A   1      -7.132   3.179 126.879  0.00  0.00    +0.047 C 
ATOM      9  C   LIG A   1      -7.789   0.949 129.931  0.00  0.00    +0.002 A 
ATOM     10  C   LIG A   1      -8.792   1.696 130.610  0.00  0.00    -0.026 A 
ATOM     11  C   LIG A   1      -9.413   1.174 131.886  0.00  0.00    +0.045 C 
ATOM     12  C   LIG A   1      -9.202   2.948 130.080  0.00  0.00    +0.104 A 
ENDROOT
BRANCH   1  13
ATOM     13  O   LIG A   1      -8.997   4.611 128.307  0.00  0.00    -0.505 OA
ATOM     14  H   LIG A   1      -8.467   5.312 128.739  0.00  0.00    +0.292 HD
ENDBRANCH   1  13
BRANCH   5  15
ATOM     15  C   LIG A   1      -7.217   0.311 125.738  0.00  0.00    +0.020 C 
ATOM     16  C   LIG A   1      -7.680  -0.952 125.771  0.00  0.00    -0.000 C 
BRANCH  16  17
ATOM     17  C   LIG A   1      -8.673  -1.457 124.846  0.00  0.00    -0.002 C 
ATOM     18  C   LIG A   1      -8.719  -2.683 124.288  0.00  0.00    -0.076 C 
ATOM     19  C   LIG A   1      -7.772  -3.818 124.560  0.00  0.00    +0.038 C 
ATOM     20  C   LIG A   1      -9.784  -3.030 123.279  0.00  0.00    +0.038 C 
ENDBRANCH  16  17
ENDBRANCH   5  15
BRANCH  12  21
ATOM     21  C   LIG A   1     -10.192   3.790 130.803  0.00  0.00    +0.341 C 
ATOM     22  O   LIG A   1      -9.992   4.521 131.762  0.00  0.00    -0.245 OA
BRANCH  21  23
ATOM     23  O   LIG A   1     -11.439   3.658 130.307  0.00  0.00    -0.477 OA
ATOM     24  H   LIG A   1     -11.706   4.581 130.110  0.00  0.00    +0.295 HD
ENDBRANCH  21  23
ENDBRANCH  12  21
BRANCH   9  25
ATOM     25  C   LIG A   1      -7.248  -0.363 130.496  0.00  0.00    +0.066 C 
BRANCH  25  26
ATOM     26  C   LIG A   1      -7.965  -1.578 129.964  0.00  0.00    -0.023 C 
ATOM     27  C   LIG A   1      -7.464  -2.551 129.175  0.00  0.00    -0.079 C 
ATOM     28  C   LIG A   1      -6.044  -2.609 128.683  0.00  0.00    +0.038 C 
ATOM     29  C   LIG A   1      -8.333  -3.680 128.687  0.00  0.00    +0.038 C 
ENDBRANCH  25  26
ENDBRANCH   9  25
TORSDOF 7
ENDMDL
MODEL 6
REMARK VINA RESULT:      -6.8      7.347     10.271
REMARK  Name = NuBBE_32
REMARK  13 active torsions:
REMARK  status: ('A' for Active; 'I' for Inactive)
REMARK    1  A    between atoms: O_1  and  C_2
REMARK    2  A    between atoms: C_6  and  C_7
REMARK    3  A    between atoms: C_6  and  C_13
REMARK    4  A    between atoms: C_8  and  C_9
REMARK    5  A    between atoms: C_10  and  C_11
REMARK    6  A    between atoms: C_10  and  C_12
REMARK    7  A    between atoms: C_16  and  C_17
REMARK    8  A    between atoms: C_17  and  C_18
REMARK    9  A    between atoms: C_19  and  C_20
REMARK   10  A    between atoms: C_19  and  C_21
REMARK   11  A    between atoms: C_22  and  C_23
REMARK   12  A    between atoms: C_24  and  C_25
REMARK   13  A    between atoms: C_25  and  O_26
REMARK                            x       y       z     vdW  Elec       q    Type
REMARK                         _______ _______ _______ _____ _____    ______ ____
ROOT
ATOM      1  C   LIG A   1      -7.446   6.650 131.340  0.00  0.00    +0.138 A 
ATOM      2  C   LIG A   1      -6.059   6.816 131.428  0.00  0.00    +0.037 A 
ATOM      3  C   LIG A   1      -5.369   6.211 132.484  0.00  0.00    +0.132 A 
ATOM      4  O   LIG A   1      -4.001   6.275 132.601  0.00  0.00    -0.481 OA
ATOM      5  C   LIG A   1      -3.250   6.696 131.445  0.00  0.00    +0.127 C 
ATOM      6  C   LIG A   1      -1.874   7.127 131.980  0.00  0.00    +0.060 C 
ATOM      7  C   LIG A   1      -3.912   7.917 130.793  0.00  0.00    +0.057 C 
ATOM      8  C   LIG A   1      -5.333   7.598 130.368  0.00  0.00    +0.047 C 
ATOM      9  C   LIG A   1      -6.058   5.498 133.496  0.00  0.00    +0.002 A 
ATOM     10  C   LIG A   1      -7.461   5.298 133.377  0.00  0.00    -0.026 A 
ATOM     11  C   LIG A   1      -8.211   4.463 134.390  0.00  0.00    +0.045 C 
ATOM     12  C   LIG A   1      -8.158   5.900 132.297  0.00  0.00    +0.104 A 
ENDROOT
BRANCH   1  13
ATOM     13  O   LIG A   1      -8.062   7.253 130.269  0.00  0.00    -0.505 OA
ATOM     14  H   LIG A   1      -8.787   6.666 129.974  0.00  0.00    +0.292 HD
ENDBRANCH   1  13
BRANCH   5  15
ATOM     15  C   LIG A   1      -3.032   5.542 130.469  0.00  0.00    +0.020 C 
ATOM     16  C   LIG A   1      -2.616   5.661 129.195  0.00  0.00    -0.000 C 
BRANCH  16  17
ATOM     17  C   LIG A   1      -2.478   4.533 128.297  0.00  0.00    -0.002 C 
ATOM     18  C   LIG A   1      -3.332   4.156 127.323  0.00  0.00    -0.076 C 
ATOM     19  C   LIG A   1      -4.589   4.874 126.920  0.00  0.00    +0.038 C 
ATOM     20  C   LIG A   1      -3.081   2.906 126.521  0.00  0.00    +0.038 C 
ENDBRANCH  16  17
ENDBRANCH   5  15
BRANCH  12  21
ATOM     21  C   LIG A   1      -9.637   5.775 132.184  0.00  0.00    +0.341 C 
ATOM     22  O   LIG A   1     -10.271   5.105 131.382  0.00  0.00    -0.245 OA
BRANCH  21  23
ATOM     23  O   LIG A   1     -10.287   6.542 133.082  0.00  0.00    -0.477 OA
ATOM     24  H   LIG A   1      -9.601   7.176 133.381  0.00  0.00    +0.295 HD
ENDBRANCH  21  23
ENDBRANCH  12  21
BRANCH   9  25
ATOM     25  C   LIG A   1      -5.268   4.945 134.681  0.00  0.00    +0.066 C 
BRANCH  25  26
ATOM     26  C   LIG A   1      -4.774   6.019 135.618  0.00  0.00    -0.023 C 
ATOM     27  C   LIG A   1      -5.432   6.572 136.657  0.00  0.00    -0.079 C 
ATOM     28  C   LIG A   1      -6.818   6.188 137.096  0.00  0.00    +0.038 C 
ATOM     29  C   LIG A   1      -4.810   7.677 137.470  0.00  0.00    +0.038 C 
ENDBRANCH  25  26
ENDBRANCH   9  25
TORSDOF 7
ENDMDL
MODEL 7
REMARK VINA RESULT:      -6.8      6.498      9.439
REMARK  Name = NuBBE_32
REMARK  13 active torsions:
REMARK  status: ('A' for Active; 'I' for Inactive)
REMARK    1  A    between atoms: O_1  and  C_2
REMARK    2  A    between atoms: C_6  and  C_7
REMARK    3  A    between atoms: C_6  and  C_13
REMARK    4  A    between atoms: C_8  and  C_9
REMARK    5  A    between atoms: C_10  and  C_11
REMARK    6  A    between atoms: C_10  and  C_12
REMARK    7  A    between atoms: C_16  and  C_17
REMARK    8  A    between atoms: C_17  and  C_18
REMARK    9  A    between atoms: C_19  and  C_20
REMARK   10  A    between atoms: C_19  and  C_21
REMARK   11  A    between atoms: C_22  and  C_23
REMARK   12  A    between atoms: C_24  and  C_25
REMARK   13  A    between atoms: C_25  and  O_26
REMARK                            x       y       z     vdW  Elec       q    Type
REMARK                         _______ _______ _______ _____ _____    ______ ____
ROOT
ATOM      1  C   LIG A   1      -7.157   6.780 131.307  0.00  0.00    +0.138 A 
ATOM      2  C   LIG A   1      -5.761   6.868 131.359  0.00  0.00    +0.037 A 
ATOM      3  C   LIG A   1      -5.072   6.137 132.333  0.00  0.00    +0.132 A 
ATOM      4  O   LIG A   1      -3.699   6.122 132.406  0.00  0.00    -0.481 OA
ATOM      5  C   LIG A   1      -2.963   6.606 131.264  0.00  0.00    +0.127 C 
ATOM      6  C   LIG A   1      -1.550   6.917 131.785  0.00  0.00    +0.060 C 
ATOM      7  C   LIG A   1      -3.580   7.912 130.745  0.00  0.00    +0.057 C 
ATOM      8  C   LIG A   1      -5.029   7.704 130.347  0.00  0.00    +0.047 C 
ATOM      9  C   LIG A   1      -5.765   5.373 133.303  0.00  0.00    +0.002 A 
ATOM     10  C   LIG A   1      -7.181   5.255 133.218  0.00  0.00    -0.026 A 
ATOM     11  C   LIG A   1      -7.942   4.373 134.182  0.00  0.00    +0.045 C 
ATOM     12  C   LIG A   1      -7.878   5.985 132.220  0.00  0.00    +0.104 A 
ENDROOT
BRANCH   1  13
ATOM     13  O   LIG A   1      -7.773   7.507 130.316  0.00  0.00    -0.505 OA
ATOM     14  H   LIG A   1      -7.084   7.776 129.674  0.00  0.00    +0.292 HD
ENDBRANCH   1  13
BRANCH   5  15
ATOM     15  C   LIG A   1      -2.839   5.533 130.185  0.00  0.00    +0.020 C 
ATOM     16  C   LIG A   1      -2.468   5.746 128.909  0.00  0.00    -0.000 C 
BRANCH  16  17
ATOM     17  C   LIG A   1      -2.419   4.696 127.912  0.00  0.00    -0.002 C 
ATOM     18  C   LIG A   1      -3.426   4.275 127.120  0.00  0.00    -0.076 C 
ATOM     19  C   LIG A   1      -4.809   4.858 127.060  0.00  0.00    +0.038 C 
ATOM     20  C   LIG A   1      -3.232   3.113 126.181  0.00  0.00    +0.038 C 
ENDBRANCH  16  17
ENDBRANCH   5  15
BRANCH  12  21
ATOM     21  C   LIG A   1      -9.364   5.946 132.150  0.00  0.00    +0.341 C 
ATOM     22  O   LIG A   1     -10.161   6.502 132.891  0.00  0.00    -0.245 OA
BRANCH  21  23
ATOM     23  O   LIG A   1      -9.811   5.164 131.148  0.00  0.00    -0.477 OA
ATOM     24  H   LIG A   1      -8.988   4.864 130.706  0.00  0.00    +0.295 HD
ENDBRANCH  21  23
ENDBRANCH  12  21
BRANCH   9  25
ATOM     25  C   LIG A   1      -4.969   4.679 134.406  0.00  0.00    +0.066 C 
BRANCH  25  26
ATOM     26  C   LIG A   1      -4.745   3.211 134.143  0.00  0.00    -0.023 C 
ATOM     27  C   LIG A   1      -3.663   2.629 133.588  0.00  0.00    -0.079 C 
ATOM     28  C   LIG A   1      -2.432   3.365 133.134  0.00  0.00    +0.038 C 
ATOM     29  C   LIG A   1      -3.618   1.143 133.348  0.00  0.00    +0.038 C 
ENDBRANCH  25  26
ENDBRANCH   9  25
TORSDOF 7
ENDMDL
MODEL 8
REMARK VINA RESULT:      -6.7      2.589      6.092
REMARK  Name = NuBBE_32
REMARK  13 active torsions:
REMARK  status: ('A' for Active; 'I' for Inactive)
REMARK    1  A    between atoms: O_1  and  C_2
REMARK    2  A    between atoms: C_6  and  C_7
REMARK    3  A    between atoms: C_6  and  C_13
REMARK    4  A    between atoms: C_8  and  C_9
REMARK    5  A    between atoms: C_10  and  C_11
REMARK    6  A    between atoms: C_10  and  C_12
REMARK    7  A    between atoms: C_16  and  C_17
REMARK    8  A    between atoms: C_17  and  C_18
REMARK    9  A    between atoms: C_19  and  C_20
REMARK   10  A    between atoms: C_19  and  C_21
REMARK   11  A    between atoms: C_22  and  C_23
REMARK   12  A    between atoms: C_24  and  C_25
REMARK   13  A    between atoms: C_25  and  O_26
REMARK                            x       y       z     vdW  Elec       q    Type
REMARK                         _______ _______ _______ _____ _____    ______ ____
ROOT
ATOM      1  C   LIG A   1      -7.091  -0.774 125.062  0.00  0.00    +0.138 A 
ATOM      2  C   LIG A   1      -6.421   0.417 125.368  0.00  0.00    +0.037 A 
ATOM      3  C   LIG A   1      -6.869   1.612 124.796  0.00  0.00    +0.132 A 
ATOM      4  O   LIG A   1      -6.305   2.829 125.099  0.00  0.00    -0.481 OA
ATOM      5  C   LIG A   1      -5.457   2.902 126.262  0.00  0.00    +0.127 C 
ATOM      6  C   LIG A   1      -4.620   4.179 126.084  0.00  0.00    +0.060 C 
ATOM      7  C   LIG A   1      -4.499   1.704 126.302  0.00  0.00    +0.057 C 
ATOM      8  C   LIG A   1      -5.269   0.397 126.334  0.00  0.00    +0.047 C 
ATOM      9  C   LIG A   1      -7.937   1.624 123.865  0.00  0.00    +0.002 A 
ATOM     10  C   LIG A   1      -8.639   0.417 123.591  0.00  0.00    -0.026 A 
ATOM     11  C   LIG A   1      -9.840   0.413 122.674  0.00  0.00    +0.045 C 
ATOM     12  C   LIG A   1      -8.192  -0.793 124.184  0.00  0.00    +0.104 A 
ENDROOT
BRANCH   1  13
ATOM     13  O   LIG A   1      -6.613  -1.911 125.670  0.00  0.00    -0.505 OA
ATOM     14  H   LIG A   1      -6.025  -1.631 126.402  0.00  0.00    +0.292 HD
ENDBRANCH   1  13
BRANCH   5  15
ATOM     15  C   LIG A   1      -6.277   3.054 127.542  0.00  0.00    +0.020 C 
ATOM     16  C   LIG A   1      -7.588   3.353 127.601  0.00  0.00    -0.000 C 
BRANCH  16  17
ATOM     17  C   LIG A   1      -8.303   3.537 128.847  0.00  0.00    -0.002 C 
ATOM     18  C   LIG A   1      -8.641   2.587 129.743  0.00  0.00    -0.076 C 
ATOM     19  C   LIG A   1      -8.285   1.130 129.665  0.00  0.00    +0.038 C 
ATOM     20  C   LIG A   1      -9.456   2.933 130.961  0.00  0.00    +0.038 C 
ENDBRANCH  16  17
ENDBRANCH   5  15
BRANCH  12  21
ATOM     21  C   LIG A   1      -8.855  -2.086 123.860  0.00  0.00    +0.341 C 
ATOM     22  O   LIG A   1      -8.757  -2.737 122.831  0.00  0.00    -0.245 OA
BRANCH  21  23
ATOM     23  O   LIG A   1      -9.663  -2.511 124.851  0.00  0.00    -0.477 OA
ATOM     24  H   LIG A   1      -9.043  -2.913 125.497  0.00  0.00    +0.295 HD
ENDBRANCH  21  23
ENDBRANCH  12  21
BRANCH   9  25
ATOM     25  C   LIG A   1      -8.318   2.942 123.193  0.00  0.00    +0.066 C 
BRANCH  25  26
ATOM     26  C   LIG A   1      -7.358   3.354 122.106  0.00  0.00    -0.023 C 
ATOM     27  C   LIG A   1      -7.653   3.747 120.850  0.00  0.00    -0.079 C 
ATOM     28  C   LIG A   1      -9.045   3.867 120.295  0.00  0.00    +0.038 C 
ATOM     29  C   LIG A   1      -6.564   4.081 119.865  0.00  0.00    +0.038 C 
ENDBRANCH  25  26
ENDBRANCH   9  25
TORSDOF 7
ENDMDL
MODEL 9
REMARK VINA RESULT:      -6.7      2.778      5.437
REMARK  Name = NuBBE_32
REMARK  13 active torsions:
REMARK  status: ('A' for Active; 'I' for Inactive)
REMARK    1  A    between atoms: O_1  and  C_2
REMARK    2  A    between atoms: C_6  and  C_7
REMARK    3  A    between atoms: C_6  and  C_13
REMARK    4  A    between atoms: C_8  and  C_9
REMARK    5  A    between atoms: C_10  and  C_11
REMARK    6  A    between atoms: C_10  and  C_12
REMARK    7  A    between atoms: C_16  and  C_17
REMARK    8  A    between atoms: C_17  and  C_18
REMARK    9  A    between atoms: C_19  and  C_20
REMARK   10  A    between atoms: C_19  and  C_21
REMARK   11  A    between atoms: C_22  and  C_23
REMARK   12  A    between atoms: C_24  and  C_25
REMARK   13  A    between atoms: C_25  and  O_26
REMARK                            x       y       z     vdW  Elec       q    Type
REMARK                         _______ _______ _______ _____ _____    ______ ____
ROOT
ATOM      1  C   LIG A   1      -8.503   0.162 124.967  0.00  0.00    +0.138 A 
ATOM      2  C   LIG A   1      -8.267   0.536 126.295  0.00  0.00    +0.037 A 
ATOM      3  C   LIG A   1      -8.106  -0.462 127.262  0.00  0.00    +0.132 A 
ATOM      4  O   LIG A   1      -7.808  -0.174 128.573  0.00  0.00    -0.481 OA
ATOM      5  C   LIG A   1      -7.338   1.155 128.876  0.00  0.00    +0.127 C 
ATOM      6  C   LIG A   1      -7.546   1.332 130.389  0.00  0.00    +0.060 C 
ATOM      7  C   LIG A   1      -8.194   2.202 128.150  0.00  0.00    +0.057 C 
ATOM      8  C   LIG A   1      -8.146   1.993 126.649  0.00  0.00    +0.047 C 
ATOM      9  C   LIG A   1      -8.248  -1.832 126.932  0.00  0.00    +0.002 A 
ATOM     10  C   LIG A   1      -8.445  -2.206 125.573  0.00  0.00    -0.026 A 
ATOM     11  C   LIG A   1      -8.508  -3.663 125.175  0.00  0.00    +0.045 C 
ATOM     12  C   LIG A   1      -8.594  -1.193 124.590  0.00  0.00    +0.104 A 
ENDROOT
BRANCH   1  13
ATOM     13  O   LIG A   1      -8.633   1.189 124.062  0.00  0.00    -0.505 OA
ATOM     14  H   LIG A   1      -8.100   1.942 124.391  0.00  0.00    +0.292 HD
ENDBRANCH   1  13
BRANCH   5  15
ATOM     15  C   LIG A   1      -5.845   1.299 128.588  0.00  0.00    +0.020 C 
ATOM     16  C   LIG A   1      -5.167   2.460 128.536  0.00  0.00    -0.000 C 
BRANCH  16  17
ATOM     17  C   LIG A   1      -3.759   2.541 128.205  0.00  0.00    -0.002 C 
ATOM     18  C   LIG A   1      -3.210   3.100 127.108  0.00  0.00    -0.076 C 
ATOM     19  C   LIG A   1      -3.948   3.821 126.016  0.00  0.00    +0.038 C 
ATOM     20  C   LIG A   1      -1.723   3.035 126.873  0.00  0.00    +0.038 C 
ENDBRANCH  16  17
ENDBRANCH   5  15
BRANCH  12  21
ATOM     21  C   LIG A   1      -8.878  -1.546 123.173  0.00  0.00    +0.341 C 
ATOM     22  O   LIG A   1      -8.118  -2.056 122.364  0.00  0.00    -0.245 OA
BRANCH  21  23
ATOM     23  O   LIG A   1     -10.129  -1.207 122.800  0.00  0.00    -0.477 OA
ATOM     24  H   LIG A   1     -10.016  -0.320 122.396  0.00  0.00    +0.295 HD
ENDBRANCH  21  23
ENDBRANCH  12  21
BRANCH   9  25
ATOM     25  C   LIG A   1      -8.165  -2.874 128.045  0.00  0.00    +0.066 C 
BRANCH  25  26
ATOM     26  C   LIG A   1      -6.754  -3.138 128.508  0.00  0.00    -0.023 C 
ATOM     27  C   LIG A   1      -6.299  -3.188 129.777  0.00  0.00    -0.079 C 
ATOM     28  C   LIG A   1      -7.152  -3.004 131.001  0.00  0.00    +0.038 C 
ATOM     29  C   LIG A   1      -4.839  -3.415 130.070  0.00  0.00    +0.038 C 
ENDBRANCH  25  26
ENDBRANCH   9  25
TORSDOF 7
ENDMDL
