MODEL 1
REMARK VINA RESULT:      -5.5      0.000      0.000
REMARK  Name = NuBBE_1807
REMARK  19 active torsions:
REMARK  status: ('A' for Active; 'I' for Inactive)
REMARK    1  A    between atoms: O_1  and  C_2
REMARK    2  A    between atoms: C_2  and  C_3
REMARK    3  A    between atoms: C_3  and  O_4
REMARK    4  A    between atoms: C_3  and  C_5
REMARK    5  A    between atoms: C_5  and  C_6
REMARK    6  A    between atoms: C_6  and  C_7
REMARK    7  A    between atoms: C_6  and  C_20
REMARK    8  A    between atoms: C_7  and  C_8
REMARK    9  A    between atoms: C_8  and  C_9
REMARK   10  A    between atoms: C_8  and  O_19
REMARK   11  A    between atoms: C_9  and  C_10
REMARK   12  A    between atoms: C_10  and  C_11
REMARK   13  A    between atoms: C_11  and  C_12
REMARK   14  A    between atoms: C_12  and  C_13
REMARK   15  A    between atoms: C_13  and  C_14
REMARK   16  A    between atoms: C_14  and  C_15
REMARK   17  A    between atoms: C_15  and  C_16
REMARK   18  A    between atoms: C_16  and  C_17
REMARK   19  A    between atoms: C_20  and  O_21
REMARK                            x       y       z     vdW  Elec       q    Type
REMARK                         _______ _______ _______ _____ _____    ______ ____
ROOT
ATOM      1  C   LIG A   1      -9.385   0.165 125.639  0.00  0.00    +0.115 C 
ENDROOT
BRANCH   1   2
ATOM      2  O   LIG A   1      -9.716   1.180 126.588  0.00  0.00    -0.392 OA
ATOM      3  H   LIG A   1      -9.129   1.926 126.403  0.00  0.00    +0.210 HD
ENDBRANCH   1   2
BRANCH   1   4
ATOM      4  C   LIG A   1      -8.186  -0.598 126.192  0.00  0.00    +0.031 C 
BRANCH   4   5
ATOM      5  C   LIG A   1      -8.336  -2.078 126.435  0.00  0.00    +0.002 C 
BRANCH   5   6
ATOM      6  C   LIG A   1      -9.378  -2.813 125.612  0.00  0.00    +0.000 C 
BRANCH   6   7
ATOM      7  C   LIG A   1      -8.712  -3.470 124.391  0.00  0.00    -0.000 C 
BRANCH   7   8
ATOM      8  C   LIG A   1      -8.778  -2.593 123.101  0.00  0.00    +0.000 C 
BRANCH   8   9
ATOM      9  C   LIG A   1      -7.405  -2.316 122.474  0.00  0.00    +0.001 C 
BRANCH   9  10
ATOM     10  C   LIG A   1      -6.334  -1.536 123.287  0.00  0.00    +0.013 C 
BRANCH  10  11
ATOM     11  C   LIG A   1      -5.308  -2.189 124.235  0.00  0.00    +0.088 C 
BRANCH  11  12
ATOM     12  C   LIG A   1      -4.889  -3.500 123.789  0.00  0.00    -0.106 C 
ATOM     13  C   LIG A   1      -4.435  -4.630 123.538  0.00  0.00    +0.004 C 
ENDBRANCH  11  12
ENDBRANCH  10  11
ENDBRANCH   9  10
ENDBRANCH   8   9
ENDBRANCH   7   8
ENDBRANCH   6   7
ENDBRANCH   5   6
ENDBRANCH   4   5
ENDBRANCH   1   4
BRANCH   1  14
ATOM     14  C   LIG A   1      -9.433   0.794 124.203  0.00  0.00    +0.037 C 
BRANCH  14  15
ATOM     15  C   LIG A   1      -8.303   1.593 123.471  0.00  0.00    +0.019 C 
BRANCH  15  16
ATOM     16  C   LIG A   1      -8.891   2.590 122.501  0.00  0.00    +0.159 C 
BRANCH  16  17
ATOM     17  O   LIG A   1      -8.015   3.604 122.045  0.00  0.00    -0.395 OA
ATOM     18  H   LIG A   1      -7.209   3.560 122.595  0.00  0.00    +0.209 HD
ENDBRANCH  16  17
ENDBRANCH  15  16
BRANCH  15  19
ATOM     19  C   LIG A   1      -7.252   2.262 124.401  0.00  0.00    +0.039 C 
BRANCH  19  20
ATOM     20  C   LIG A   1      -7.652   3.417 125.351  0.00  0.00    +0.140 C 
BRANCH  20  21
ATOM     21  O   LIG A   1      -8.977   3.799 125.054  0.00  0.00    -0.390 OA
ATOM     22  H   LIG A   1      -9.560   3.746 125.826  0.00  0.00    +0.210 HD
ENDBRANCH  20  21
BRANCH  20  23
ATOM     23  C   LIG A   1      -6.666   4.594 125.652  0.00  0.00    +0.187 C 
BRANCH  23  24
ATOM     24  O   LIG A   1      -6.625   5.829 124.966  0.00  0.00    -0.393 OA
ATOM     25  H   LIG A   1      -7.482   6.274 124.939  0.00  0.00    +0.209 HD
ENDBRANCH  23  24
ENDBRANCH  20  23
ENDBRANCH  19  20
ENDBRANCH  15  19
ENDBRANCH  14  15
ENDBRANCH   1  14
TORSDOF 19
ENDMDL
MODEL 2
REMARK VINA RESULT:      -5.4      1.409      2.284
REMARK  Name = NuBBE_1807
REMARK  19 active torsions:
REMARK  status: ('A' for Active; 'I' for Inactive)
REMARK    1  A    between atoms: O_1  and  C_2
REMARK    2  A    between atoms: C_2  and  C_3
REMARK    3  A    between atoms: C_3  and  O_4
REMARK    4  A    between atoms: C_3  and  C_5
REMARK    5  A    between atoms: C_5  and  C_6
REMARK    6  A    between atoms: C_6  and  C_7
REMARK    7  A    between atoms: C_6  and  C_20
REMARK    8  A    between atoms: C_7  and  C_8
REMARK    9  A    between atoms: C_8  and  C_9
REMARK   10  A    between atoms: C_8  and  O_19
REMARK   11  A    between atoms: C_9  and  C_10
REMARK   12  A    between atoms: C_10  and  C_11
REMARK   13  A    between atoms: C_11  and  C_12
REMARK   14  A    between atoms: C_12  and  C_13
REMARK   15  A    between atoms: C_13  and  C_14
REMARK   16  A    between atoms: C_14  and  C_15
REMARK   17  A    between atoms: C_15  and  C_16
REMARK   18  A    between atoms: C_16  and  C_17
REMARK   19  A    between atoms: C_20  and  O_21
REMARK                            x       y       z     vdW  Elec       q    Type
REMARK                         _______ _______ _______ _____ _____    ______ ____
ROOT
ATOM      1  C   LIG A   1      -8.971  -0.493 122.775  0.00  0.00    +0.115 C 
ENDROOT
BRANCH   1   2
ATOM      2  O   LIG A   1     -10.399  -0.524 122.723  0.00  0.00    -0.392 OA
ATOM      3  H   LIG A   1     -10.701  -0.615 123.636  0.00  0.00    +0.210 HD
ENDBRANCH   1   2
BRANCH   1   4
ATOM      4  C   LIG A   1      -8.484  -1.936 122.717  0.00  0.00    +0.031 C 
BRANCH   4   5
ATOM      5  C   LIG A   1      -9.293  -2.988 123.434  0.00  0.00    +0.002 C 
BRANCH   5   6
ATOM      6  C   LIG A   1      -8.609  -3.741 124.559  0.00  0.00    +0.000 C 
BRANCH   6   7
ATOM      7  C   LIG A   1      -9.106  -3.217 125.917  0.00  0.00    -0.000 C 
BRANCH   7   8
ATOM      8  C   LIG A   1      -8.333  -1.956 126.417  0.00  0.00    +0.000 C 
BRANCH   8   9
ATOM      9  C   LIG A   1      -6.904  -2.257 126.889  0.00  0.00    +0.001 C 
BRANCH   9  10
ATOM     10  C   LIG A   1      -5.700  -1.605 126.154  0.00  0.00    +0.013 C 
BRANCH  10  11
ATOM     11  C   LIG A   1      -5.451  -1.691 124.634  0.00  0.00    +0.088 C 
BRANCH  11  12
ATOM     12  C   LIG A   1      -5.060  -3.016 124.206  0.00  0.00    -0.106 C 
ATOM     13  C   LIG A   1      -4.814  -4.128 123.706  0.00  0.00    +0.004 C 
ENDBRANCH  11  12
ENDBRANCH  10  11
ENDBRANCH   9  10
ENDBRANCH   8   9
ENDBRANCH   7   8
ENDBRANCH   6   7
ENDBRANCH   5   6
ENDBRANCH   4   5
ENDBRANCH   1   4
BRANCH   1  14
ATOM     14  C   LIG A   1      -8.538   0.532 123.880  0.00  0.00    +0.037 C 
BRANCH  14  15
ATOM     15  C   LIG A   1      -8.247   2.061 123.706  0.00  0.00    +0.019 C 
BRANCH  15  16
ATOM     16  C   LIG A   1      -8.809   2.569 122.399  0.00  0.00    +0.159 C 
BRANCH  16  17
ATOM     17  O   LIG A   1      -8.130   3.666 121.816  0.00  0.00    -0.395 OA
ATOM     18  H   LIG A   1      -7.204   3.391 121.673  0.00  0.00    +0.209 HD
ENDBRANCH  16  17
ENDBRANCH  15  16
BRANCH  15  19
ATOM     19  C   LIG A   1      -8.684   2.961 124.896  0.00  0.00    +0.039 C 
BRANCH  19  20
ATOM     20  C   LIG A   1      -7.633   3.668 125.786  0.00  0.00    +0.140 C 
BRANCH  20  21
ATOM     21  O   LIG A   1      -8.247   4.018 127.007  0.00  0.00    -0.390 OA
ATOM     22  H   LIG A   1      -8.078   3.370 127.707  0.00  0.00    +0.210 HD
ENDBRANCH  20  21
BRANCH  20  23
ATOM     23  C   LIG A   1      -6.661   4.740 125.192  0.00  0.00    +0.187 C 
BRANCH  23  24
ATOM     24  O   LIG A   1      -6.265   4.831 123.838  0.00  0.00    -0.393 OA
ATOM     25  H   LIG A   1      -6.461   4.032 123.333  0.00  0.00    +0.209 HD
ENDBRANCH  23  24
ENDBRANCH  20  23
ENDBRANCH  19  20
ENDBRANCH  15  19
ENDBRANCH  14  15
ENDBRANCH   1  14
TORSDOF 19
ENDMDL
MODEL 3
REMARK VINA RESULT:      -5.3      1.855      2.520
REMARK  Name = NuBBE_1807
REMARK  19 active torsions:
REMARK  status: ('A' for Active; 'I' for Inactive)
REMARK    1  A    between atoms: O_1  and  C_2
REMARK    2  A    between atoms: C_2  and  C_3
REMARK    3  A    between atoms: C_3  and  O_4
REMARK    4  A    between atoms: C_3  and  C_5
REMARK    5  A    between atoms: C_5  and  C_6
REMARK    6  A    between atoms: C_6  and  C_7
REMARK    7  A    between atoms: C_6  and  C_20
REMARK    8  A    between atoms: C_7  and  C_8
REMARK    9  A    between atoms: C_8  and  C_9
REMARK   10  A    between atoms: C_8  and  O_19
REMARK   11  A    between atoms: C_9  and  C_10
REMARK   12  A    between atoms: C_10  and  C_11
REMARK   13  A    between atoms: C_11  and  C_12
REMARK   14  A    between atoms: C_12  and  C_13
REMARK   15  A    between atoms: C_13  and  C_14
REMARK   16  A    between atoms: C_14  and  C_15
REMARK   17  A    between atoms: C_15  and  C_16
REMARK   18  A    between atoms: C_16  and  C_17
REMARK   19  A    between atoms: C_20  and  O_21
REMARK                            x       y       z     vdW  Elec       q    Type
REMARK                         _______ _______ _______ _____ _____    ______ ____
ROOT
ATOM      1  C   LIG A   1      -6.101   0.544 126.895  0.00  0.00    +0.115 C 
ENDROOT
BRANCH   1   2
ATOM      2  O   LIG A   1      -4.927  -0.066 126.353  0.00  0.00    -0.392 OA
ATOM      3  H   LIG A   1      -4.275   0.640 126.256  0.00  0.00    +0.210 HD
ENDBRANCH   1   2
BRANCH   1   4
ATOM      4  C   LIG A   1      -6.835  -0.523 127.698  0.00  0.00    +0.031 C 
BRANCH   4   5
ATOM      5  C   LIG A   1      -6.635  -1.967 127.312  0.00  0.00    +0.002 C 
BRANCH   5   6
ATOM      6  C   LIG A   1      -7.878  -2.828 127.182  0.00  0.00    +0.000 C 
BRANCH   6   7
ATOM      7  C   LIG A   1      -8.639  -2.455 125.898  0.00  0.00    -0.000 C 
BRANCH   7   8
ATOM      8  C   LIG A   1      -8.274  -3.355 124.676  0.00  0.00    +0.000 C 
BRANCH   8   9
ATOM      9  C   LIG A   1      -7.953  -2.563 123.402  0.00  0.00    +0.001 C 
BRANCH   9  10
ATOM     10  C   LIG A   1      -6.495  -2.093 123.138  0.00  0.00    +0.013 C 
BRANCH  10  11
ATOM     11  C   LIG A   1      -5.277  -2.497 123.994  0.00  0.00    +0.088 C 
BRANCH  11  12
ATOM     12  C   LIG A   1      -4.786  -3.821 123.679  0.00  0.00    -0.106 C 
ATOM     13  C   LIG A   1      -4.225  -4.913 123.477  0.00  0.00    +0.004 C 
ENDBRANCH  11  12
ENDBRANCH  10  11
ENDBRANCH   9  10
ENDBRANCH   8   9
ENDBRANCH   7   8
ENDBRANCH   6   7
ENDBRANCH   5   6
ENDBRANCH   4   5
ENDBRANCH   1   4
BRANCH   1  14
ATOM     14  C   LIG A   1      -6.772   1.409 125.772  0.00  0.00    +0.037 C 
BRANCH  14  15
ATOM     15  C   LIG A   1      -7.782   0.934 124.674  0.00  0.00    +0.019 C 
BRANCH  15  16
ATOM     16  C   LIG A   1      -9.207   1.080 125.155  0.00  0.00    +0.159 C 
BRANCH  16  17
ATOM     17  O   LIG A   1      -9.926   2.183 124.637  0.00  0.00    -0.395 OA
ATOM     18  H   LIG A   1      -9.767   2.940 125.234  0.00  0.00    +0.209 HD
ENDBRANCH  16  17
ENDBRANCH  15  16
BRANCH  15  19
ATOM     19  C   LIG A   1      -7.591   1.578 123.272  0.00  0.00    +0.039 C 
BRANCH  19  20
ATOM     20  C   LIG A   1      -6.972   2.989 123.122  0.00  0.00    +0.140 C 
BRANCH  20  21
ATOM     21  O   LIG A   1      -7.986   3.946 123.341  0.00  0.00    -0.390 OA
ATOM     22  H   LIG A   1      -7.795   4.793 122.912  0.00  0.00    +0.210 HD
ENDBRANCH  20  21
BRANCH  20  23
ATOM     23  C   LIG A   1      -5.980   3.318 121.958  0.00  0.00    +0.187 C 
BRANCH  23  24
ATOM     24  O   LIG A   1      -5.593   4.615 121.549  0.00  0.00    -0.393 OA
ATOM     25  H   LIG A   1      -4.705   4.641 121.170  0.00  0.00    +0.209 HD
ENDBRANCH  23  24
ENDBRANCH  20  23
ENDBRANCH  19  20
ENDBRANCH  15  19
ENDBRANCH  14  15
ENDBRANCH   1  14
TORSDOF 19
ENDMDL
MODEL 4
REMARK VINA RESULT:      -5.3      7.693      9.809
REMARK  Name = NuBBE_1807
REMARK  19 active torsions:
REMARK  status: ('A' for Active; 'I' for Inactive)
REMARK    1  A    between atoms: O_1  and  C_2
REMARK    2  A    between atoms: C_2  and  C_3
REMARK    3  A    between atoms: C_3  and  O_4
REMARK    4  A    between atoms: C_3  and  C_5
REMARK    5  A    between atoms: C_5  and  C_6
REMARK    6  A    between atoms: C_6  and  C_7
REMARK    7  A    between atoms: C_6  and  C_20
REMARK    8  A    between atoms: C_7  and  C_8
REMARK    9  A    between atoms: C_8  and  C_9
REMARK   10  A    between atoms: C_8  and  O_19
REMARK   11  A    between atoms: C_9  and  C_10
REMARK   12  A    between atoms: C_10  and  C_11
REMARK   13  A    between atoms: C_11  and  C_12
REMARK   14  A    between atoms: C_12  and  C_13
REMARK   15  A    between atoms: C_13  and  C_14
REMARK   16  A    between atoms: C_14  and  C_15
REMARK   17  A    between atoms: C_15  and  C_16
REMARK   18  A    between atoms: C_16  and  C_17
REMARK   19  A    between atoms: C_20  and  O_21
REMARK                            x       y       z     vdW  Elec       q    Type
REMARK                         _______ _______ _______ _____ _____    ______ ____
ROOT
ATOM      1  C   LIG A   1     -12.052   6.666 130.628  0.00  0.00    +0.115 C 
ENDROOT
BRANCH   1   2
ATOM      2  O   LIG A   1     -12.963   7.182 131.601  0.00  0.00    -0.392 OA
ATOM      3  H   LIG A   1     -13.245   6.428 132.135  0.00  0.00    +0.210 HD
ENDBRANCH   1   2
BRANCH   1   4
ATOM      4  C   LIG A   1     -10.812   6.192 131.376  0.00  0.00    +0.031 C 
BRANCH   4   5
ATOM      5  C   LIG A   1      -9.461   6.591 130.838  0.00  0.00    +0.002 C 
BRANCH   5   6
ATOM      6  C   LIG A   1      -8.710   5.558 130.018  0.00  0.00    +0.000 C 
BRANCH   6   7
ATOM      7  C   LIG A   1      -7.352   5.257 130.674  0.00  0.00    -0.000 C 
BRANCH   7   8
ATOM      8  C   LIG A   1      -6.892   6.357 131.683  0.00  0.00    +0.000 C 
BRANCH   8   9
ATOM      9  C   LIG A   1      -6.680   5.834 133.109  0.00  0.00    +0.001 C 
BRANCH   9  10
ATOM     10  C   LIG A   1      -7.910   5.604 134.032  0.00  0.00    +0.013 C 
BRANCH  10  11
ATOM     11  C   LIG A   1      -8.349   4.231 134.580  0.00  0.00    +0.088 C 
BRANCH  11  12
ATOM     12  C   LIG A   1      -8.904   3.372 133.557  0.00  0.00    -0.106 C 
ATOM     13  C   LIG A   1      -9.461   2.764 132.626  0.00  0.00    +0.004 C 
ENDBRANCH  11  12
ENDBRANCH  10  11
ENDBRANCH   9  10
ENDBRANCH   8   9
ENDBRANCH   7   8
ENDBRANCH   6   7
ENDBRANCH   5   6
ENDBRANCH   4   5
ENDBRANCH   1   4
BRANCH   1  14
ATOM     14  C   LIG A   1     -12.015   7.655 129.411  0.00  0.00    +0.037 C 
BRANCH  14  15
ATOM     15  C   LIG A   1     -13.029   7.746 128.221  0.00  0.00    +0.019 C 
BRANCH  15  16
ATOM     16  C   LIG A   1     -13.663   9.116 128.160  0.00  0.00    +0.159 C 
BRANCH  16  17
ATOM     17  O   LIG A   1     -12.967  10.153 128.825  0.00  0.00    -0.395 OA
ATOM     18  H   LIG A   1     -12.017   9.928 128.800  0.00  0.00    +0.209 HD
ENDBRANCH  16  17
ENDBRANCH  15  16
BRANCH  15  19
ATOM     19  C   LIG A   1     -12.467   7.321 126.836  0.00  0.00    +0.039 C 
BRANCH  19  20
ATOM     20  C   LIG A   1     -10.976   7.538 126.481  0.00  0.00    +0.140 C 
BRANCH  20  21
ATOM     21  O   LIG A   1     -10.902   8.118 125.198  0.00  0.00    -0.390 OA
ATOM     22  H   LIG A   1     -11.364   8.968 125.148  0.00  0.00    +0.210 HD
ENDBRANCH  20  21
BRANCH  20  23
ATOM     23  C   LIG A   1      -9.905   6.437 126.781  0.00  0.00    +0.187 C 
BRANCH  23  24
ATOM     24  O   LIG A   1      -9.048   5.841 125.827  0.00  0.00    -0.393 OA
ATOM     25  H   LIG A   1      -9.471   5.128 125.333  0.00  0.00    +0.209 HD
ENDBRANCH  23  24
ENDBRANCH  20  23
ENDBRANCH  19  20
ENDBRANCH  15  19
ENDBRANCH  14  15
ENDBRANCH   1  14
TORSDOF 19
ENDMDL
MODEL 5
REMARK VINA RESULT:      -5.3      8.719     11.488
REMARK  Name = NuBBE_1807
REMARK  19 active torsions:
REMARK  status: ('A' for Active; 'I' for Inactive)
REMARK    1  A    between atoms: O_1  and  C_2
REMARK    2  A    between atoms: C_2  and  C_3
REMARK    3  A    between atoms: C_3  and  O_4
REMARK    4  A    between atoms: C_3  and  C_5
REMARK    5  A    between atoms: C_5  and  C_6
REMARK    6  A    between atoms: C_6  and  C_7
REMARK    7  A    between atoms: C_6  and  C_20
REMARK    8  A    between atoms: C_7  and  C_8
REMARK    9  A    between atoms: C_8  and  C_9
REMARK   10  A    between atoms: C_8  and  O_19
REMARK   11  A    between atoms: C_9  and  C_10
REMARK   12  A    between atoms: C_10  and  C_11
REMARK   13  A    between atoms: C_11  and  C_12
REMARK   14  A    between atoms: C_12  and  C_13
REMARK   15  A    between atoms: C_13  and  C_14
REMARK   16  A    between atoms: C_14  and  C_15
REMARK   17  A    between atoms: C_15  and  C_16
REMARK   18  A    between atoms: C_16  and  C_17
REMARK   19  A    between atoms: C_20  and  O_21
REMARK                            x       y       z     vdW  Elec       q    Type
REMARK                         _______ _______ _______ _____ _____    ______ ____
ROOT
ATOM      1  C   LIG A   1     -11.508   6.559 130.931  0.00  0.00    +0.115 C 
ENDROOT
BRANCH   1   2
ATOM      2  O   LIG A   1     -12.134   6.057 132.115  0.00  0.00    -0.392 OA
ATOM      3  H   LIG A   1     -12.418   6.831 132.620  0.00  0.00    +0.210 HD
ENDBRANCH   1   2
BRANCH   1   4
ATOM      4  C   LIG A   1     -10.004   6.545 131.176  0.00  0.00    +0.031 C 
BRANCH   4   5
ATOM      5  C   LIG A   1      -9.502   5.996 132.487  0.00  0.00    +0.002 C 
BRANCH   5   6
ATOM      6  C   LIG A   1      -8.984   4.570 132.489  0.00  0.00    +0.000 C 
BRANCH   6   7
ATOM      7  C   LIG A   1      -8.807   4.079 133.936  0.00  0.00    -0.000 C 
BRANCH   7   8
ATOM      8  C   LIG A   1      -7.317   4.046 134.403  0.00  0.00    +0.000 C 
BRANCH   8   9
ATOM      9  C   LIG A   1      -6.984   5.094 135.473  0.00  0.00    +0.001 C 
BRANCH   9  10
ATOM     10  C   LIG A   1      -8.125   5.952 136.087  0.00  0.00    +0.013 C 
BRANCH  10  11
ATOM     11  C   LIG A   1      -7.994   6.790 137.375  0.00  0.00    +0.088 C 
BRANCH  11  12
ATOM     12  C   LIG A   1      -8.739   8.028 137.316  0.00  0.00    -0.106 C 
ATOM     13  C   LIG A   1      -9.503   9.009 137.328  0.00  0.00    +0.004 C 
ENDBRANCH  11  12
ENDBRANCH  10  11
ENDBRANCH   9  10
ENDBRANCH   8   9
ENDBRANCH   7   8
ENDBRANCH   6   7
ENDBRANCH   5   6
ENDBRANCH   4   5
ENDBRANCH   1   4
BRANCH   1  14
ATOM     14  C   LIG A   1     -12.303   7.821 130.448  0.00  0.00    +0.037 C 
BRANCH  14  15
ATOM     15  C   LIG A   1     -13.271   7.930 129.221  0.00  0.00    +0.019 C 
BRANCH  15  16
ATOM     16  C   LIG A   1     -13.327   9.348 128.704  0.00  0.00    +0.159 C 
BRANCH  16  17
ATOM     17  O   LIG A   1     -12.909  10.354 129.608  0.00  0.00    -0.395 OA
ATOM     18  H   LIG A   1     -12.989   9.987 130.509  0.00  0.00    +0.209 HD
ENDBRANCH  16  17
ENDBRANCH  15  16
BRANCH  15  19
ATOM     19  C   LIG A   1     -13.002   6.919 128.071  0.00  0.00    +0.039 C 
BRANCH  19  20
ATOM     20  C   LIG A   1     -12.043   7.275 126.908  0.00  0.00    +0.140 C 
BRANCH  20  21
ATOM     21  O   LIG A   1     -12.463   6.578 125.756  0.00  0.00    -0.390 OA
ATOM     22  H   LIG A   1     -13.167   7.042 125.278  0.00  0.00    +0.210 HD
ENDBRANCH  20  21
BRANCH  20  23
ATOM     23  C   LIG A   1     -10.495   7.337 127.127  0.00  0.00    +0.187 C 
BRANCH  23  24
ATOM     24  O   LIG A   1      -9.686   6.274 127.590  0.00  0.00    -0.393 OA
ATOM     25  H   LIG A   1      -9.285   5.766 126.873  0.00  0.00    +0.209 HD
ENDBRANCH  23  24
ENDBRANCH  20  23
ENDBRANCH  19  20
ENDBRANCH  15  19
ENDBRANCH  14  15
ENDBRANCH   1  14
TORSDOF 19
ENDMDL
MODEL 6
REMARK VINA RESULT:      -5.3      2.006      4.122
REMARK  Name = NuBBE_1807
REMARK  19 active torsions:
REMARK  status: ('A' for Active; 'I' for Inactive)
REMARK    1  A    between atoms: O_1  and  C_2
REMARK    2  A    between atoms: C_2  and  C_3
REMARK    3  A    between atoms: C_3  and  O_4
REMARK    4  A    between atoms: C_3  and  C_5
REMARK    5  A    between atoms: C_5  and  C_6
REMARK    6  A    between atoms: C_6  and  C_7
REMARK    7  A    between atoms: C_6  and  C_20
REMARK    8  A    between atoms: C_7  and  C_8
REMARK    9  A    between atoms: C_8  and  C_9
REMARK   10  A    between atoms: C_8  and  O_19
REMARK   11  A    between atoms: C_9  and  C_10
REMARK   12  A    between atoms: C_10  and  C_11
REMARK   13  A    between atoms: C_11  and  C_12
REMARK   14  A    between atoms: C_12  and  C_13
REMARK   15  A    between atoms: C_13  and  C_14
REMARK   16  A    between atoms: C_14  and  C_15
REMARK   17  A    between atoms: C_15  and  C_16
REMARK   18  A    between atoms: C_16  and  C_17
REMARK   19  A    between atoms: C_20  and  O_21
REMARK                            x       y       z     vdW  Elec       q    Type
REMARK                         _______ _______ _______ _____ _____    ______ ____
ROOT
ATOM      1  C   LIG A   1      -7.174  -1.614 123.442  0.00  0.00    +0.115 C 
ENDROOT
BRANCH   1   2
ATOM      2  O   LIG A   1      -6.259  -1.615 122.344  0.00  0.00    -0.392 OA
ATOM      3  H   LIG A   1      -6.686  -1.118 121.634  0.00  0.00    +0.210 HD
ENDBRANCH   1   2
BRANCH   1   4
ATOM      4  C   LIG A   1      -8.496  -2.173 122.929  0.00  0.00    +0.031 C 
BRANCH   4   5
ATOM      5  C   LIG A   1      -9.248  -3.140 123.809  0.00  0.00    +0.002 C 
BRANCH   5   6
ATOM      6  C   LIG A   1      -8.532  -3.654 125.043  0.00  0.00    +0.000 C 
BRANCH   6   7
ATOM      7  C   LIG A   1      -9.251  -3.159 126.310  0.00  0.00    -0.000 C 
BRANCH   7   8
ATOM      8  C   LIG A   1      -8.963  -4.035 127.570  0.00  0.00    +0.000 C 
BRANCH   8   9
ATOM      9  C   LIG A   1      -8.444  -3.233 128.771  0.00  0.00    +0.001 C 
BRANCH   9  10
ATOM     10  C   LIG A   1      -7.020  -2.612 128.721  0.00  0.00    +0.013 C 
BRANCH  10  11
ATOM     11  C   LIG A   1      -6.573  -1.528 127.719  0.00  0.00    +0.088 C 
BRANCH  11  12
ATOM     12  C   LIG A   1      -7.310  -0.293 127.866  0.00  0.00    -0.106 C 
ATOM     13  C   LIG A   1      -7.971   0.761 127.832  0.00  0.00    +0.004 C 
ENDBRANCH  11  12
ENDBRANCH  10  11
ENDBRANCH   9  10
ENDBRANCH   8   9
ENDBRANCH   7   8
ENDBRANCH   6   7
ENDBRANCH   5   6
ENDBRANCH   4   5
ENDBRANCH   1   4
BRANCH   1  14
ATOM     14  C   LIG A   1      -7.037  -0.247 124.198  0.00  0.00    +0.037 C 
BRANCH  14  15
ATOM     15  C   LIG A   1      -7.639   1.139 123.786  0.00  0.00    +0.019 C 
BRANCH  15  16
ATOM     16  C   LIG A   1      -9.025   1.315 124.361  0.00  0.00    +0.159 C 
BRANCH  16  17
ATOM     17  O   LIG A   1      -9.454   2.651 124.546  0.00  0.00    -0.395 OA
ATOM     18  H   LIG A   1      -8.658   3.192 124.716  0.00  0.00    +0.209 HD
ENDBRANCH  16  17
ENDBRANCH  15  16
BRANCH  15  19
ATOM     19  C   LIG A   1      -6.740   2.371 124.089  0.00  0.00    +0.039 C 
BRANCH  19  20
ATOM     20  C   LIG A   1      -6.443   3.426 122.997  0.00  0.00    +0.140 C 
BRANCH  20  21
ATOM     21  O   LIG A   1      -6.170   4.657 123.629  0.00  0.00    -0.390 OA
ATOM     22  H   LIG A   1      -6.879   5.305 123.502  0.00  0.00    +0.210 HD
ENDBRANCH  20  21
BRANCH  20  23
ATOM     23  C   LIG A   1      -7.316   3.517 121.702  0.00  0.00    +0.187 C 
BRANCH  23  24
ATOM     24  O   LIG A   1      -8.703   3.790 121.662  0.00  0.00    -0.393 OA
ATOM     25  H   LIG A   1      -8.936   4.624 122.091  0.00  0.00    +0.209 HD
ENDBRANCH  23  24
ENDBRANCH  20  23
ENDBRANCH  19  20
ENDBRANCH  15  19
ENDBRANCH  14  15
ENDBRANCH   1  14
TORSDOF 19
ENDMDL
MODEL 7
REMARK VINA RESULT:      -5.1      2.293      4.023
REMARK  Name = NuBBE_1807
REMARK  19 active torsions:
REMARK  status: ('A' for Active; 'I' for Inactive)
REMARK    1  A    between atoms: O_1  and  C_2
REMARK    2  A    between atoms: C_2  and  C_3
REMARK    3  A    between atoms: C_3  and  O_4
REMARK    4  A    between atoms: C_3  and  C_5
REMARK    5  A    between atoms: C_5  and  C_6
REMARK    6  A    between atoms: C_6  and  C_7
REMARK    7  A    between atoms: C_6  and  C_20
REMARK    8  A    between atoms: C_7  and  C_8
REMARK    9  A    between atoms: C_8  and  C_9
REMARK   10  A    between atoms: C_8  and  O_19
REMARK   11  A    between atoms: C_9  and  C_10
REMARK   12  A    between atoms: C_10  and  C_11
REMARK   13  A    between atoms: C_11  and  C_12
REMARK   14  A    between atoms: C_12  and  C_13
REMARK   15  A    between atoms: C_13  and  C_14
REMARK   16  A    between atoms: C_14  and  C_15
REMARK   17  A    between atoms: C_15  and  C_16
REMARK   18  A    between atoms: C_16  and  C_17
REMARK   19  A    between atoms: C_20  and  O_21
REMARK                            x       y       z     vdW  Elec       q    Type
REMARK                         _______ _______ _______ _____ _____    ______ ____
ROOT
ATOM      1  C   LIG A   1      -8.832   2.251 123.771  0.00  0.00    +0.115 C 
ENDROOT
BRANCH   1   2
ATOM      2  O   LIG A   1      -9.391   2.881 124.926  0.00  0.00    -0.392 OA
ATOM      3  H   LIG A   1      -8.891   3.697 125.059  0.00  0.00    +0.210 HD
ENDBRANCH   1   2
BRANCH   1   4
ATOM      4  C   LIG A   1      -8.734   0.760 124.071  0.00  0.00    +0.031 C 
BRANCH   4   5
ATOM      5  C   LIG A   1      -7.411   0.074 123.842  0.00  0.00    +0.002 C 
BRANCH   5   6
ATOM      6  C   LIG A   1      -7.439  -1.266 123.132  0.00  0.00    +0.000 C 
BRANCH   6   7
ATOM      7  C   LIG A   1      -8.891  -1.653 122.802  0.00  0.00    -0.000 C 
BRANCH   7   8
ATOM      8  C   LIG A   1      -9.292  -3.068 123.328  0.00  0.00    +0.000 C 
BRANCH   8   9
ATOM      9  C   LIG A   1      -8.391  -3.581 124.459  0.00  0.00    +0.001 C 
BRANCH   9  10
ATOM     10  C   LIG A   1      -8.823  -3.374 125.938  0.00  0.00    +0.013 C 
BRANCH  10  11
ATOM     11  C   LIG A   1      -8.348  -2.212 126.834  0.00  0.00    +0.088 C 
BRANCH  11  12
ATOM     12  C   LIG A   1      -6.913  -2.033 126.804  0.00  0.00    -0.106 C 
ATOM     13  C   LIG A   1      -5.675  -2.012 126.685  0.00  0.00    +0.004 C 
ENDBRANCH  11  12
ENDBRANCH  10  11
ENDBRANCH   9  10
ENDBRANCH   8   9
ENDBRANCH   7   8
ENDBRANCH   6   7
ENDBRANCH   5   6
ENDBRANCH   4   5
ENDBRANCH   1   4
BRANCH   1  14
ATOM     14  C   LIG A   1      -7.630   3.122 123.266  0.00  0.00    +0.037 C 
BRANCH  14  15
ATOM     15  C   LIG A   1      -7.327   3.574 121.797  0.00  0.00    +0.019 C 
BRANCH  15  16
ATOM     16  C   LIG A   1      -6.092   2.884 121.267  0.00  0.00    +0.159 C 
BRANCH  16  17
ATOM     17  O   LIG A   1      -4.988   3.722 120.980  0.00  0.00    -0.395 OA
ATOM     18  H   LIG A   1      -5.262   4.330 120.266  0.00  0.00    +0.209 HD
ENDBRANCH  16  17
ENDBRANCH  15  16
BRANCH  15  19
ATOM     19  C   LIG A   1      -8.516   3.446 120.803  0.00  0.00    +0.039 C 
BRANCH  19  20
ATOM     20  C   LIG A   1      -8.613   4.358 119.557  0.00  0.00    +0.140 C 
BRANCH  20  21
ATOM     21  O   LIG A   1      -9.868   4.149 118.948  0.00  0.00    -0.390 OA
ATOM     22  H   LIG A   1     -10.197   4.940 118.495  0.00  0.00    +0.210 HD
ENDBRANCH  20  21
BRANCH  20  23
ATOM     23  C   LIG A   1      -7.407   4.513 118.572  0.00  0.00    +0.187 C 
BRANCH  23  24
ATOM     24  O   LIG A   1      -6.251   5.293 118.803  0.00  0.00    -0.393 OA
ATOM     25  H   LIG A   1      -6.360   6.216 118.542  0.00  0.00    +0.209 HD
ENDBRANCH  23  24
ENDBRANCH  20  23
ENDBRANCH  19  20
ENDBRANCH  15  19
ENDBRANCH  14  15
ENDBRANCH   1  14
TORSDOF 19
ENDMDL
MODEL 8
REMARK VINA RESULT:      -5.1      4.745      7.076
REMARK  Name = NuBBE_1807
REMARK  19 active torsions:
REMARK  status: ('A' for Active; 'I' for Inactive)
REMARK    1  A    between atoms: O_1  and  C_2
REMARK    2  A    between atoms: C_2  and  C_3
REMARK    3  A    between atoms: C_3  and  O_4
REMARK    4  A    between atoms: C_3  and  C_5
REMARK    5  A    between atoms: C_5  and  C_6
REMARK    6  A    between atoms: C_6  and  C_7
REMARK    7  A    between atoms: C_6  and  C_20
REMARK    8  A    between atoms: C_7  and  C_8
REMARK    9  A    between atoms: C_8  and  C_9
REMARK   10  A    between atoms: C_8  and  O_19
REMARK   11  A    between atoms: C_9  and  C_10
REMARK   12  A    between atoms: C_10  and  C_11
REMARK   13  A    between atoms: C_11  and  C_12
REMARK   14  A    between atoms: C_12  and  C_13
REMARK   15  A    between atoms: C_13  and  C_14
REMARK   16  A    between atoms: C_14  and  C_15
REMARK   17  A    between atoms: C_15  and  C_16
REMARK   18  A    between atoms: C_16  and  C_17
REMARK   19  A    between atoms: C_20  and  O_21
REMARK                            x       y       z     vdW  Elec       q    Type
REMARK                         _______ _______ _______ _____ _____    ______ ____
ROOT
ATOM      1  C   LIG A   1      -8.133  -3.025 128.476  0.00  0.00    +0.115 C 
ENDROOT
BRANCH   1   2
ATOM      2  O   LIG A   1      -9.059  -4.083 128.217  0.00  0.00    -0.392 OA
ATOM      3  H   LIG A   1      -9.194  -4.097 127.260  0.00  0.00    +0.210 HD
ENDBRANCH   1   2
BRANCH   1   4
ATOM      4  C   LIG A   1      -7.479  -2.661 127.148  0.00  0.00    +0.031 C 
BRANCH   4   5
ATOM      5  C   LIG A   1      -7.949  -1.415 126.442  0.00  0.00    +0.002 C 
BRANCH   5   6
ATOM      6  C   LIG A   1      -9.108  -1.563 125.474  0.00  0.00    +0.000 C 
BRANCH   6   7
ATOM      7  C   LIG A   1      -9.091  -2.968 124.849  0.00  0.00    -0.000 C 
BRANCH   7   8
ATOM      8  C   LIG A   1      -8.848  -2.959 123.306  0.00  0.00    +0.000 C 
BRANCH   8   9
ATOM      9  C   LIG A   1      -7.965  -1.798 122.829  0.00  0.00    +0.001 C 
BRANCH   9  10
ATOM     10  C   LIG A   1      -6.433  -2.012 122.678  0.00  0.00    +0.013 C 
BRANCH  10  11
ATOM     11  C   LIG A   1      -5.486  -2.403 123.831  0.00  0.00    +0.088 C 
BRANCH  11  12
ATOM     12  C   LIG A   1      -4.805  -3.657 123.595  0.00  0.00    -0.106 C 
ATOM     13  C   LIG A   1      -4.200  -4.743 123.553  0.00  0.00    +0.004 C 
ENDBRANCH  11  12
ENDBRANCH  10  11
ENDBRANCH   9  10
ENDBRANCH   8   9
ENDBRANCH   7   8
ENDBRANCH   6   7
ENDBRANCH   5   6
ENDBRANCH   4   5
ENDBRANCH   1   4
BRANCH   1  14
ATOM     14  C   LIG A   1      -7.333  -3.375 129.778  0.00  0.00    +0.037 C 
BRANCH  14  15
ATOM     15  C   LIG A   1      -5.836  -3.821 129.889  0.00  0.00    +0.019 C 
BRANCH  15  16
ATOM     16  C   LIG A   1      -4.928  -2.624 130.046  0.00  0.00    +0.159 C 
BRANCH  16  17
ATOM     17  O   LIG A   1      -4.351  -2.123 128.855  0.00  0.00    -0.395 OA
ATOM     18  H   LIG A   1      -4.272  -1.155 128.955  0.00  0.00    +0.209 HD
ENDBRANCH  16  17
ENDBRANCH  15  16
BRANCH  15  19
ATOM     19  C   LIG A   1      -5.542  -4.899 130.971  0.00  0.00    +0.039 C 
BRANCH  19  20
ATOM     20  C   LIG A   1      -5.248  -4.495 132.436  0.00  0.00    +0.140 C 
BRANCH  20  21
ATOM     21  O   LIG A   1      -4.281  -5.381 132.956  0.00  0.00    -0.390 OA
ATOM     22  H   LIG A   1      -4.173  -5.291 133.915  0.00  0.00    +0.210 HD
ENDBRANCH  20  21
BRANCH  20  23
ATOM     23  C   LIG A   1      -6.405  -4.114 133.418  0.00  0.00    +0.187 C 
BRANCH  23  24
ATOM     24  O   LIG A   1      -7.266  -3.000 133.282  0.00  0.00    -0.393 OA
ATOM     25  H   LIG A   1      -7.664  -2.727 134.118  0.00  0.00    +0.209 HD
ENDBRANCH  23  24
ENDBRANCH  20  23
ENDBRANCH  19  20
ENDBRANCH  15  19
ENDBRANCH  14  15
ENDBRANCH   1  14
TORSDOF 19
ENDMDL
MODEL 9
REMARK VINA RESULT:      -5.0      2.208      2.979
REMARK  Name = NuBBE_1807
REMARK  19 active torsions:
REMARK  status: ('A' for Active; 'I' for Inactive)
REMARK    1  A    between atoms: O_1  and  C_2
REMARK    2  A    between atoms: C_2  and  C_3
REMARK    3  A    between atoms: C_3  and  O_4
REMARK    4  A    between atoms: C_3  and  C_5
REMARK    5  A    between atoms: C_5  and  C_6
REMARK    6  A    between atoms: C_6  and  C_7
REMARK    7  A    between atoms: C_6  and  C_20
REMARK    8  A    between atoms: C_7  and  C_8
REMARK    9  A    between atoms: C_8  and  C_9
REMARK   10  A    between atoms: C_8  and  O_19
REMARK   11  A    between atoms: C_9  and  C_10
REMARK   12  A    between atoms: C_10  and  C_11
REMARK   13  A    between atoms: C_11  and  C_12
REMARK   14  A    between atoms: C_12  and  C_13
REMARK   15  A    between atoms: C_13  and  C_14
REMARK   16  A    between atoms: C_14  and  C_15
REMARK   17  A    between atoms: C_15  and  C_16
REMARK   18  A    between atoms: C_16  and  C_17
REMARK   19  A    between atoms: C_20  and  O_21
REMARK                            x       y       z     vdW  Elec       q    Type
REMARK                         _______ _______ _______ _____ _____    ______ ____
ROOT
ATOM      1  C   LIG A   1      -6.038  -0.523 127.459  0.00  0.00    +0.115 C 
ENDROOT
BRANCH   1   2
ATOM      2  O   LIG A   1      -4.767  -0.491 128.114  0.00  0.00    -0.392 OA
ATOM      3  H   LIG A   1      -4.922  -0.105 128.986  0.00  0.00    +0.210 HD
ENDBRANCH   1   2
BRANCH   1   4
ATOM      4  C   LIG A   1      -6.466  -1.984 127.374  0.00  0.00    +0.031 C 
BRANCH   4   5
ATOM      5  C   LIG A   1      -7.933  -2.286 127.202  0.00  0.00    +0.002 C 
BRANCH   5   6
ATOM      6  C   LIG A   1      -8.297  -3.517 126.394  0.00  0.00    +0.000 C 
BRANCH   6   7
ATOM      7  C   LIG A   1      -9.605  -3.270 125.624  0.00  0.00    -0.000 C 
BRANCH   7   8
ATOM      8  C   LIG A   1      -9.423  -3.274 124.073  0.00  0.00    +0.000 C 
BRANCH   8   9
ATOM      9  C   LIG A   1      -8.875  -1.954 123.514  0.00  0.00    +0.001 C 
BRANCH   9  10
ATOM     10  C   LIG A   1      -7.810  -1.984 122.382  0.00  0.00    +0.013 C 
BRANCH  10  11
ATOM     11  C   LIG A   1      -6.301  -1.750 122.594  0.00  0.00    +0.088 C 
BRANCH  11  12
ATOM     12  C   LIG A   1      -5.717  -2.679 123.537  0.00  0.00    -0.106 C 
ATOM     13  C   LIG A   1      -5.072  -3.415 124.304  0.00  0.00    +0.004 C 
ENDBRANCH  11  12
ENDBRANCH  10  11
ENDBRANCH   9  10
ENDBRANCH   8   9
ENDBRANCH   7   8
ENDBRANCH   6   7
ENDBRANCH   5   6
ENDBRANCH   4   5
ENDBRANCH   1   4
BRANCH   1  14
ATOM     14  C   LIG A   1      -5.984   0.445 126.227  0.00  0.00    +0.037 C 
BRANCH  14  15
ATOM     15  C   LIG A   1      -6.091   2.007 126.232  0.00  0.00    +0.019 C 
BRANCH  15  16
ATOM     16  C   LIG A   1      -4.720   2.640 126.273  0.00  0.00    +0.159 C 
BRANCH  16  17
ATOM     17  O   LIG A   1      -3.629   1.748 126.402  0.00  0.00    -0.395 OA
ATOM     18  H   LIG A   1      -3.007   2.141 127.045  0.00  0.00    +0.209 HD
ENDBRANCH  16  17
ENDBRANCH  15  16
BRANCH  15  19
ATOM     19  C   LIG A   1      -6.961   2.618 125.098  0.00  0.00    +0.039 C 
BRANCH  19  20
ATOM     20  C   LIG A   1      -8.212   3.469 125.426  0.00  0.00    +0.140 C 
BRANCH  20  21
ATOM     21  O   LIG A   1      -9.244   3.103 124.537  0.00  0.00    -0.390 OA
ATOM     22  H   LIG A   1      -9.190   3.574 123.692  0.00  0.00    +0.210 HD
ENDBRANCH  20  21
BRANCH  20  23
ATOM     23  C   LIG A   1      -8.093   5.000 125.722  0.00  0.00    +0.187 C 
BRANCH  23  24
ATOM     24  O   LIG A   1      -9.162   5.854 126.082  0.00  0.00    -0.393 OA
ATOM     25  H   LIG A   1      -8.919   6.789 126.065  0.00  0.00    +0.209 HD
ENDBRANCH  23  24
ENDBRANCH  20  23
ENDBRANCH  19  20
ENDBRANCH  15  19
ENDBRANCH  14  15
ENDBRANCH   1  14
TORSDOF 19
ENDMDL
