MODEL 1
REMARK VINA RESULT:      -6.9      0.000      0.000
REMARK  Name = NuBBE_2146
REMARK  16 active torsions:
REMARK  status: ('A' for Active; 'I' for Inactive)
REMARK    1  A    between atoms: O_1  and  C_2
REMARK    2  A    between atoms: C_2  and  C_3
REMARK    3  A    between atoms: C_3  and  C_4
REMARK    4  A    between atoms: C_4  and  C_5
REMARK    5  A    between atoms: C_5  and  C_6
REMARK    6  A    between atoms: C_6  and  C_7
REMARK    7  A    between atoms: C_7  and  C_8
REMARK    8  A    between atoms: C_8  and  C_9
REMARK    9  A    between atoms: C_9  and  C_10
REMARK   10  A    between atoms: C_11  and  C_12
REMARK   11  A    between atoms: C_12  and  C_13
REMARK   12  A    between atoms: C_14  and  C_15
REMARK   13  A    between atoms: C_15  and  C_16
REMARK   14  A    between atoms: C_16  and  C_17
REMARK   15  A    between atoms: C_17  and  C_18
REMARK   16  A    between atoms: C_18  and  C_19
REMARK                            x       y       z     vdW  Elec       q    Type
REMARK                         _______ _______ _______ _____ _____    ______ ____
ROOT
ATOM      1  C   LIG A   1      -7.548  -2.471 129.018  0.00  0.00    +0.027 C 
ENDROOT
BRANCH   1   2
ATOM      2  C   LIG A   1      -8.593  -3.520 128.614  0.00  0.00    -0.031 C 
ATOM      3  C   LIG A   1      -8.925  -3.791 127.316  0.00  0.00    -0.027 C 
BRANCH   3   4
ATOM      4  C   LIG A   1      -8.561  -3.094 125.968  0.00  0.00    +0.054 C 
BRANCH   4   5
ATOM      5  C   LIG A   1      -9.244  -3.492 124.653  0.00  0.00    -0.027 C 
ATOM      6  C   LIG A   1      -9.168  -3.007 123.361  0.00  0.00    -0.031 C 
BRANCH   6   7
ATOM      7  C   LIG A   1      -8.157  -1.944 122.700  0.00  0.00    +0.027 C 
BRANCH   7   8
ATOM      8  C   LIG A   1      -6.481  -1.813 122.546  0.00  0.00    +0.004 C 
BRANCH   8   9
ATOM      9  C   LIG A   1      -5.465  -2.369 123.806  0.00  0.00    +0.000 C 
BRANCH   9  10
ATOM     10  C   LIG A   1      -5.345  -3.940 124.076  0.00  0.00    -0.003 C 
ATOM     11  C   LIG A   1      -4.203  -4.825 123.456  0.00  0.00    +0.004 C 
ENDBRANCH   9  10
ENDBRANCH   8   9
ENDBRANCH   7   8
ENDBRANCH   6   7
ENDBRANCH   4   5
ENDBRANCH   3   4
ENDBRANCH   1   2
BRANCH   1  12
ATOM     12  C   LIG A   1      -7.633  -0.795 129.409  0.00  0.00    +0.004 C 
BRANCH  12  13
ATOM     13  C   LIG A   1      -7.829   0.655 128.529  0.00  0.00    +0.000 C 
BRANCH  13  14
ATOM     14  C   LIG A   1      -8.350   0.535 126.938  0.00  0.00    +0.000 C 
BRANCH  14  15
ATOM     15  C   LIG A   1      -7.405   0.292 125.566  0.00  0.00    +0.000 C 
BRANCH  15  16
ATOM     16  C   LIG A   1      -6.676   1.343 124.581  0.00  0.00    +0.011 C 
BRANCH  16  17
ATOM     17  C   LIG A   1      -6.317   2.798 124.954  0.00  0.00    +0.120 C 
BRANCH  17  18
ATOM     18  C   LIG A   1      -6.636   3.795 123.867  0.00  0.00    +0.305 C 
ATOM     19  O   LIG A   1      -5.913   4.223 123.066  0.00  0.00    -0.251 OA
BRANCH  18  20
ATOM     20  O   LIG A   1      -7.984   4.018 123.840  0.00  0.00    -0.481 OA
ATOM     21  H   LIG A   1      -8.149   4.530 124.658  0.00  0.00    +0.295 HD
ENDBRANCH  18  20
ENDBRANCH  17  18
ENDBRANCH  16  17
ENDBRANCH  15  16
ENDBRANCH  14  15
ENDBRANCH  13  14
ENDBRANCH  12  13
ENDBRANCH   1  12
TORSDOF 15
ENDMDL
MODEL 2
REMARK VINA RESULT:      -6.8      1.544      4.401
REMARK  Name = NuBBE_2146
REMARK  16 active torsions:
REMARK  status: ('A' for Active; 'I' for Inactive)
REMARK    1  A    between atoms: O_1  and  C_2
REMARK    2  A    between atoms: C_2  and  C_3
REMARK    3  A    between atoms: C_3  and  C_4
REMARK    4  A    between atoms: C_4  and  C_5
REMARK    5  A    between atoms: C_5  and  C_6
REMARK    6  A    between atoms: C_6  and  C_7
REMARK    7  A    between atoms: C_7  and  C_8
REMARK    8  A    between atoms: C_8  and  C_9
REMARK    9  A    between atoms: C_9  and  C_10
REMARK   10  A    between atoms: C_11  and  C_12
REMARK   11  A    between atoms: C_12  and  C_13
REMARK   12  A    between atoms: C_14  and  C_15
REMARK   13  A    between atoms: C_15  and  C_16
REMARK   14  A    between atoms: C_16  and  C_17
REMARK   15  A    between atoms: C_17  and  C_18
REMARK   16  A    between atoms: C_18  and  C_19
REMARK                            x       y       z     vdW  Elec       q    Type
REMARK                         _______ _______ _______ _____ _____    ______ ____
ROOT
ATOM      1  C   LIG A   1      -5.636  -3.009 124.548  0.00  0.00    +0.027 C 
ENDROOT
BRANCH   1   2
ATOM      2  C   LIG A   1      -5.623  -2.498 123.101  0.00  0.00    -0.031 C 
ATOM      3  C   LIG A   1      -6.690  -1.879 122.512  0.00  0.00    -0.027 C 
BRANCH   3   4
ATOM      4  C   LIG A   1      -8.169  -1.672 122.964  0.00  0.00    +0.054 C 
BRANCH   4   5
ATOM      5  C   LIG A   1      -9.069  -2.864 123.319  0.00  0.00    -0.027 C 
ATOM      6  C   LIG A   1      -9.388  -3.488 124.509  0.00  0.00    -0.031 C 
BRANCH   6   7
ATOM      7  C   LIG A   1      -9.082  -3.061 126.031  0.00  0.00    +0.027 C 
BRANCH   7   8
ATOM      8  C   LIG A   1      -9.180  -3.817 127.536  0.00  0.00    +0.004 C 
BRANCH   8   9
ATOM      9  C   LIG A   1      -7.894  -3.655 128.655  0.00  0.00    +0.000 C 
BRANCH   9  10
ATOM     10  C   LIG A   1      -7.998  -2.553 129.809  0.00  0.00    -0.003 C 
ATOM     11  C   LIG A   1      -7.398  -2.766 131.246  0.00  0.00    +0.004 C 
ENDBRANCH   9  10
ENDBRANCH   8   9
ENDBRANCH   7   8
ENDBRANCH   6   7
ENDBRANCH   4   5
ENDBRANCH   3   4
ENDBRANCH   1   2
BRANCH   1  12
ATOM     12  C   LIG A   1      -5.400  -2.256 126.079  0.00  0.00    +0.004 C 
BRANCH  12  13
ATOM     13  C   LIG A   1      -6.165  -1.004 126.954  0.00  0.00    +0.000 C 
BRANCH  13  14
ATOM     14  C   LIG A   1      -7.051   0.123 126.084  0.00  0.00    +0.000 C 
BRANCH  14  15
ATOM     15  C   LIG A   1      -6.464   1.287 125.018  0.00  0.00    +0.000 C 
BRANCH  15  16
ATOM     16  C   LIG A   1      -6.953   1.714 123.541  0.00  0.00    +0.011 C 
BRANCH  16  17
ATOM     17  C   LIG A   1      -8.404   2.083 123.164  0.00  0.00    +0.120 C 
BRANCH  17  18
ATOM     18  C   LIG A   1      -9.289   2.342 124.359  0.00  0.00    +0.305 C 
ATOM     19  O   LIG A   1     -10.002   1.593 124.887  0.00  0.00    -0.251 OA
BRANCH  18  20
ATOM     20  O   LIG A   1      -9.013   3.581 124.867  0.00  0.00    -0.481 OA
ATOM     21  H   LIG A   1      -9.581   4.177 124.338  0.00  0.00    +0.295 HD
ENDBRANCH  18  20
ENDBRANCH  17  18
ENDBRANCH  16  17
ENDBRANCH  15  16
ENDBRANCH  14  15
ENDBRANCH  13  14
ENDBRANCH  12  13
ENDBRANCH   1  12
TORSDOF 15
ENDMDL
MODEL 3
REMARK VINA RESULT:      -6.6      1.513      3.764
REMARK  Name = NuBBE_2146
REMARK  16 active torsions:
REMARK  status: ('A' for Active; 'I' for Inactive)
REMARK    1  A    between atoms: O_1  and  C_2
REMARK    2  A    between atoms: C_2  and  C_3
REMARK    3  A    between atoms: C_3  and  C_4
REMARK    4  A    between atoms: C_4  and  C_5
REMARK    5  A    between atoms: C_5  and  C_6
REMARK    6  A    between atoms: C_6  and  C_7
REMARK    7  A    between atoms: C_7  and  C_8
REMARK    8  A    between atoms: C_8  and  C_9
REMARK    9  A    between atoms: C_9  and  C_10
REMARK   10  A    between atoms: C_11  and  C_12
REMARK   11  A    between atoms: C_12  and  C_13
REMARK   12  A    between atoms: C_14  and  C_15
REMARK   13  A    between atoms: C_15  and  C_16
REMARK   14  A    between atoms: C_16  and  C_17
REMARK   15  A    between atoms: C_17  and  C_18
REMARK   16  A    between atoms: C_18  and  C_19
REMARK                            x       y       z     vdW  Elec       q    Type
REMARK                         _______ _______ _______ _____ _____    ______ ____
ROOT
ATOM      1  C   LIG A   1      -6.381  -0.411 125.747  0.00  0.00    +0.027 C 
ENDROOT
BRANCH   1   2
ATOM      2  C   LIG A   1      -5.704  -1.718 125.313  0.00  0.00    -0.031 C 
ATOM      3  C   LIG A   1      -5.718  -2.181 124.027  0.00  0.00    -0.027 C 
BRANCH   3   4
ATOM      4  C   LIG A   1      -6.486  -1.719 122.749  0.00  0.00    +0.054 C 
BRANCH   4   5
ATOM      5  C   LIG A   1      -7.973  -2.045 122.551  0.00  0.00    -0.027 C 
ATOM      6  C   LIG A   1      -8.885  -2.787 123.276  0.00  0.00    -0.031 C 
BRANCH   6   7
ATOM      7  C   LIG A   1      -8.773  -3.438 124.744  0.00  0.00    +0.027 C 
BRANCH   7   8
ATOM      8  C   LIG A   1      -9.554  -3.212 126.223  0.00  0.00    +0.004 C 
BRANCH   8   9
ATOM      9  C   LIG A   1      -8.900  -3.907 127.644  0.00  0.00    +0.000 C 
BRANCH   9  10
ATOM     10  C   LIG A   1      -8.027  -2.997 128.627  0.00  0.00    -0.003 C 
ATOM     11  C   LIG A   1      -7.045  -3.600 129.697  0.00  0.00    +0.004 C 
ENDBRANCH   9  10
ENDBRANCH   8   9
ENDBRANCH   7   8
ENDBRANCH   6   7
ENDBRANCH   4   5
ENDBRANCH   3   4
ENDBRANCH   1   2
BRANCH   1  12
ATOM     12  C   LIG A   1      -7.910  -0.037 126.449  0.00  0.00    +0.004 C 
BRANCH  12  13
ATOM     13  C   LIG A   1      -9.278   0.870 125.980  0.00  0.00    +0.000 C 
BRANCH  13  14
ATOM     14  C   LIG A   1      -9.555   1.069 124.337  0.00  0.00    +0.000 C 
BRANCH  14  15
ATOM     15  C   LIG A   1      -8.428   1.456 123.148  0.00  0.00    +0.000 C 
BRANCH  15  16
ATOM     16  C   LIG A   1      -7.057   2.306 123.222  0.00  0.00    +0.011 C 
BRANCH  16  17
ATOM     17  C   LIG A   1      -6.649   3.410 122.222  0.00  0.00    +0.120 C 
BRANCH  17  18
ATOM     18  C   LIG A   1      -5.485   4.247 122.691  0.00  0.00    +0.305 C 
ATOM     19  O   LIG A   1      -4.831   4.968 122.056  0.00  0.00    -0.251 OA
BRANCH  18  20
ATOM     20  O   LIG A   1      -5.393   4.173 124.052  0.00  0.00    -0.481 OA
ATOM     21  H   LIG A   1      -5.164   3.236 124.216  0.00  0.00    +0.295 HD
ENDBRANCH  18  20
ENDBRANCH  17  18
ENDBRANCH  16  17
ENDBRANCH  15  16
ENDBRANCH  14  15
ENDBRANCH  13  14
ENDBRANCH  12  13
ENDBRANCH   1  12
TORSDOF 15
ENDMDL
MODEL 4
REMARK VINA RESULT:      -6.6      2.232      4.482
REMARK  Name = NuBBE_2146
REMARK  16 active torsions:
REMARK  status: ('A' for Active; 'I' for Inactive)
REMARK    1  A    between atoms: O_1  and  C_2
REMARK    2  A    between atoms: C_2  and  C_3
REMARK    3  A    between atoms: C_3  and  C_4
REMARK    4  A    between atoms: C_4  and  C_5
REMARK    5  A    between atoms: C_5  and  C_6
REMARK    6  A    between atoms: C_6  and  C_7
REMARK    7  A    between atoms: C_7  and  C_8
REMARK    8  A    between atoms: C_8  and  C_9
REMARK    9  A    between atoms: C_9  and  C_10
REMARK   10  A    between atoms: C_11  and  C_12
REMARK   11  A    between atoms: C_12  and  C_13
REMARK   12  A    between atoms: C_14  and  C_15
REMARK   13  A    between atoms: C_15  and  C_16
REMARK   14  A    between atoms: C_16  and  C_17
REMARK   15  A    between atoms: C_17  and  C_18
REMARK   16  A    between atoms: C_18  and  C_19
REMARK                            x       y       z     vdW  Elec       q    Type
REMARK                         _______ _______ _______ _____ _____    ______ ____
ROOT
ATOM      1  C   LIG A   1      -6.572  -0.324 125.600  0.00  0.00    +0.027 C 
ENDROOT
BRANCH   1   2
ATOM      2  C   LIG A   1      -5.655  -1.504 125.949  0.00  0.00    -0.031 C 
ATOM      3  C   LIG A   1      -5.637  -2.104 127.177  0.00  0.00    -0.027 C 
BRANCH   3   4
ATOM      4  C   LIG A   1      -6.301  -1.735 128.540  0.00  0.00    +0.054 C 
BRANCH   4   5
ATOM      5  C   LIG A   1      -7.375  -2.631 129.173  0.00  0.00    -0.027 C 
ATOM      6  C   LIG A   1      -8.433  -3.352 128.654  0.00  0.00    -0.031 C 
BRANCH   6   7
ATOM      7  C   LIG A   1      -8.821  -3.691 127.129  0.00  0.00    +0.027 C 
BRANCH   7   8
ATOM      8  C   LIG A   1      -9.465  -2.825 125.831  0.00  0.00    +0.004 C 
BRANCH   8   9
ATOM      9  C   LIG A   1      -9.180  -3.357 124.229  0.00  0.00    +0.000 C 
BRANCH   9  10
ATOM     10  C   LIG A   1      -8.772  -2.287 123.113  0.00  0.00    -0.003 C 
ATOM     11  C   LIG A   1      -7.301  -2.127 122.584  0.00  0.00    +0.004 C 
ENDBRANCH   9  10
ENDBRANCH   8   9
ENDBRANCH   7   8
ENDBRANCH   6   7
ENDBRANCH   4   5
ENDBRANCH   3   4
ENDBRANCH   1   2
BRANCH   1  12
ATOM     12  C   LIG A   1      -6.299   1.354 125.323  0.00  0.00    +0.004 C 
BRANCH  12  13
ATOM     13  C   LIG A   1      -5.447   2.600 126.123  0.00  0.00    +0.000 C 
BRANCH  13  14
ATOM     14  C   LIG A   1      -5.068   3.974 125.238  0.00  0.00    +0.000 C 
BRANCH  14  15
ATOM     15  C   LIG A   1      -5.592   4.372 123.689  0.00  0.00    +0.000 C 
BRANCH  15  16
ATOM     16  C   LIG A   1      -4.806   4.406 122.279  0.00  0.00    +0.011 C 
BRANCH  16  17
ATOM     17  C   LIG A   1      -5.468   4.220 120.896  0.00  0.00    +0.120 C 
BRANCH  17  18
ATOM     18  C   LIG A   1      -5.213   5.366 119.947  0.00  0.00    +0.305 C 
ATOM     19  O   LIG A   1      -5.718   5.558 118.919  0.00  0.00    -0.251 OA
BRANCH  18  20
ATOM     20  O   LIG A   1      -4.394   6.279 120.550  0.00  0.00    -0.481 OA
ATOM     21  H   LIG A   1      -4.680   6.262 121.485  0.00  0.00    +0.295 HD
ENDBRANCH  18  20
ENDBRANCH  17  18
ENDBRANCH  16  17
ENDBRANCH  15  16
ENDBRANCH  14  15
ENDBRANCH  13  14
ENDBRANCH  12  13
ENDBRANCH   1  12
TORSDOF 15
ENDMDL
MODEL 5
REMARK VINA RESULT:      -6.6      3.537      5.531
REMARK  Name = NuBBE_2146
REMARK  16 active torsions:
REMARK  status: ('A' for Active; 'I' for Inactive)
REMARK    1  A    between atoms: O_1  and  C_2
REMARK    2  A    between atoms: C_2  and  C_3
REMARK    3  A    between atoms: C_3  and  C_4
REMARK    4  A    between atoms: C_4  and  C_5
REMARK    5  A    between atoms: C_5  and  C_6
REMARK    6  A    between atoms: C_6  and  C_7
REMARK    7  A    between atoms: C_7  and  C_8
REMARK    8  A    between atoms: C_8  and  C_9
REMARK    9  A    between atoms: C_9  and  C_10
REMARK   10  A    between atoms: C_11  and  C_12
REMARK   11  A    between atoms: C_12  and  C_13
REMARK   12  A    between atoms: C_14  and  C_15
REMARK   13  A    between atoms: C_15  and  C_16
REMARK   14  A    between atoms: C_16  and  C_17
REMARK   15  A    between atoms: C_17  and  C_18
REMARK   16  A    between atoms: C_18  and  C_19
REMARK                            x       y       z     vdW  Elec       q    Type
REMARK                         _______ _______ _______ _____ _____    ______ ____
ROOT
ATOM      1  C   LIG A   1      -9.403  -3.320 124.786  0.00  0.00    +0.027 C 
ENDROOT
BRANCH   1   2
ATOM      2  C   LIG A   1      -8.945  -2.912 123.379  0.00  0.00    -0.031 C 
ATOM      3  C   LIG A   1      -8.711  -1.616 123.011  0.00  0.00    -0.027 C 
BRANCH   3   4
ATOM      4  C   LIG A   1      -8.977  -0.254 123.724  0.00  0.00    +0.054 C 
BRANCH   4   5
ATOM      5  C   LIG A   1      -9.121  -0.166 125.249  0.00  0.00    -0.027 C 
ATOM      6  C   LIG A   1      -8.211  -0.168 126.288  0.00  0.00    -0.031 C 
BRANCH   6   7
ATOM      7  C   LIG A   1      -6.605  -0.060 126.273  0.00  0.00    +0.027 C 
BRANCH   7   8
ATOM      8  C   LIG A   1      -5.347  -0.924 125.553  0.00  0.00    +0.004 C 
BRANCH   8   9
ATOM      9  C   LIG A   1      -5.592  -2.554 125.089  0.00  0.00    +0.000 C 
BRANCH   9  10
ATOM     10  C   LIG A   1      -4.919  -3.090 123.741  0.00  0.00    -0.003 C 
ATOM     11  C   LIG A   1      -4.359  -4.551 123.592  0.00  0.00    +0.004 C 
ENDBRANCH   9  10
ENDBRANCH   8   9
ENDBRANCH   7   8
ENDBRANCH   6   7
ENDBRANCH   4   5
ENDBRANCH   3   4
ENDBRANCH   1   2
BRANCH   1  12
ATOM     12  C   LIG A   1      -8.571  -3.706 126.244  0.00  0.00    +0.004 C 
BRANCH  12  13
ATOM     13  C   LIG A   1      -9.020  -3.992 127.866  0.00  0.00    +0.000 C 
BRANCH  13  14
ATOM     14  C   LIG A   1      -8.312  -3.036 129.049  0.00  0.00    +0.000 C 
BRANCH  14  15
ATOM     15  C   LIG A   1      -6.702  -2.554 129.149  0.00  0.00    +0.000 C 
BRANCH  15  16
ATOM     16  C   LIG A   1      -5.368  -3.381 129.523  0.00  0.00    +0.011 C 
BRANCH  16  17
ATOM     17  C   LIG A   1      -3.927  -2.920 129.209  0.00  0.00    +0.120 C 
BRANCH  17  18
ATOM     18  C   LIG A   1      -3.370  -1.950 130.221  0.00  0.00    +0.305 C 
ATOM     19  O   LIG A   1      -2.679  -2.189 131.123  0.00  0.00    -0.251 OA
BRANCH  18  20
ATOM     20  O   LIG A   1      -3.662  -0.673 129.832  0.00  0.00    -0.481 OA
ATOM     21  H   LIG A   1      -2.806  -0.205 129.920  0.00  0.00    +0.295 HD
ENDBRANCH  18  20
ENDBRANCH  17  18
ENDBRANCH  16  17
ENDBRANCH  15  16
ENDBRANCH  14  15
ENDBRANCH  13  14
ENDBRANCH  12  13
ENDBRANCH   1  12
TORSDOF 15
ENDMDL
MODEL 6
REMARK VINA RESULT:      -6.5      2.618      5.305
REMARK  Name = NuBBE_2146
REMARK  16 active torsions:
REMARK  status: ('A' for Active; 'I' for Inactive)
REMARK    1  A    between atoms: O_1  and  C_2
REMARK    2  A    between atoms: C_2  and  C_3
REMARK    3  A    between atoms: C_3  and  C_4
REMARK    4  A    between atoms: C_4  and  C_5
REMARK    5  A    between atoms: C_5  and  C_6
REMARK    6  A    between atoms: C_6  and  C_7
REMARK    7  A    between atoms: C_7  and  C_8
REMARK    8  A    between atoms: C_8  and  C_9
REMARK    9  A    between atoms: C_9  and  C_10
REMARK   10  A    between atoms: C_11  and  C_12
REMARK   11  A    between atoms: C_12  and  C_13
REMARK   12  A    between atoms: C_14  and  C_15
REMARK   13  A    between atoms: C_15  and  C_16
REMARK   14  A    between atoms: C_16  and  C_17
REMARK   15  A    between atoms: C_17  and  C_18
REMARK   16  A    between atoms: C_18  and  C_19
REMARK                            x       y       z     vdW  Elec       q    Type
REMARK                         _______ _______ _______ _____ _____    ______ ____
ROOT
ATOM      1  C   LIG A   1      -7.491  -2.464 123.033  0.00  0.00    +0.027 C 
ENDROOT
BRANCH   1   2
ATOM      2  C   LIG A   1      -8.957  -2.619 123.458  0.00  0.00    -0.031 C 
ATOM      3  C   LIG A   1      -9.340  -3.100 124.680  0.00  0.00    -0.027 C 
BRANCH   3   4
ATOM      4  C   LIG A   1      -8.543  -3.759 125.848  0.00  0.00    +0.054 C 
BRANCH   4   5
ATOM      5  C   LIG A   1      -9.064  -3.721 127.291  0.00  0.00    -0.027 C 
ATOM      6  C   LIG A   1      -8.468  -3.445 128.507  0.00  0.00    -0.031 C 
BRANCH   6   7
ATOM      7  C   LIG A   1      -7.012  -2.849 128.847  0.00  0.00    +0.027 C 
BRANCH   7   8
ATOM      8  C   LIG A   1      -5.819  -3.170 129.997  0.00  0.00    +0.004 C 
BRANCH   8   9
ATOM      9  C   LIG A   1      -5.590  -4.770 130.560  0.00  0.00    +0.000 C 
BRANCH   9  10
ATOM     10  C   LIG A   1      -5.294  -5.015 132.113  0.00  0.00    -0.003 C 
ATOM     11  C   LIG A   1      -3.962  -4.554 132.809  0.00  0.00    +0.004 C 
ENDBRANCH   9  10
ENDBRANCH   8   9
ENDBRANCH   7   8
ENDBRANCH   6   7
ENDBRANCH   4   5
ENDBRANCH   3   4
ENDBRANCH   1   2
BRANCH   1  12
ATOM     12  C   LIG A   1      -6.020  -2.222 123.896  0.00  0.00    +0.004 C 
BRANCH  12  13
ATOM     13  C   LIG A   1      -5.600  -1.737 125.478  0.00  0.00    +0.000 C 
BRANCH  13  14
ATOM     14  C   LIG A   1      -6.343  -0.365 126.095  0.00  0.00    +0.000 C 
BRANCH  14  15
ATOM     15  C   LIG A   1      -7.983  -0.138 126.400  0.00  0.00    +0.000 C 
BRANCH  15  16
ATOM     16  C   LIG A   1      -9.143   0.545 125.509  0.00  0.00    +0.011 C 
BRANCH  16  17
ATOM     17  C   LIG A   1      -8.973   1.010 124.047  0.00  0.00    +0.120 C 
BRANCH  17  18
ATOM     18  C   LIG A   1     -10.246   0.940 123.239  0.00  0.00    +0.305 C 
ATOM     19  O   LIG A   1     -10.394   0.455 122.195  0.00  0.00    -0.251 OA
BRANCH  18  20
ATOM     20  O   LIG A   1     -11.288   1.396 123.997  0.00  0.00    -0.481 OA
ATOM     21  H   LIG A   1     -11.516   2.252 123.582  0.00  0.00    +0.295 HD
ENDBRANCH  18  20
ENDBRANCH  17  18
ENDBRANCH  16  17
ENDBRANCH  15  16
ENDBRANCH  14  15
ENDBRANCH  13  14
ENDBRANCH  12  13
ENDBRANCH   1  12
TORSDOF 15
ENDMDL
MODEL 7
REMARK VINA RESULT:      -6.5      2.371      5.429
REMARK  Name = NuBBE_2146
REMARK  16 active torsions:
REMARK  status: ('A' for Active; 'I' for Inactive)
REMARK    1  A    between atoms: O_1  and  C_2
REMARK    2  A    between atoms: C_2  and  C_3
REMARK    3  A    between atoms: C_3  and  C_4
REMARK    4  A    between atoms: C_4  and  C_5
REMARK    5  A    between atoms: C_5  and  C_6
REMARK    6  A    between atoms: C_6  and  C_7
REMARK    7  A    between atoms: C_7  and  C_8
REMARK    8  A    between atoms: C_8  and  C_9
REMARK    9  A    between atoms: C_9  and  C_10
REMARK   10  A    between atoms: C_11  and  C_12
REMARK   11  A    between atoms: C_12  and  C_13
REMARK   12  A    between atoms: C_14  and  C_15
REMARK   13  A    between atoms: C_15  and  C_16
REMARK   14  A    between atoms: C_16  and  C_17
REMARK   15  A    between atoms: C_17  and  C_18
REMARK   16  A    between atoms: C_18  and  C_19
REMARK                            x       y       z     vdW  Elec       q    Type
REMARK                         _______ _______ _______ _____ _____    ______ ____
ROOT
ATOM      1  C   LIG A   1      -7.513  -2.304 123.133  0.00  0.00    +0.027 C 
ENDROOT
BRANCH   1   2
ATOM      2  C   LIG A   1      -8.968  -2.532 123.564  0.00  0.00    -0.031 C 
ATOM      3  C   LIG A   1      -9.323  -2.990 124.803  0.00  0.00    -0.027 C 
BRANCH   3   4
ATOM      4  C   LIG A   1      -8.491  -3.558 125.994  0.00  0.00    +0.054 C 
BRANCH   4   5
ATOM      5  C   LIG A   1      -9.119  -3.771 127.378  0.00  0.00    -0.027 C 
ATOM      6  C   LIG A   1      -8.646  -3.617 128.667  0.00  0.00    -0.031 C 
BRANCH   6   7
ATOM      7  C   LIG A   1      -7.287  -2.948 129.210  0.00  0.00    +0.027 C 
BRANCH   7   8
ATOM      8  C   LIG A   1      -6.771  -1.377 129.550  0.00  0.00    +0.004 C 
BRANCH   8   9
ATOM      9  C   LIG A   1      -7.889  -0.223 130.140  0.00  0.00    +0.000 C 
BRANCH   9  10
ATOM     10  C   LIG A   1      -7.701   1.316 129.750  0.00  0.00    -0.003 C 
ATOM     11  C   LIG A   1      -8.890   2.345 129.749  0.00  0.00    +0.004 C 
ENDBRANCH   9  10
ENDBRANCH   8   9
ENDBRANCH   7   8
ENDBRANCH   6   7
ENDBRANCH   4   5
ENDBRANCH   3   4
ENDBRANCH   1   2
BRANCH   1  12
ATOM     12  C   LIG A   1      -6.070  -1.898 123.981  0.00  0.00    +0.004 C 
BRANCH  12  13
ATOM     13  C   LIG A   1      -5.697  -1.274 125.526  0.00  0.00    +0.000 C 
BRANCH  13  14
ATOM     14  C   LIG A   1      -6.563   0.063 126.054  0.00  0.00    +0.000 C 
BRANCH  14  15
ATOM     15  C   LIG A   1      -8.205   0.141 126.415  0.00  0.00    +0.000 C 
BRANCH  15  16
ATOM     16  C   LIG A   1      -9.453   0.705 125.561  0.00  0.00    +0.011 C 
BRANCH  16  17
ATOM     17  C   LIG A   1      -9.372   1.188 124.097  0.00  0.00    +0.120 C 
BRANCH  17  18
ATOM     18  C   LIG A   1     -10.628   0.922 123.304  0.00  0.00    +0.305 C 
ATOM     19  O   LIG A   1     -10.726   0.316 122.317  0.00  0.00    -0.251 OA
BRANCH  18  20
ATOM     20  O   LIG A   1     -11.712   1.364 124.009  0.00  0.00    -0.481 OA
ATOM     21  H   LIG A   1     -12.010   2.148 123.505  0.00  0.00    +0.295 HD
ENDBRANCH  18  20
ENDBRANCH  17  18
ENDBRANCH  16  17
ENDBRANCH  15  16
ENDBRANCH  14  15
ENDBRANCH  13  14
ENDBRANCH  12  13
ENDBRANCH   1  12
TORSDOF 15
ENDMDL
MODEL 8
REMARK VINA RESULT:      -6.4      3.853      6.666
REMARK  Name = NuBBE_2146
REMARK  16 active torsions:
REMARK  status: ('A' for Active; 'I' for Inactive)
REMARK    1  A    between atoms: O_1  and  C_2
REMARK    2  A    between atoms: C_2  and  C_3
REMARK    3  A    between atoms: C_3  and  C_4
REMARK    4  A    between atoms: C_4  and  C_5
REMARK    5  A    between atoms: C_5  and  C_6
REMARK    6  A    between atoms: C_6  and  C_7
REMARK    7  A    between atoms: C_7  and  C_8
REMARK    8  A    between atoms: C_8  and  C_9
REMARK    9  A    between atoms: C_9  and  C_10
REMARK   10  A    between atoms: C_11  and  C_12
REMARK   11  A    between atoms: C_12  and  C_13
REMARK   12  A    between atoms: C_14  and  C_15
REMARK   13  A    between atoms: C_15  and  C_16
REMARK   14  A    between atoms: C_16  and  C_17
REMARK   15  A    between atoms: C_17  and  C_18
REMARK   16  A    between atoms: C_18  and  C_19
REMARK                            x       y       z     vdW  Elec       q    Type
REMARK                         _______ _______ _______ _____ _____    ______ ____
ROOT
ATOM      1  C   LIG A   1      -8.486  -2.914 127.017  0.00  0.00    +0.027 C 
ENDROOT
BRANCH   1   2
ATOM      2  C   LIG A   1      -8.534  -3.766 128.292  0.00  0.00    -0.031 C 
ATOM      3  C   LIG A   1      -8.366  -3.251 129.548  0.00  0.00    -0.027 C 
BRANCH   3   4
ATOM      4  C   LIG A   1      -7.929  -1.843 130.059  0.00  0.00    +0.054 C 
BRANCH   4   5
ATOM      5  C   LIG A   1      -7.611  -1.595 131.540  0.00  0.00    -0.027 C 
ATOM      6  C   LIG A   1      -7.038  -2.372 132.529  0.00  0.00    -0.031 C 
BRANCH   6   7
ATOM      7  C   LIG A   1      -6.289  -3.794 132.440  0.00  0.00    +0.027 C 
BRANCH   7   8
ATOM      8  C   LIG A   1      -5.239  -4.534 131.346  0.00  0.00    +0.004 C 
BRANCH   8   9
ATOM      9  C   LIG A   1      -3.990  -3.620 130.613  0.00  0.00    +0.000 C 
BRANCH   9  10
ATOM     10  C   LIG A   1      -3.974  -3.457 129.023  0.00  0.00    -0.003 C 
ATOM     11  C   LIG A   1      -4.913  -2.452 128.261  0.00  0.00    +0.004 C 
ENDBRANCH   9  10
ENDBRANCH   8   9
ENDBRANCH   7   8
ENDBRANCH   6   7
ENDBRANCH   4   5
ENDBRANCH   3   4
ENDBRANCH   1   2
BRANCH   1  12
ATOM     12  C   LIG A   1      -9.361  -2.939 125.534  0.00  0.00    +0.004 C 
BRANCH  12  13
ATOM     13  C   LIG A   1      -9.010  -3.360 123.916  0.00  0.00    +0.000 C 
BRANCH  13  14
ATOM     14  C   LIG A   1      -8.477  -2.141 122.894  0.00  0.00    +0.000 C 
BRANCH  14  15
ATOM     15  C   LIG A   1      -6.886  -1.689 122.583  0.00  0.00    +0.000 C 
BRANCH  15  16
ATOM     16  C   LIG A   1      -5.499  -2.498 122.755  0.00  0.00    +0.011 C 
BRANCH  16  17
ATOM     17  C   LIG A   1      -5.139  -3.379 123.972  0.00  0.00    +0.120 C 
BRANCH  17  18
ATOM     18  C   LIG A   1      -4.292  -4.577 123.618  0.00  0.00    +0.305 C 
ATOM     19  O   LIG A   1      -3.140  -4.610 123.473  0.00  0.00    -0.251 OA
BRANCH  18  20
ATOM     20  O   LIG A   1      -5.064  -5.703 123.652  0.00  0.00    -0.481 OA
ATOM     21  H   LIG A   1      -4.440  -6.417 123.410  0.00  0.00    +0.295 HD
ENDBRANCH  18  20
ENDBRANCH  17  18
ENDBRANCH  16  17
ENDBRANCH  15  16
ENDBRANCH  14  15
ENDBRANCH  13  14
ENDBRANCH  12  13
ENDBRANCH   1  12
TORSDOF 15
ENDMDL
MODEL 9
REMARK VINA RESULT:      -6.2      3.922      6.150
REMARK  Name = NuBBE_2146
REMARK  16 active torsions:
REMARK  status: ('A' for Active; 'I' for Inactive)
REMARK    1  A    between atoms: O_1  and  C_2
REMARK    2  A    between atoms: C_2  and  C_3
REMARK    3  A    between atoms: C_3  and  C_4
REMARK    4  A    between atoms: C_4  and  C_5
REMARK    5  A    between atoms: C_5  and  C_6
REMARK    6  A    between atoms: C_6  and  C_7
REMARK    7  A    between atoms: C_7  and  C_8
REMARK    8  A    between atoms: C_8  and  C_9
REMARK    9  A    between atoms: C_9  and  C_10
REMARK   10  A    between atoms: C_11  and  C_12
REMARK   11  A    between atoms: C_12  and  C_13
REMARK   12  A    between atoms: C_14  and  C_15
REMARK   13  A    between atoms: C_15  and  C_16
REMARK   14  A    between atoms: C_16  and  C_17
REMARK   15  A    between atoms: C_17  and  C_18
REMARK   16  A    between atoms: C_18  and  C_19
REMARK                            x       y       z     vdW  Elec       q    Type
REMARK                         _______ _______ _______ _____ _____    ______ ____
ROOT
ATOM      1  C   LIG A   1      -9.152  -2.700 125.527  0.00  0.00    +0.027 C 
ENDROOT
BRANCH   1   2
ATOM      2  C   LIG A   1      -9.487  -3.131 124.093  0.00  0.00    -0.031 C 
ATOM      3  C   LIG A   1      -8.679  -2.872 123.021  0.00  0.00    -0.027 C 
BRANCH   3   4
ATOM      4  C   LIG A   1      -7.400  -1.993 122.854  0.00  0.00    +0.054 C 
BRANCH   4   5
ATOM      5  C   LIG A   1      -6.114  -2.300 123.634  0.00  0.00    -0.027 C 
ATOM      6  C   LIG A   1      -5.479  -1.682 124.694  0.00  0.00    -0.031 C 
BRANCH   6   7
ATOM      7  C   LIG A   1      -5.972  -0.492 125.660  0.00  0.00    +0.027 C 
BRANCH   7   8
ATOM      8  C   LIG A   1      -7.417   0.349 125.892  0.00  0.00    +0.004 C 
BRANCH   8   9
ATOM      9  C   LIG A   1      -8.077   1.276 124.614  0.00  0.00    +0.000 C 
BRANCH   9  10
ATOM     10  C   LIG A   1      -9.611   1.071 124.212  0.00  0.00    -0.003 C 
ATOM     11  C   LIG A   1     -10.061   0.602 122.780  0.00  0.00    +0.004 C 
ENDBRANCH   9  10
ENDBRANCH   8   9
ENDBRANCH   7   8
ENDBRANCH   6   7
ENDBRANCH   4   5
ENDBRANCH   3   4
ENDBRANCH   1   2
BRANCH   1  12
ATOM     12  C   LIG A   1      -9.091  -3.528 127.036  0.00  0.00    +0.004 C 
BRANCH  12  13
ATOM     13  C   LIG A   1      -8.081  -3.484 128.412  0.00  0.00    +0.000 C 
BRANCH  13  14
ATOM     14  C   LIG A   1      -7.885  -2.009 129.186  0.00  0.00    +0.000 C 
BRANCH  14  15
ATOM     15  C   LIG A   1      -6.472  -1.104 129.323  0.00  0.00    +0.000 C 
BRANCH  15  16
ATOM     16  C   LIG A   1      -4.939  -1.470 128.974  0.00  0.00    +0.011 C 
BRANCH  16  17
ATOM     17  C   LIG A   1      -4.401  -2.903 128.770  0.00  0.00    +0.120 C 
BRANCH  17  18
ATOM     18  C   LIG A   1      -4.426  -3.742 130.024  0.00  0.00    +0.305 C 
ATOM     19  O   LIG A   1      -5.219  -4.533 130.329  0.00  0.00    -0.251 OA
BRANCH  18  20
ATOM     20  O   LIG A   1      -3.259  -3.562 130.712  0.00  0.00    -0.481 OA
ATOM     21  H   LIG A   1      -2.997  -2.647 130.484  0.00  0.00    +0.295 HD
ENDBRANCH  18  20
ENDBRANCH  17  18
ENDBRANCH  16  17
ENDBRANCH  15  16
ENDBRANCH  14  15
ENDBRANCH  13  14
ENDBRANCH  12  13
ENDBRANCH   1  12
TORSDOF 15
ENDMDL
