MODEL 1
REMARK VINA RESULT:      -9.0      0.000      0.000
REMARK  Name = NuBBE_962
REMARK  15 active torsions:
REMARK  status: ('A' for Active; 'I' for Inactive)
REMARK    1  A    between atoms: C_1  and  O_2
REMARK    2  A    between atoms: O_2  and  C_3
REMARK    3  A    between atoms: C_3  and  C_4
REMARK    4  A    between atoms: C_4  and  C_5
REMARK    5  A    between atoms: C_7  and  C_45
REMARK    6  A    between atoms: C_16  and  O_21
REMARK    7  A    between atoms: C_18  and  C_19
REMARK    8  A    between atoms: C_18  and  C_20
REMARK    9  A    between atoms: O_21  and  C_22
REMARK   10  A    between atoms: C_22  and  C_23
REMARK   11  A    between atoms: C_23  and  C_24
REMARK   12  A    between atoms: C_24  and  C_25
REMARK   13  A    between atoms: C_26  and  C_27
REMARK   14  A    between atoms: C_33  and  C_35
REMARK   15  A    between atoms: C_41  and  C_42
REMARK                            x       y       z     vdW  Elec       q    Type
REMARK                         _______ _______ _______ _____ _____    ______ ____
ROOT
ATOM      1  C   LIG A   1      -7.102   4.722 131.015  0.00  0.00    +0.021 C 
ATOM      2  C   LIG A   1      -6.860   4.158 132.494  0.00  0.00    +0.037 C 
ATOM      3  C   LIG A   1      -6.605   2.635 132.763  0.00  0.00    +0.028 C 
ATOM      4  C   LIG A   1      -7.772   1.728 132.432  0.00  0.00    -0.064 C 
ATOM      5  C   LIG A   1      -9.153   2.230 132.842  0.00  0.00    +0.044 C 
ATOM      6  C   LIG A   1      -9.386   3.747 132.717  0.00  0.00    +0.089 C 
ATOM      7  C   LIG A   1      -8.163   4.417 133.276  0.00  0.00    +0.146 C 
ATOM      8  O   LIG A   1      -8.218   5.030 134.342  0.00  0.00    -0.296 OA
ATOM      9  C   LIG A   1      -9.677   4.384 131.338  0.00  0.00    +0.135 C 
ATOM     10  C   LIG A   1      -8.487   4.260 130.303  0.00  0.00    -0.004 C 
ATOM     11  C   LIG A   1      -8.745   5.202 129.080  0.00  0.00    +0.014 C 
ATOM     12  C   LIG A   1      -8.549   2.884 129.613  0.00  0.00    +0.014 C 
ATOM     13  C   LIG A   1      -7.565   0.481 131.950  0.00  0.00    -0.050 C 
ATOM     14  C   LIG A   1      -8.493  -0.644 132.320  0.00  0.00    +0.152 C 
ATOM     15  C   LIG A   1      -7.677  -1.786 132.925  0.00  0.00    +0.312 C 
ATOM     16  O   LIG A   1      -6.575  -2.185 132.237  0.00  0.00    -0.455 OA
ATOM     17  C   LIG A   1      -6.253  -1.503 131.008  0.00  0.00    +0.219 C 
ATOM     18  O   LIG A   1      -7.995  -2.339 133.974  0.00  0.00    -0.251 OA
ATOM     19  C   LIG A   1      -6.277   0.057 131.247  0.00  0.00    +0.031 C 
ATOM     20  C   LIG A   1      -6.114   0.745 129.878  0.00  0.00    +0.020 C 
ATOM     21  C   LIG A   1      -5.132   0.559 132.166  0.00  0.00    +0.015 C 
ATOM     22  C   LIG A   1      -5.201   2.088 132.402  0.00  0.00    +0.010 C 
ATOM     23  C   LIG A   1      -5.763   4.968 133.220  0.00  0.00    +0.020 C 
ENDROOT
BRANCH  17  24
ATOM     24  C   LIG A   1      -7.082  -2.052 129.840  0.00  0.00    +0.031 A 
ATOM     25  C   LIG A   1      -7.352  -1.420 128.634  0.00  0.00    +0.202 A 
ATOM     26  O   LIG A   1      -8.143  -2.182 127.834  0.00  0.00    -0.471 OA
ATOM     27  C   LIG A   1      -8.371  -3.341 128.491  0.00  0.00    +0.195 A 
ATOM     28  C   LIG A   1      -7.716  -3.331 129.698  0.00  0.00    +0.048 A 
ENDBRANCH  17  24
BRANCH   1  29
ATOM     29  C   LIG A   1      -5.870   4.811 130.035  0.00  0.00    +0.125 C 
BRANCH  29  30
ATOM     30  C   LIG A   1      -5.234   6.167 129.731  0.00  0.00    +0.307 C 
ATOM     31  O   LIG A   1      -5.420   7.227 130.352  0.00  0.00    -0.251 OA
BRANCH  30  33
ATOM     32  C   LIG A   1      -3.439   7.076 128.410  0.00  0.00    +0.280 C 
ATOM     33  O   LIG A   1      -4.446   6.059 128.619  0.00  0.00    -0.468 OA
ENDBRANCH  30  33
ENDBRANCH  29  30
ENDBRANCH   1  29
BRANCH   9  34
ATOM     34  O   LIG A   1      -9.958   5.803 131.456  0.00  0.00    -0.367 OA
BRANCH  34  35
ATOM     35  C   LIG A   1     -11.201   6.199 132.009  0.00  0.00    +0.239 C 
BRANCH  35  36
ATOM     36  C   LIG A   1     -12.228   6.990 131.180  0.00  0.00    +0.184 C 
ATOM     37  O   LIG A   1     -13.204   7.506 131.732  0.00  0.00    -0.290 OA
BRANCH  36  38
ATOM     38  C   LIG A   1     -12.004   7.228 129.704  0.00  0.00    -0.010 C 
ATOM     39  C   LIG A   1     -12.957   6.462 128.825  0.00  0.00    +0.047 C 
ATOM     40  C   LIG A   1     -11.032   8.055 129.269  0.00  0.00    -0.024 C 
ATOM     41  C   LIG A   1     -10.756   8.449 127.848  0.00  0.00    +0.035 C 
ENDBRANCH  36  38
ENDBRANCH  35  36
ENDBRANCH  34  35
ENDBRANCH   9  34
TORSDOF 8
ENDMDL
MODEL 2
REMARK VINA RESULT:      -8.9      1.791      2.253
REMARK  Name = NuBBE_962
REMARK  15 active torsions:
REMARK  status: ('A' for Active; 'I' for Inactive)
REMARK    1  A    between atoms: C_1  and  O_2
REMARK    2  A    between atoms: O_2  and  C_3
REMARK    3  A    between atoms: C_3  and  C_4
REMARK    4  A    between atoms: C_4  and  C_5
REMARK    5  A    between atoms: C_7  and  C_45
REMARK    6  A    between atoms: C_16  and  O_21
REMARK    7  A    between atoms: C_18  and  C_19
REMARK    8  A    between atoms: C_18  and  C_20
REMARK    9  A    between atoms: O_21  and  C_22
REMARK   10  A    between atoms: C_22  and  C_23
REMARK   11  A    between atoms: C_23  and  C_24
REMARK   12  A    between atoms: C_24  and  C_25
REMARK   13  A    between atoms: C_26  and  C_27
REMARK   14  A    between atoms: C_33  and  C_35
REMARK   15  A    between atoms: C_41  and  C_42
REMARK                            x       y       z     vdW  Elec       q    Type
REMARK                         _______ _______ _______ _____ _____    ______ ____
ROOT
ATOM      1  C   LIG A   1      -6.018   4.021 128.978  0.00  0.00    +0.021 C 
ATOM      2  C   LIG A   1      -5.723   3.545 130.479  0.00  0.00    +0.037 C 
ATOM      3  C   LIG A   1      -5.691   2.027 130.870  0.00  0.00    +0.028 C 
ATOM      4  C   LIG A   1      -7.016   1.307 130.728  0.00  0.00    -0.064 C 
ATOM      5  C   LIG A   1      -8.249   2.067 131.205  0.00  0.00    +0.044 C 
ATOM      6  C   LIG A   1      -8.246   3.587 130.956  0.00  0.00    +0.089 C 
ATOM      7  C   LIG A   1      -6.882   4.083 131.341  0.00  0.00    +0.146 C 
ATOM      8  O   LIG A   1      -6.730   4.780 132.344  0.00  0.00    -0.296 OA
ATOM      9  C   LIG A   1      -8.568   4.152 129.552  0.00  0.00    +0.135 C 
ATOM     10  C   LIG A   1      -7.523   3.746 128.435  0.00  0.00    -0.004 C 
ATOM     11  C   LIG A   1      -7.747   4.616 127.155  0.00  0.00    +0.014 C 
ATOM     12  C   LIG A   1      -7.875   2.348 127.889  0.00  0.00    +0.014 C 
ATOM     13  C   LIG A   1      -7.062   0.009 130.352  0.00  0.00    -0.050 C 
ATOM     14  C   LIG A   1      -8.117  -0.910 130.905  0.00  0.00    +0.152 C 
ATOM     15  C   LIG A   1      -7.440  -2.121 131.545  0.00  0.00    +0.312 C 
ATOM     16  O   LIG A   1      -6.491  -2.755 130.806  0.00  0.00    -0.455 OA
ATOM     17  C   LIG A   1      -6.188  -2.238 129.494  0.00  0.00    +0.219 C 
ATOM     18  O   LIG A   1      -7.736  -2.526 132.666  0.00  0.00    -0.251 OA
ATOM     19  C   LIG A   1      -5.936  -0.682 129.584  0.00  0.00    +0.031 C 
ATOM     20  C   LIG A   1      -5.803  -0.144 128.147  0.00  0.00    +0.020 C 
ATOM     21  C   LIG A   1      -4.639  -0.310 130.350  0.00  0.00    +0.015 C 
ATOM     22  C   LIG A   1      -4.436   1.223 130.444  0.00  0.00    +0.010 C 
ATOM     23  C   LIG A   1      -4.442   4.213 131.028  0.00  0.00    +0.020 C 
ENDROOT
BRANCH  17  24
ATOM     24  C   LIG A   1      -7.208  -2.730 128.460  0.00  0.00    +0.031 A 
ATOM     25  C   LIG A   1      -7.211  -2.470 127.097  0.00  0.00    +0.202 A 
ATOM     26  O   LIG A   1      -8.278  -3.040 126.479  0.00  0.00    -0.471 OA
ATOM     27  C   LIG A   1      -8.969  -3.715 127.425  0.00  0.00    +0.195 A 
ATOM     28  C   LIG A   1      -8.340  -3.593 128.639  0.00  0.00    +0.048 A 
ENDBRANCH  17  24
BRANCH   1  29
ATOM     29  C   LIG A   1      -4.892   3.821 127.893  0.00  0.00    +0.125 C 
BRANCH  29  30
ATOM     30  C   LIG A   1      -4.012   5.001 127.481  0.00  0.00    +0.307 C 
ATOM     31  O   LIG A   1      -4.402   6.095 127.036  0.00  0.00    -0.251 OA
BRANCH  30  33
ATOM     32  C   LIG A   1      -2.265   3.397 127.072  0.00  0.00    +0.280 C 
ATOM     33  O   LIG A   1      -2.697   4.659 127.630  0.00  0.00    -0.468 OA
ENDBRANCH  30  33
ENDBRANCH  29  30
ENDBRANCH   1  29
BRANCH   9  34
ATOM     34  O   LIG A   1      -8.604   5.602 129.557  0.00  0.00    -0.367 OA
BRANCH  34  35
ATOM     35  C   LIG A   1      -9.670   6.247 130.230  0.00  0.00    +0.239 C 
BRANCH  35  36
ATOM     36  C   LIG A   1     -11.024   6.485 129.536  0.00  0.00    +0.184 C 
ATOM     37  O   LIG A   1     -11.810   5.548 129.377  0.00  0.00    -0.290 OA
BRANCH  36  38
ATOM     38  C   LIG A   1     -11.445   7.880 129.134  0.00  0.00    -0.010 C 
ATOM     39  C   LIG A   1     -10.575   8.480 128.061  0.00  0.00    +0.047 C 
ATOM     40  C   LIG A   1     -12.505   8.483 129.708  0.00  0.00    -0.024 C 
ATOM     41  C   LIG A   1     -13.084   9.819 129.348  0.00  0.00    +0.035 C 
ENDBRANCH  36  38
ENDBRANCH  35  36
ENDBRANCH  34  35
ENDBRANCH   9  34
TORSDOF 8
ENDMDL
MODEL 3
REMARK VINA RESULT:      -8.7      2.450      6.704
REMARK  Name = NuBBE_962
REMARK  15 active torsions:
REMARK  status: ('A' for Active; 'I' for Inactive)
REMARK    1  A    between atoms: C_1  and  O_2
REMARK    2  A    between atoms: O_2  and  C_3
REMARK    3  A    between atoms: C_3  and  C_4
REMARK    4  A    between atoms: C_4  and  C_5
REMARK    5  A    between atoms: C_7  and  C_45
REMARK    6  A    between atoms: C_16  and  O_21
REMARK    7  A    between atoms: C_18  and  C_19
REMARK    8  A    between atoms: C_18  and  C_20
REMARK    9  A    between atoms: O_21  and  C_22
REMARK   10  A    between atoms: C_22  and  C_23
REMARK   11  A    between atoms: C_23  and  C_24
REMARK   12  A    between atoms: C_24  and  C_25
REMARK   13  A    between atoms: C_26  and  C_27
REMARK   14  A    between atoms: C_33  and  C_35
REMARK   15  A    between atoms: C_41  and  C_42
REMARK                            x       y       z     vdW  Elec       q    Type
REMARK                         _______ _______ _______ _____ _____    ______ ____
ROOT
ATOM      1  C   LIG A   1      -8.311   3.235 131.656  0.00  0.00    +0.021 C 
ATOM      2  C   LIG A   1      -7.800   3.620 130.187  0.00  0.00    +0.037 C 
ATOM      3  C   LIG A   1      -6.332   4.104 129.927  0.00  0.00    +0.028 C 
ATOM      4  C   LIG A   1      -5.975   5.425 130.576  0.00  0.00    -0.064 C 
ATOM      5  C   LIG A   1      -7.034   6.520 130.501  0.00  0.00    +0.044 C 
ATOM      6  C   LIG A   1      -8.498   6.054 130.617  0.00  0.00    +0.089 C 
ATOM      7  C   LIG A   1      -8.633   4.839 129.744  0.00  0.00    +0.146 C 
ATOM      8  O   LIG A   1      -9.284   4.888 128.701  0.00  0.00    -0.296 OA
ATOM      9  C   LIG A   1      -9.103   5.706 131.998  0.00  0.00    +0.135 C 
ATOM     10  C   LIG A   1      -8.422   4.466 132.709  0.00  0.00    -0.004 C 
ATOM     11  C   LIG A   1      -9.300   3.998 133.916  0.00  0.00    +0.014 C 
ATOM     12  C   LIG A   1      -7.154   4.933 133.448  0.00  0.00    +0.014 C 
ATOM     13  C   LIG A   1      -4.726   5.653 131.042  0.00  0.00    -0.050 C 
ATOM     14  C   LIG A   1      -4.119   7.027 130.963  0.00  0.00    +0.152 C 
ATOM     15  C   LIG A   1      -2.785   6.942 130.221  0.00  0.00    +0.312 C 
ATOM     16  O   LIG A   1      -1.916   5.980 130.630  0.00  0.00    -0.455 OA
ATOM     17  C   LIG A   1      -2.316   5.113 131.711  0.00  0.00    +0.219 C 
ATOM     18  O   LIG A   1      -2.488   7.707 129.308  0.00  0.00    -0.251 OA
ATOM     19  C   LIG A   1      -3.756   4.534 131.421  0.00  0.00    +0.031 C 
ATOM     20  C   LIG A   1      -4.217   3.770 132.676  0.00  0.00    +0.020 C 
ATOM     21  C   LIG A   1      -3.795   3.547 130.225  0.00  0.00    +0.015 C 
ATOM     22  C   LIG A   1      -5.225   3.019 129.950  0.00  0.00    +0.010 C 
ATOM     23  C   LIG A   1      -8.125   2.496 129.178  0.00  0.00    +0.020 C 
ENDROOT
BRANCH  17  24
ATOM     24  C   LIG A   1      -2.085   5.786 133.070  0.00  0.00    +0.031 A 
ATOM     25  C   LIG A   1      -0.916   6.380 133.523  0.00  0.00    +0.202 A 
ATOM     26  O   LIG A   1      -1.051   6.855 134.788  0.00  0.00    -0.471 OA
ATOM     27  C   LIG A   1      -2.325   6.612 135.168  0.00  0.00    +0.195 A 
ATOM     28  C   LIG A   1      -3.009   6.000 134.146  0.00  0.00    +0.048 A 
ENDBRANCH  17  24
BRANCH   1  29
ATOM     29  C   LIG A   1      -7.809   1.883 132.294  0.00  0.00    +0.125 C 
BRANCH  29  30
ATOM     30  C   LIG A   1      -8.697   0.639 132.240  0.00  0.00    +0.307 C 
ATOM     31  O   LIG A   1      -9.884   0.593 131.876  0.00  0.00    -0.251 OA
BRANCH  30  33
ATOM     32  C   LIG A   1      -6.628  -0.218 133.124  0.00  0.00    +0.280 C 
ATOM     33  O   LIG A   1      -7.995  -0.438 132.705  0.00  0.00    -0.468 OA
ENDBRANCH  30  33
ENDBRANCH  29  30
ENDBRANCH   1  29
BRANCH   9  34
ATOM     34  O   LIG A   1     -10.513   5.382 131.895  0.00  0.00    -0.367 OA
BRANCH  34  35
ATOM     35  C   LIG A   1     -11.422   6.425 131.588  0.00  0.00    +0.239 C 
BRANCH  35  36
ATOM     36  C   LIG A   1     -11.895   6.671 130.144  0.00  0.00    +0.184 C 
ATOM     37  O   LIG A   1     -12.262   5.724 129.443  0.00  0.00    -0.290 OA
BRANCH  36  38
ATOM     38  C   LIG A   1     -12.010   8.078 129.603  0.00  0.00    -0.010 C 
ATOM     39  C   LIG A   1     -11.019   8.380 128.510  0.00  0.00    +0.047 C 
ATOM     40  C   LIG A   1     -12.928   8.939 130.085  0.00  0.00    -0.024 C 
ATOM     41  C   LIG A   1     -13.210  10.326 129.586  0.00  0.00    +0.035 C 
ENDBRANCH  36  38
ENDBRANCH  35  36
ENDBRANCH  34  35
ENDBRANCH   9  34
TORSDOF 8
ENDMDL
MODEL 4
REMARK VINA RESULT:      -8.7      1.805      2.246
REMARK  Name = NuBBE_962
REMARK  15 active torsions:
REMARK  status: ('A' for Active; 'I' for Inactive)
REMARK    1  A    between atoms: C_1  and  O_2
REMARK    2  A    between atoms: O_2  and  C_3
REMARK    3  A    between atoms: C_3  and  C_4
REMARK    4  A    between atoms: C_4  and  C_5
REMARK    5  A    between atoms: C_7  and  C_45
REMARK    6  A    between atoms: C_16  and  O_21
REMARK    7  A    between atoms: C_18  and  C_19
REMARK    8  A    between atoms: C_18  and  C_20
REMARK    9  A    between atoms: O_21  and  C_22
REMARK   10  A    between atoms: C_22  and  C_23
REMARK   11  A    between atoms: C_23  and  C_24
REMARK   12  A    between atoms: C_24  and  C_25
REMARK   13  A    between atoms: C_26  and  C_27
REMARK   14  A    between atoms: C_33  and  C_35
REMARK   15  A    between atoms: C_41  and  C_42
REMARK                            x       y       z     vdW  Elec       q    Type
REMARK                         _______ _______ _______ _____ _____    ______ ____
ROOT
ATOM      1  C   LIG A   1      -5.932   4.261 129.253  0.00  0.00    +0.021 C 
ATOM      2  C   LIG A   1      -5.621   4.213 130.824  0.00  0.00    +0.037 C 
ATOM      3  C   LIG A   1      -5.461   2.855 131.590  0.00  0.00    +0.028 C 
ATOM      4  C   LIG A   1      -6.714   2.006 131.646  0.00  0.00    -0.064 C 
ATOM      5  C   LIG A   1      -8.018   2.748 131.920  0.00  0.00    +0.044 C 
ATOM      6  C   LIG A   1      -8.146   4.147 131.289  0.00  0.00    +0.089 C 
ATOM      7  C   LIG A   1      -6.839   4.847 131.526  0.00  0.00    +0.146 C 
ATOM      8  O   LIG A   1      -6.767   5.788 132.316  0.00  0.00    -0.296 OA
ATOM      9  C   LIG A   1      -8.493   4.303 129.789  0.00  0.00    +0.135 C 
ATOM     10  C   LIG A   1      -7.397   3.720 128.808  0.00  0.00    -0.004 C 
ATOM     11  C   LIG A   1      -7.675   4.211 127.348  0.00  0.00    +0.014 C 
ATOM     12  C   LIG A   1      -7.614   2.204 128.640  0.00  0.00    +0.014 C 
ATOM     13  C   LIG A   1      -6.638   0.656 131.615  0.00  0.00    -0.050 C 
ATOM     14  C   LIG A   1      -7.617  -0.182 132.393  0.00  0.00    +0.152 C 
ATOM     15  C   LIG A   1      -6.845  -1.123 133.317  0.00  0.00    +0.312 C 
ATOM     16  O   LIG A   1      -5.830  -1.836 132.760  0.00  0.00    -0.455 OA
ATOM     17  C   LIG A   1      -5.552  -1.646 131.357  0.00  0.00    +0.219 C 
ATOM     18  O   LIG A   1      -7.122  -1.253 134.506  0.00  0.00    -0.251 OA
ATOM     19  C   LIG A   1      -5.442  -0.103 131.044  0.00  0.00    +0.031 C 
ATOM     20  C   LIG A   1      -5.332   0.059 129.516  0.00  0.00    +0.020 C 
ATOM     21  C   LIG A   1      -4.197   0.568 131.681  0.00  0.00    +0.015 C 
ATOM     22  C   LIG A   1      -4.133   2.086 131.377  0.00  0.00    +0.010 C 
ATOM     23  C   LIG A   1      -4.415   5.113 131.175  0.00  0.00    +0.020 C 
ENDROOT
BRANCH  17  24
ATOM     24  C   LIG A   1      -6.507  -2.477 130.490  0.00  0.00    +0.031 A 
ATOM     25  C   LIG A   1      -6.338  -3.793 130.083  0.00  0.00    +0.202 A 
ATOM     26  O   LIG A   1      -7.364  -4.212 129.298  0.00  0.00    -0.471 OA
ATOM     27  C   LIG A   1      -8.240  -3.186 129.211  0.00  0.00    +0.195 A 
ATOM     28  C   LIG A   1      -7.787  -2.121 129.950  0.00  0.00    +0.048 A 
ENDBRANCH  17  24
BRANCH   1  29
ATOM     29  C   LIG A   1      -4.774   3.893 128.248  0.00  0.00    +0.125 C 
BRANCH  29  30
ATOM     30  C   LIG A   1      -4.068   4.997 127.461  0.00  0.00    +0.307 C 
ATOM     31  O   LIG A   1      -4.241   6.221 127.586  0.00  0.00    -0.251 OA
BRANCH  30  33
ATOM     32  C   LIG A   1      -2.192   3.550 127.032  0.00  0.00    +0.280 C 
ATOM     33  O   LIG A   1      -3.229   4.431 126.541  0.00  0.00    -0.468 OA
ENDBRANCH  30  33
ENDBRANCH  29  30
ENDBRANCH   1  29
BRANCH   9  34
ATOM     34  O   LIG A   1      -8.658   5.696 129.423  0.00  0.00    -0.367 OA
BRANCH  34  35
ATOM     35  C   LIG A   1      -9.969   6.231 129.380  0.00  0.00    +0.239 C 
BRANCH  35  36
ATOM     36  C   LIG A   1     -10.526   6.875 128.097  0.00  0.00    +0.184 C 
ATOM     37  O   LIG A   1      -9.977   6.668 127.012  0.00  0.00    -0.290 OA
BRANCH  36  38
ATOM     38  C   LIG A   1     -11.803   7.683 128.136  0.00  0.00    -0.010 C 
ATOM     39  C   LIG A   1     -12.888   7.127 127.251  0.00  0.00    +0.047 C 
ATOM     40  C   LIG A   1     -11.910   8.785 128.905  0.00  0.00    -0.024 C 
ATOM     41  C   LIG A   1     -13.136   9.626 129.107  0.00  0.00    +0.035 C 
ENDBRANCH  36  38
ENDBRANCH  35  36
ENDBRANCH  34  35
ENDBRANCH   9  34
TORSDOF 8
ENDMDL
MODEL 5
REMARK VINA RESULT:      -8.6      1.704      2.135
REMARK  Name = NuBBE_962
REMARK  15 active torsions:
REMARK  status: ('A' for Active; 'I' for Inactive)
REMARK    1  A    between atoms: C_1  and  O_2
REMARK    2  A    between atoms: O_2  and  C_3
REMARK    3  A    between atoms: C_3  and  C_4
REMARK    4  A    between atoms: C_4  and  C_5
REMARK    5  A    between atoms: C_7  and  C_45
REMARK    6  A    between atoms: C_16  and  O_21
REMARK    7  A    between atoms: C_18  and  C_19
REMARK    8  A    between atoms: C_18  and  C_20
REMARK    9  A    between atoms: O_21  and  C_22
REMARK   10  A    between atoms: C_22  and  C_23
REMARK   11  A    between atoms: C_23  and  C_24
REMARK   12  A    between atoms: C_24  and  C_25
REMARK   13  A    between atoms: C_26  and  C_27
REMARK   14  A    between atoms: C_33  and  C_35
REMARK   15  A    between atoms: C_41  and  C_42
REMARK                            x       y       z     vdW  Elec       q    Type
REMARK                         _______ _______ _______ _____ _____    ______ ____
ROOT
ATOM      1  C   LIG A   1      -6.940   4.039 131.919  0.00  0.00    +0.021 C 
ATOM      2  C   LIG A   1      -7.468   3.270 133.222  0.00  0.00    +0.037 C 
ATOM      3  C   LIG A   1      -7.076   1.780 133.513  0.00  0.00    +0.028 C 
ATOM      4  C   LIG A   1      -7.601   0.777 132.507  0.00  0.00    -0.064 C 
ATOM      5  C   LIG A   1      -9.038   0.983 132.038  0.00  0.00    +0.044 C 
ATOM      6  C   LIG A   1      -9.493   2.445 131.875  0.00  0.00    +0.089 C 
ATOM      7  C   LIG A   1      -9.001   3.187 133.085  0.00  0.00    +0.146 C 
ATOM      8  O   LIG A   1      -9.793   3.589 133.937  0.00  0.00    -0.296 OA
ATOM      9  C   LIG A   1      -9.079   3.261 130.627  0.00  0.00    +0.135 C 
ATOM     10  C   LIG A   1      -7.520   3.503 130.501  0.00  0.00    -0.004 C 
ATOM     11  C   LIG A   1      -7.237   4.592 129.415  0.00  0.00    +0.014 C 
ATOM     12  C   LIG A   1      -6.863   2.274 129.842  0.00  0.00    +0.014 C 
ATOM     13  C   LIG A   1      -6.881  -0.320 132.182  0.00  0.00    -0.050 C 
ATOM     14  C   LIG A   1      -7.569  -1.621 131.869  0.00  0.00    +0.152 C 
ATOM     15  C   LIG A   1      -7.013  -2.713 132.783  0.00  0.00    +0.312 C 
ATOM     16  O   LIG A   1      -5.660  -2.812 132.869  0.00  0.00    -0.455 OA
ATOM     17  C   LIG A   1      -4.858  -1.885 132.110  0.00  0.00    +0.219 C 
ATOM     18  O   LIG A   1      -7.739  -3.482 133.407  0.00  0.00    -0.251 OA
ATOM     19  C   LIG A   1      -5.366  -0.413 132.365  0.00  0.00    +0.031 C 
ATOM     20  C   LIG A   1      -4.611   0.520 131.399  0.00  0.00    +0.020 C 
ATOM     21  C   LIG A   1      -5.104   0.090 133.809  0.00  0.00    +0.015 C 
ATOM     22  C   LIG A   1      -5.639   1.526 134.033  0.00  0.00    +0.010 C 
ATOM     23  C   LIG A   1      -7.202   4.099 134.498  0.00  0.00    +0.020 C 
ENDROOT
BRANCH  17  24
ATOM     24  C   LIG A   1      -4.719  -2.343 130.652  0.00  0.00    +0.031 A 
ATOM     25  C   LIG A   1      -3.942  -3.387 130.172  0.00  0.00    +0.202 A 
ATOM     26  O   LIG A   1      -4.031  -3.500 128.821  0.00  0.00    -0.471 OA
ATOM     27  C   LIG A   1      -4.900  -2.554 128.402  0.00  0.00    +0.195 A 
ATOM     28  C   LIG A   1      -5.379  -1.848 129.478  0.00  0.00    +0.048 A 
ENDBRANCH  17  24
BRANCH   1  29
ATOM     29  C   LIG A   1      -5.428   4.485 131.873  0.00  0.00    +0.125 C 
BRANCH  29  30
ATOM     30  C   LIG A   1      -5.045   5.921 132.229  0.00  0.00    +0.307 C 
ATOM     31  O   LIG A   1      -4.444   6.295 133.251  0.00  0.00    -0.251 OA
BRANCH  30  33
ATOM     32  C   LIG A   1      -4.542   7.566 130.546  0.00  0.00    +0.280 C 
ATOM     33  O   LIG A   1      -5.512   6.767 131.262  0.00  0.00    -0.468 OA
ENDBRANCH  30  33
ENDBRANCH  29  30
ENDBRANCH   1  29
BRANCH   9  34
ATOM     34  O   LIG A   1      -9.688   4.577 130.625  0.00  0.00    -0.367 OA
BRANCH  34  35
ATOM     35  C   LIG A   1     -11.096   4.666 130.498  0.00  0.00    +0.239 C 
BRANCH  35  36
ATOM     36  C   LIG A   1     -11.834   6.001 130.711  0.00  0.00    +0.184 C 
ATOM     37  O   LIG A   1     -12.139   6.364 131.850  0.00  0.00    -0.290 OA
BRANCH  36  38
ATOM     38  C   LIG A   1     -12.105   6.923 129.545  0.00  0.00    -0.010 C 
ATOM     39  C   LIG A   1     -10.944   7.825 129.216  0.00  0.00    +0.047 C 
ATOM     40  C   LIG A   1     -13.285   6.902 128.896  0.00  0.00    -0.024 C 
ATOM     41  C   LIG A   1     -13.656   7.693 127.676  0.00  0.00    +0.035 C 
ENDBRANCH  36  38
ENDBRANCH  35  36
ENDBRANCH  34  35
ENDBRANCH   9  34
TORSDOF 8
ENDMDL
MODEL 6
REMARK VINA RESULT:      -8.4      1.812      2.574
REMARK  Name = NuBBE_962
REMARK  15 active torsions:
REMARK  status: ('A' for Active; 'I' for Inactive)
REMARK    1  A    between atoms: C_1  and  O_2
REMARK    2  A    between atoms: O_2  and  C_3
REMARK    3  A    between atoms: C_3  and  C_4
REMARK    4  A    between atoms: C_4  and  C_5
REMARK    5  A    between atoms: C_7  and  C_45
REMARK    6  A    between atoms: C_16  and  O_21
REMARK    7  A    between atoms: C_18  and  C_19
REMARK    8  A    between atoms: C_18  and  C_20
REMARK    9  A    between atoms: O_21  and  C_22
REMARK   10  A    between atoms: C_22  and  C_23
REMARK   11  A    between atoms: C_23  and  C_24
REMARK   12  A    between atoms: C_24  and  C_25
REMARK   13  A    between atoms: C_26  and  C_27
REMARK   14  A    between atoms: C_33  and  C_35
REMARK   15  A    between atoms: C_41  and  C_42
REMARK                            x       y       z     vdW  Elec       q    Type
REMARK                         _______ _______ _______ _____ _____    ______ ____
ROOT
ATOM      1  C   LIG A   1      -6.869   3.616 130.525  0.00  0.00    +0.021 C 
ATOM      2  C   LIG A   1      -6.554   2.497 131.627  0.00  0.00    +0.037 C 
ATOM      3  C   LIG A   1      -6.114   1.047 131.225  0.00  0.00    +0.028 C 
ATOM      4  C   LIG A   1      -7.163   0.250 130.477  0.00  0.00    -0.064 C 
ATOM      5  C   LIG A   1      -8.593   0.367 130.995  0.00  0.00    +0.044 C 
ATOM      6  C   LIG A   1      -9.010   1.752 131.526  0.00  0.00    +0.089 C 
ATOM      7  C   LIG A   1      -7.876   2.244 132.379  0.00  0.00    +0.146 C 
ATOM      8  O   LIG A   1      -8.001   2.323 133.601  0.00  0.00    -0.296 OA
ATOM      9  C   LIG A   1      -9.382   2.888 130.544  0.00  0.00    +0.135 C 
ATOM     10  C   LIG A   1      -8.190   3.359 129.617  0.00  0.00    -0.004 C 
ATOM     11  C   LIG A   1      -8.565   4.703 128.909  0.00  0.00    +0.014 C 
ATOM     12  C   LIG A   1      -8.086   2.420 128.398  0.00  0.00    +0.014 C 
ATOM     13  C   LIG A   1      -6.808  -0.632 129.516  0.00  0.00    -0.050 C 
ATOM     14  C   LIG A   1      -7.590  -1.902 129.317  0.00  0.00    +0.152 C 
ATOM     15  C   LIG A   1      -6.639  -3.095 129.410  0.00  0.00    +0.312 C 
ATOM     16  O   LIG A   1      -5.499  -3.029 128.672  0.00  0.00    -0.455 OA
ATOM     17  C   LIG A   1      -5.267  -1.850 127.876  0.00  0.00    +0.219 C 
ATOM     18  O   LIG A   1      -6.883  -4.080 130.101  0.00  0.00    -0.251 OA
ATOM     19  C   LIG A   1      -5.480  -0.562 128.763  0.00  0.00    +0.031 C 
ATOM     20  C   LIG A   1      -5.408   0.665 127.835  0.00  0.00    +0.020 C 
ATOM     21  C   LIG A   1      -4.402  -0.386 129.864  0.00  0.00    +0.015 C 
ATOM     22  C   LIG A   1      -4.655   0.872 130.733  0.00  0.00    +0.010 C 
ATOM     23  C   LIG A   1      -5.561   3.028 132.685  0.00  0.00    +0.020 C 
ENDROOT
BRANCH  17  24
ATOM     24  C   LIG A   1      -6.028  -1.926 126.546  0.00  0.00    +0.031 A 
ATOM     25  C   LIG A   1      -5.588  -2.497 125.360  0.00  0.00    +0.202 A 
ATOM     26  O   LIG A   1      -6.506  -2.364 124.368  0.00  0.00    -0.471 OA
ATOM     27  C   LIG A   1      -7.578  -1.738 124.901  0.00  0.00    +0.195 A 
ATOM     28  C   LIG A   1      -7.357  -1.485 126.233  0.00  0.00    +0.048 A 
ENDBRANCH  17  24
BRANCH   1  29
ATOM     29  C   LIG A   1      -5.660   4.259 129.742  0.00  0.00    +0.125 C 
BRANCH  29  30
ATOM     30  C   LIG A   1      -5.224   5.690 130.054  0.00  0.00    +0.307 C 
ATOM     31  O   LIG A   1      -5.967   6.645 130.337  0.00  0.00    -0.251 OA
BRANCH  30  33
ATOM     32  C   LIG A   1      -3.342   6.876 129.134  0.00  0.00    +0.280 C 
ATOM     33  O   LIG A   1      -3.866   5.787 129.928  0.00  0.00    -0.468 OA
ENDBRANCH  30  33
ENDBRANCH  29  30
ENDBRANCH   1  29
BRANCH   9  34
ATOM     34  O   LIG A   1      -9.833   4.073 131.248  0.00  0.00    -0.367 OA
BRANCH  34  35
ATOM     35  C   LIG A   1     -11.073   4.647 130.873  0.00  0.00    +0.239 C 
BRANCH  35  36
ATOM     36  C   LIG A   1     -11.449   6.079 131.295  0.00  0.00    +0.184 C 
ATOM     37  O   LIG A   1     -10.885   6.609 132.256  0.00  0.00    -0.290 OA
BRANCH  36  38
ATOM     38  C   LIG A   1     -12.436   6.885 130.483  0.00  0.00    -0.010 C 
ATOM     39  C   LIG A   1     -13.045   8.030 131.249  0.00  0.00    +0.047 C 
ATOM     40  C   LIG A   1     -12.710   6.569 129.202  0.00  0.00    -0.024 C 
ATOM     41  C   LIG A   1     -13.595   7.328 128.257  0.00  0.00    +0.035 C 
ENDBRANCH  36  38
ENDBRANCH  35  36
ENDBRANCH  34  35
ENDBRANCH   9  34
TORSDOF 8
ENDMDL
MODEL 7
REMARK VINA RESULT:      -8.4      2.486      5.181
REMARK  Name = NuBBE_962
REMARK  15 active torsions:
REMARK  status: ('A' for Active; 'I' for Inactive)
REMARK    1  A    between atoms: C_1  and  O_2
REMARK    2  A    between atoms: O_2  and  C_3
REMARK    3  A    between atoms: C_3  and  C_4
REMARK    4  A    between atoms: C_4  and  C_5
REMARK    5  A    between atoms: C_7  and  C_45
REMARK    6  A    between atoms: C_16  and  O_21
REMARK    7  A    between atoms: C_18  and  C_19
REMARK    8  A    between atoms: C_18  and  C_20
REMARK    9  A    between atoms: O_21  and  C_22
REMARK   10  A    between atoms: C_22  and  C_23
REMARK   11  A    between atoms: C_23  and  C_24
REMARK   12  A    between atoms: C_24  and  C_25
REMARK   13  A    between atoms: C_26  and  C_27
REMARK   14  A    between atoms: C_33  and  C_35
REMARK   15  A    between atoms: C_41  and  C_42
REMARK                            x       y       z     vdW  Elec       q    Type
REMARK                         _______ _______ _______ _____ _____    ______ ____
ROOT
ATOM      1  C   LIG A   1      -7.290   1.446 128.325  0.00  0.00    +0.021 C 
ATOM      2  C   LIG A   1      -5.737   1.089 128.160  0.00  0.00    +0.037 C 
ATOM      3  C   LIG A   1      -5.099  -0.153 128.870  0.00  0.00    +0.028 C 
ATOM      4  C   LIG A   1      -5.090  -0.085 130.383  0.00  0.00    -0.064 C 
ATOM      5  C   LIG A   1      -4.722   1.263 130.994  0.00  0.00    +0.044 C 
ATOM      6  C   LIG A   1      -5.222   2.508 130.238  0.00  0.00    +0.089 C 
ATOM      7  C   LIG A   1      -4.954   2.263 128.780  0.00  0.00    +0.146 C 
ATOM      8  O   LIG A   1      -4.085   2.903 128.188  0.00  0.00    -0.296 OA
ATOM      9  C   LIG A   1      -6.694   2.967 130.370  0.00  0.00    +0.135 C 
ATOM     10  C   LIG A   1      -7.748   1.930 129.806  0.00  0.00    -0.004 C 
ATOM     11  C   LIG A   1      -9.151   2.611 129.684  0.00  0.00    +0.014 C 
ATOM     12  C   LIG A   1      -8.045   0.866 130.880  0.00  0.00    +0.014 C 
ATOM     13  C   LIG A   1      -5.242  -1.203 131.128  0.00  0.00    -0.050 C 
ATOM     14  C   LIG A   1      -4.521  -1.351 132.441  0.00  0.00    +0.152 C 
ATOM     15  C   LIG A   1      -3.701  -2.641 132.417  0.00  0.00    +0.312 C 
ATOM     16  O   LIG A   1      -4.343  -3.769 132.012  0.00  0.00    -0.455 OA
ATOM     17  C   LIG A   1      -5.729  -3.665 131.626  0.00  0.00    +0.219 C 
ATOM     18  O   LIG A   1      -2.523  -2.680 132.759  0.00  0.00    -0.251 OA
ATOM     19  C   LIG A   1      -5.906  -2.476 130.604  0.00  0.00    +0.031 C 
ATOM     20  C   LIG A   1      -7.416  -2.282 130.366  0.00  0.00    +0.020 C 
ATOM     21  C   LIG A   1      -5.240  -2.740 129.228  0.00  0.00    +0.015 C 
ATOM     22  C   LIG A   1      -5.410  -1.543 128.259  0.00  0.00    +0.010 C 
ATOM     23  C   LIG A   1      -5.335   1.054 126.668  0.00  0.00    +0.020 C 
ENDROOT
BRANCH  17  24
ATOM     24  C   LIG A   1      -6.645  -3.683 132.857  0.00  0.00    +0.031 A 
ATOM     25  C   LIG A   1      -6.563  -4.534 133.950  0.00  0.00    +0.202 A 
ATOM     26  O   LIG A   1      -7.552  -4.292 134.849  0.00  0.00    -0.471 OA
ATOM     27  C   LIG A   1      -8.273  -3.252 134.375  0.00  0.00    +0.195 A 
ATOM     28  C   LIG A   1      -7.740  -2.817 133.187  0.00  0.00    +0.048 A 
ENDBRANCH  17  24
BRANCH   1  29
ATOM     29  C   LIG A   1      -8.350   0.545 127.582  0.00  0.00    +0.125 C 
BRANCH  29  30
ATOM     30  C   LIG A   1      -9.108   1.097 126.375  0.00  0.00    +0.307 C 
ATOM     31  O   LIG A   1      -9.930   0.483 125.674  0.00  0.00    -0.251 OA
BRANCH  30  33
ATOM     32  C   LIG A   1      -8.451   2.765 124.768  0.00  0.00    +0.280 C 
ATOM     33  O   LIG A   1      -8.708   2.383 126.139  0.00  0.00    -0.468 OA
ENDBRANCH  30  33
ENDBRANCH  29  30
ENDBRANCH   1  29
BRANCH   9  34
ATOM     34  O   LIG A   1      -6.931   4.207 129.656  0.00  0.00    -0.367 OA
BRANCH  34  35
ATOM     35  C   LIG A   1      -6.781   5.428 130.358  0.00  0.00    +0.239 C 
BRANCH  35  36
ATOM     36  C   LIG A   1      -8.001   6.186 130.912  0.00  0.00    +0.184 C 
ATOM     37  O   LIG A   1      -8.336   7.264 130.416  0.00  0.00    -0.290 OA
BRANCH  36  38
ATOM     38  C   LIG A   1      -8.857   5.574 131.998  0.00  0.00    -0.010 C 
ATOM     39  C   LIG A   1     -10.254   6.135 132.043  0.00  0.00    +0.047 C 
ATOM     40  C   LIG A   1      -8.371   4.622 132.818  0.00  0.00    -0.024 C 
ATOM     41  C   LIG A   1      -9.128   3.871 133.873  0.00  0.00    +0.035 C 
ENDBRANCH  36  38
ENDBRANCH  35  36
ENDBRANCH  34  35
ENDBRANCH   9  34
TORSDOF 8
ENDMDL
MODEL 8
REMARK VINA RESULT:      -8.4      2.840      6.665
REMARK  Name = NuBBE_962
REMARK  15 active torsions:
REMARK  status: ('A' for Active; 'I' for Inactive)
REMARK    1  A    between atoms: C_1  and  O_2
REMARK    2  A    between atoms: O_2  and  C_3
REMARK    3  A    between atoms: C_3  and  C_4
REMARK    4  A    between atoms: C_4  and  C_5
REMARK    5  A    between atoms: C_7  and  C_45
REMARK    6  A    between atoms: C_16  and  O_21
REMARK    7  A    between atoms: C_18  and  C_19
REMARK    8  A    between atoms: C_18  and  C_20
REMARK    9  A    between atoms: O_21  and  C_22
REMARK   10  A    between atoms: C_22  and  C_23
REMARK   11  A    between atoms: C_23  and  C_24
REMARK   12  A    between atoms: C_24  and  C_25
REMARK   13  A    between atoms: C_26  and  C_27
REMARK   14  A    between atoms: C_33  and  C_35
REMARK   15  A    between atoms: C_41  and  C_42
REMARK                            x       y       z     vdW  Elec       q    Type
REMARK                         _______ _______ _______ _____ _____    ______ ____
ROOT
ATOM      1  C   LIG A   1      -7.230   4.428 127.996  0.00  0.00    +0.021 C 
ATOM      2  C   LIG A   1      -7.377   4.069 126.442  0.00  0.00    +0.037 C 
ATOM      3  C   LIG A   1      -7.440   2.585 125.943  0.00  0.00    +0.028 C 
ATOM      4  C   LIG A   1      -6.178   1.782 126.177  0.00  0.00    -0.064 C 
ATOM      5  C   LIG A   1      -4.862   2.499 125.894  0.00  0.00    +0.044 C 
ATOM      6  C   LIG A   1      -4.816   3.997 126.250  0.00  0.00    +0.089 C 
ATOM      7  C   LIG A   1      -6.101   4.595 125.753  0.00  0.00    +0.146 C 
ATOM      8  O   LIG A   1      -6.103   5.364 124.792  0.00  0.00    -0.296 OA
ATOM      9  C   LIG A   1      -4.628   4.449 127.717  0.00  0.00    +0.135 C 
ATOM     10  C   LIG A   1      -5.812   4.031 128.680  0.00  0.00    -0.004 C 
ATOM     11  C   LIG A   1      -5.691   4.802 130.036  0.00  0.00    +0.014 C 
ATOM     12  C   LIG A   1      -5.594   2.583 129.161  0.00  0.00    +0.014 C 
ATOM     13  C   LIG A   1      -6.239   0.461 126.462  0.00  0.00    -0.050 C 
ATOM     14  C   LIG A   1      -5.176  -0.479 125.963  0.00  0.00    +0.152 C 
ATOM     15  C   LIG A   1      -5.837  -1.604 125.168  0.00  0.00    +0.312 C 
ATOM     16  O   LIG A   1      -6.894  -2.229 125.751  0.00  0.00    -0.455 OA
ATOM     17  C   LIG A   1      -7.317  -1.782 127.055  0.00  0.00    +0.219 C 
ATOM     18  O   LIG A   1      -5.436  -1.952 124.060  0.00  0.00    -0.251 OA
ATOM     19  C   LIG A   1      -7.479  -0.212 127.050  0.00  0.00    +0.031 C 
ATOM     20  C   LIG A   1      -7.747   0.238 128.499  0.00  0.00    +0.020 C 
ATOM     21  C   LIG A   1      -8.660   0.284 126.175  0.00  0.00    +0.015 C 
ATOM     22  C   LIG A   1      -8.774   1.829 126.170  0.00  0.00    +0.010 C 
ATOM     23  C   LIG A   1      -8.551   4.845 125.806  0.00  0.00    +0.020 C 
ENDROOT
BRANCH  17  24
ATOM     24  C   LIG A   1      -6.447  -2.400 128.158  0.00  0.00    +0.031 A 
ATOM     25  C   LIG A   1      -6.874  -3.177 129.225  0.00  0.00    +0.202 A 
ATOM     26  O   LIG A   1      -5.840  -3.537 130.029  0.00  0.00    -0.471 OA
ATOM     27  C   LIG A   1      -4.715  -3.032 129.477  0.00  0.00    +0.195 A 
ATOM     28  C   LIG A   1      -5.022  -2.366 128.316  0.00  0.00    +0.048 A 
ENDBRANCH  17  24
BRANCH   1  29
ATOM     29  C   LIG A   1      -8.480   4.223 128.935  0.00  0.00    +0.125 C 
BRANCH  29  30
ATOM     30  C   LIG A   1      -9.266   5.436 129.434  0.00  0.00    +0.307 C 
ATOM     31  O   LIG A   1      -9.510   6.473 128.795  0.00  0.00    -0.251 OA
BRANCH  30  33
ATOM     32  C   LIG A   1      -8.916   5.966 131.756  0.00  0.00    +0.280 C 
ATOM     33  O   LIG A   1      -9.633   5.233 130.735  0.00  0.00    -0.468 OA
ENDBRANCH  30  33
ENDBRANCH  29  30
ENDBRANCH   1  29
BRANCH   9  34
ATOM     34  O   LIG A   1      -4.519   5.891 127.820  0.00  0.00    -0.367 OA
BRANCH  34  35
ATOM     35  C   LIG A   1      -3.310   6.442 128.311  0.00  0.00    +0.239 C 
BRANCH  35  36
ATOM     36  C   LIG A   1      -3.312   7.510 129.420  0.00  0.00    +0.184 C 
ATOM     37  O   LIG A   1      -3.765   8.635 129.194  0.00  0.00    -0.290 OA
BRANCH  36  38
ATOM     38  C   LIG A   1      -2.852   7.166 130.818  0.00  0.00    -0.010 C 
ATOM     39  C   LIG A   1      -2.211   5.807 130.917  0.00  0.00    +0.047 C 
ATOM     40  C   LIG A   1      -3.023   8.026 131.841  0.00  0.00    -0.024 C 
ATOM     41  C   LIG A   1      -2.541   7.853 133.251  0.00  0.00    +0.035 C 
ENDBRANCH  36  38
ENDBRANCH  35  36
ENDBRANCH  34  35
ENDBRANCH   9  34
TORSDOF 8
ENDMDL
MODEL 9
REMARK VINA RESULT:      -8.3      3.057      6.537
REMARK  Name = NuBBE_962
REMARK  15 active torsions:
REMARK  status: ('A' for Active; 'I' for Inactive)
REMARK    1  A    between atoms: C_1  and  O_2
REMARK    2  A    between atoms: O_2  and  C_3
REMARK    3  A    between atoms: C_3  and  C_4
REMARK    4  A    between atoms: C_4  and  C_5
REMARK    5  A    between atoms: C_7  and  C_45
REMARK    6  A    between atoms: C_16  and  O_21
REMARK    7  A    between atoms: C_18  and  C_19
REMARK    8  A    between atoms: C_18  and  C_20
REMARK    9  A    between atoms: O_21  and  C_22
REMARK   10  A    between atoms: C_22  and  C_23
REMARK   11  A    between atoms: C_23  and  C_24
REMARK   12  A    between atoms: C_24  and  C_25
REMARK   13  A    between atoms: C_26  and  C_27
REMARK   14  A    between atoms: C_33  and  C_35
REMARK   15  A    between atoms: C_41  and  C_42
REMARK                            x       y       z     vdW  Elec       q    Type
REMARK                         _______ _______ _______ _____ _____    ______ ____
ROOT
ATOM      1  C   LIG A   1      -5.274  -0.478 130.965  0.00  0.00    +0.021 C 
ATOM      2  C   LIG A   1      -6.686  -1.190 130.705  0.00  0.00    +0.037 C 
ATOM      3  C   LIG A   1      -7.376  -1.159 129.298  0.00  0.00    +0.028 C 
ATOM      4  C   LIG A   1      -7.799   0.217 128.828  0.00  0.00    -0.064 C 
ATOM      5  C   LIG A   1      -8.440   1.119 129.877  0.00  0.00    +0.044 C 
ATOM      6  C   LIG A   1      -7.869   1.010 131.304  0.00  0.00    +0.089 C 
ATOM      7  C   LIG A   1      -7.711  -0.456 131.592  0.00  0.00    +0.146 C 
ATOM      8  O   LIG A   1      -8.443  -1.015 132.409  0.00  0.00    -0.296 OA
ATOM      9  C   LIG A   1      -6.536   1.704 131.670  0.00  0.00    +0.135 C 
ATOM     10  C   LIG A   1      -5.279   1.144 130.889  0.00  0.00    -0.004 C 
ATOM     11  C   LIG A   1      -3.963   1.667 131.554  0.00  0.00    +0.014 C 
ATOM     12  C   LIG A   1      -5.187   1.828 129.511  0.00  0.00    +0.014 C 
ATOM     13  C   LIG A   1      -7.752   0.546 127.517  0.00  0.00    -0.050 C 
ATOM     14  C   LIG A   1      -8.784   1.465 126.922  0.00  0.00    +0.152 C 
ATOM     15  C   LIG A   1      -9.446   0.770 125.732  0.00  0.00    +0.312 C 
ATOM     16  O   LIG A   1      -8.618   0.205 124.814  0.00  0.00    -0.455 OA
ATOM     17  C   LIG A   1      -7.196   0.289 125.033  0.00  0.00    +0.219 C 
ATOM     18  O   LIG A   1     -10.664   0.728 125.588  0.00  0.00    -0.251 OA
ATOM     19  C   LIG A   1      -6.858  -0.170 126.505  0.00  0.00    +0.031 C 
ATOM     20  C   LIG A   1      -5.364   0.112 126.754  0.00  0.00    +0.020 C 
ATOM     21  C   LIG A   1      -7.101  -1.682 126.751  0.00  0.00    +0.015 C 
ATOM     22  C   LIG A   1      -6.786  -2.093 128.211  0.00  0.00    +0.010 C 
ATOM     23  C   LIG A   1      -6.666  -2.652 131.204  0.00  0.00    +0.020 C 
ENDROOT
BRANCH  17  24
ATOM     24  C   LIG A   1      -6.648   1.646 124.572  0.00  0.00    +0.031 A 
ATOM     25  C   LIG A   1      -6.837   2.251 123.337  0.00  0.00    +0.202 A 
ATOM     26  O   LIG A   1      -6.187   3.440 123.256  0.00  0.00    -0.471 OA
ATOM     27  C   LIG A   1      -5.594   3.650 124.452  0.00  0.00    +0.195 A 
ATOM     28  C   LIG A   1      -5.875   2.609 125.302  0.00  0.00    +0.048 A 
ENDBRANCH  17  24
BRANCH   1  29
ATOM     29  C   LIG A   1      -3.976  -1.149 130.373  0.00  0.00    +0.125 C 
BRANCH  29  30
ATOM     30  C   LIG A   1      -3.132  -2.077 131.246  0.00  0.00    +0.307 C 
ATOM     31  O   LIG A   1      -2.542  -1.771 132.297  0.00  0.00    -0.251 OA
BRANCH  30  33
ATOM     32  C   LIG A   1      -3.478  -3.428 129.284  0.00  0.00    +0.280 C 
ATOM     33  O   LIG A   1      -3.077  -3.315 130.669  0.00  0.00    -0.468 OA
ENDBRANCH  30  33
ENDBRANCH  29  30
ENDBRANCH   1  29
BRANCH   9  34
ATOM     34  O   LIG A   1      -6.229   1.555 133.080  0.00  0.00    -0.367 OA
BRANCH  34  35
ATOM     35  C   LIG A   1      -6.531   2.630 133.952  0.00  0.00    +0.239 C 
BRANCH  35  36
ATOM     36  C   LIG A   1      -6.854   4.033 133.407  0.00  0.00    +0.184 C 
ATOM     37  O   LIG A   1      -5.941   4.799 133.091  0.00  0.00    -0.290 OA
BRANCH  36  38
ATOM     38  C   LIG A   1      -8.286   4.449 133.160  0.00  0.00    -0.010 C 
ATOM     39  C   LIG A   1      -9.294   3.483 133.724  0.00  0.00    +0.047 C 
ATOM     40  C   LIG A   1      -8.579   5.585 132.496  0.00  0.00    -0.024 C 
ATOM     41  C   LIG A   1      -9.944   6.161 132.258  0.00  0.00    +0.035 C 
ENDBRANCH  36  38
ENDBRANCH  35  36
ENDBRANCH  34  35
ENDBRANCH   9  34
TORSDOF 8
ENDMDL
