MODEL 1
REMARK VINA RESULT:      -6.2      0.000      0.000
REMARK  Name = NuBBE_969
REMARK  11 active torsions:
REMARK  status: ('A' for Active; 'I' for Inactive)
REMARK    1  A    between atoms: C_1  and  C_2
REMARK    2  A    between atoms: C_2  and  C_3
REMARK    3  A    between atoms: C_2  and  O_4
REMARK    4  A    between atoms: C_2  and  C_5
REMARK    5  A    between atoms: C_8  and  C_10
REMARK    6  A    between atoms: C_10  and  C_11
REMARK    7  A    between atoms: C_13  and  C_14
REMARK    8  A    between atoms: C_13  and  C_19
REMARK    9  A    between atoms: C_14  and  O_15
REMARK   10  A    between atoms: O_15  and  C_16
REMARK   11  A    between atoms: C_16  and  C_17
REMARK                            x       y       z     vdW  Elec       q    Type
REMARK                         _______ _______ _______ _____ _____    ______ ____
ROOT
ATOM      1  C   LIG A   1      -8.682  -1.340 124.288  0.00  0.00    +0.021 C 
ATOM      2  C   LIG A   1      -8.574  -0.448 125.554  0.00  0.00    +0.015 C 
ATOM      3  C   LIG A   1      -7.517   0.688 125.529  0.00  0.00    +0.028 C 
ATOM      4  C   LIG A   1      -7.491   1.362 124.107  0.00  0.00    +0.029 C 
ATOM      5  C   LIG A   1      -7.082   0.317 123.037  0.00  0.00    +0.015 C 
ATOM      6  C   LIG A   1      -7.515  -1.134 123.305  0.00  0.00    +0.007 C 
ENDROOT
BRANCH   1   8
ATOM      7  C   LIG A   1      -9.397  -3.020 126.094  0.00  0.00    +0.041 C 
ATOM      8  C   LIG A   1      -8.940  -2.837 124.640  0.00  0.00    +0.063 C 
ATOM      9  C   LIG A   1      -7.681  -3.691 124.406  0.00  0.00    +0.041 C 
BRANCH   8  10
ATOM     10  O   LIG A   1      -9.981  -3.327 123.792  0.00  0.00    -0.389 OA
ATOM     11  H   LIG A   1     -10.132  -2.673 123.090  0.00  0.00    +0.210 HD
ENDBRANCH   8  10
ENDBRANCH   1   8
BRANCH   3  12
ATOM     12  C   LIG A   1      -6.181   0.255 126.194  0.00  0.00    -0.076 C 
ATOM     13  C   LIG A   1      -5.580   1.247 127.171  0.00  0.00    +0.038 C 
ATOM     14  C   LIG A   1      -5.462  -0.859 125.966  0.00  0.00    +0.007 C 
ENDBRANCH   3  12
BRANCH   4  15
ATOM     15  C   LIG A   1      -8.895   1.961 123.798  0.00  0.00    -0.024 C 
ATOM     16  C   LIG A   1      -9.695   1.774 122.734  0.00  0.00    +0.004 C 
ENDBRANCH   4  15
BRANCH   4  17
ATOM     17  C   LIG A   1      -6.466   2.551 124.050  0.00  0.00    +0.243 C 
BRANCH  17  18
ATOM     18  O   LIG A   1      -6.798   3.550 123.052  0.00  0.00    -0.464 OA
BRANCH  18  19
ATOM     19  C   LIG A   1      -5.791   3.988 122.245  0.00  0.00    +0.304 C 
ATOM     20  C   LIG A   1      -5.693   3.139 121.001  0.00  0.00    +0.136 C 
ATOM     21  O   LIG A   1      -5.021   4.889 122.487  0.00  0.00    -0.251 OA
ENDBRANCH  18  19
ENDBRANCH  17  18
ENDBRANCH   4  17
TORSDOF 7
ENDMDL
MODEL 2
REMARK VINA RESULT:      -6.2      1.488      3.311
REMARK  Name = NuBBE_969
REMARK  11 active torsions:
REMARK  status: ('A' for Active; 'I' for Inactive)
REMARK    1  A    between atoms: C_1  and  C_2
REMARK    2  A    between atoms: C_2  and  C_3
REMARK    3  A    between atoms: C_2  and  O_4
REMARK    4  A    between atoms: C_2  and  C_5
REMARK    5  A    between atoms: C_8  and  C_10
REMARK    6  A    between atoms: C_10  and  C_11
REMARK    7  A    between atoms: C_13  and  C_14
REMARK    8  A    between atoms: C_13  and  C_19
REMARK    9  A    between atoms: C_14  and  O_15
REMARK   10  A    between atoms: O_15  and  C_16
REMARK   11  A    between atoms: C_16  and  C_17
REMARK                            x       y       z     vdW  Elec       q    Type
REMARK                         _______ _______ _______ _____ _____    ______ ____
ROOT
ATOM      1  C   LIG A   1      -8.098  -1.334 125.054  0.00  0.00    +0.021 C 
ATOM      2  C   LIG A   1      -7.589  -0.446 123.887  0.00  0.00    +0.015 C 
ATOM      3  C   LIG A   1      -7.697   1.092 124.071  0.00  0.00    +0.028 C 
ATOM      4  C   LIG A   1      -7.329   1.480 125.551  0.00  0.00    +0.029 C 
ATOM      5  C   LIG A   1      -8.331   0.818 126.533  0.00  0.00    +0.015 C 
ATOM      6  C   LIG A   1      -8.900  -0.546 126.106  0.00  0.00    +0.007 C 
ENDROOT
BRANCH   1   8
ATOM      7  C   LIG A   1      -7.962  -3.873 124.695  0.00  0.00    +0.041 C 
ATOM      8  C   LIG A   1      -8.829  -2.615 124.547  0.00  0.00    +0.063 C 
ATOM      9  C   LIG A   1      -9.247  -2.472 123.073  0.00  0.00    +0.041 C 
BRANCH   8  10
ATOM     10  O   LIG A   1     -10.007  -2.802 125.334  0.00  0.00    -0.389 OA
ATOM     11  H   LIG A   1      -9.745  -2.830 126.268  0.00  0.00    +0.210 HD
ENDBRANCH   8  10
ENDBRANCH   1   8
BRANCH   3  12
ATOM     12  C   LIG A   1      -8.991   1.666 123.430  0.00  0.00    -0.076 C 
ATOM     13  C   LIG A   1      -8.788   2.774 122.415  0.00  0.00    +0.038 C 
ATOM     14  C   LIG A   1     -10.268   1.345 123.706  0.00  0.00    +0.007 C 
ENDBRANCH   3  12
BRANCH   4  15
ATOM     15  C   LIG A   1      -5.870   1.028 125.852  0.00  0.00    -0.024 C 
ATOM     16  C   LIG A   1      -5.362   0.423 126.940  0.00  0.00    +0.004 C 
ENDBRANCH   4  15
BRANCH   4  17
ATOM     17  C   LIG A   1      -7.380   3.035 125.771  0.00  0.00    +0.243 C 
BRANCH  17  18
ATOM     18  O   LIG A   1      -6.091   3.681 125.613  0.00  0.00    -0.464 OA
BRANCH  18  19
ATOM     19  C   LIG A   1      -6.025   4.747 124.766  0.00  0.00    +0.304 C 
ATOM     20  C   LIG A   1      -5.533   4.320 123.405  0.00  0.00    +0.136 C 
ATOM     21  O   LIG A   1      -6.262   5.899 125.047  0.00  0.00    -0.251 OA
ENDBRANCH  18  19
ENDBRANCH  17  18
ENDBRANCH   4  17
TORSDOF 7
ENDMDL
MODEL 3
REMARK VINA RESULT:      -6.0      1.557      1.719
REMARK  Name = NuBBE_969
REMARK  11 active torsions:
REMARK  status: ('A' for Active; 'I' for Inactive)
REMARK    1  A    between atoms: C_1  and  C_2
REMARK    2  A    between atoms: C_2  and  C_3
REMARK    3  A    between atoms: C_2  and  O_4
REMARK    4  A    between atoms: C_2  and  C_5
REMARK    5  A    between atoms: C_8  and  C_10
REMARK    6  A    between atoms: C_10  and  C_11
REMARK    7  A    between atoms: C_13  and  C_14
REMARK    8  A    between atoms: C_13  and  C_19
REMARK    9  A    between atoms: C_14  and  O_15
REMARK   10  A    between atoms: O_15  and  C_16
REMARK   11  A    between atoms: C_16  and  C_17
REMARK                            x       y       z     vdW  Elec       q    Type
REMARK                         _______ _______ _______ _____ _____    ______ ____
ROOT
ATOM      1  C   LIG A   1      -8.743  -1.021 124.525  0.00  0.00    +0.021 C 
ATOM      2  C   LIG A   1      -9.514  -0.257 125.635  0.00  0.00    +0.015 C 
ATOM      3  C   LIG A   1      -8.801   0.960 126.281  0.00  0.00    +0.028 C 
ATOM      4  C   LIG A   1      -8.031   1.776 125.176  0.00  0.00    +0.029 C 
ATOM      5  C   LIG A   1      -6.942   0.884 124.526  0.00  0.00    +0.015 C 
ATOM      6  C   LIG A   1      -7.259  -0.619 124.437  0.00  0.00    +0.007 C 
ENDROOT
BRANCH   1   8
ATOM      7  C   LIG A   1      -9.465  -3.005 125.988  0.00  0.00    +0.041 C 
ATOM      8  C   LIG A   1      -8.964  -2.563 124.605  0.00  0.00    +0.063 C 
ATOM      9  C   LIG A   1      -7.671  -3.330 124.279  0.00  0.00    +0.041 C 
BRANCH   8  10
ATOM     10  O   LIG A   1      -9.959  -2.926 123.646  0.00  0.00    -0.389 OA
ATOM     11  H   LIG A   1     -10.062  -2.188 123.023  0.00  0.00    +0.210 HD
ENDBRANCH   8  10
ENDBRANCH   1   8
BRANCH   3  12
ATOM     12  C   LIG A   1      -8.067   0.575 127.596  0.00  0.00    -0.076 C 
ATOM     13  C   LIG A   1      -8.307   1.495 128.777  0.00  0.00    +0.038 C 
ATOM     14  C   LIG A   1      -7.202  -0.434 127.799  0.00  0.00    +0.007 C 
ENDBRANCH   3  12
BRANCH   4  15
ATOM     15  C   LIG A   1      -9.048   2.283 124.112  0.00  0.00    -0.024 C 
ATOM     16  C   LIG A   1      -8.932   2.352 122.774  0.00  0.00    +0.004 C 
ENDBRANCH   4  15
BRANCH   4  17
ATOM     17  C   LIG A   1      -7.330   3.046 125.779  0.00  0.00    +0.243 C 
BRANCH  17  18
ATOM     18  O   LIG A   1      -6.067   3.363 125.141  0.00  0.00    -0.464 OA
BRANCH  18  19
ATOM     19  C   LIG A   1      -6.011   4.505 124.398  0.00  0.00    +0.304 C 
ATOM     20  C   LIG A   1      -5.629   4.197 122.971  0.00  0.00    +0.136 C 
ATOM     21  O   LIG A   1      -6.177   5.632 124.805  0.00  0.00    -0.251 OA
ENDBRANCH  18  19
ENDBRANCH  17  18
ENDBRANCH   4  17
TORSDOF 7
ENDMDL
MODEL 4
REMARK VINA RESULT:      -6.0      3.600      6.018
REMARK  Name = NuBBE_969
REMARK  11 active torsions:
REMARK  status: ('A' for Active; 'I' for Inactive)
REMARK    1  A    between atoms: C_1  and  C_2
REMARK    2  A    between atoms: C_2  and  C_3
REMARK    3  A    between atoms: C_2  and  O_4
REMARK    4  A    between atoms: C_2  and  C_5
REMARK    5  A    between atoms: C_8  and  C_10
REMARK    6  A    between atoms: C_10  and  C_11
REMARK    7  A    between atoms: C_13  and  C_14
REMARK    8  A    between atoms: C_13  and  C_19
REMARK    9  A    between atoms: C_14  and  O_15
REMARK   10  A    between atoms: O_15  and  C_16
REMARK   11  A    between atoms: C_16  and  C_17
REMARK                            x       y       z     vdW  Elec       q    Type
REMARK                         _______ _______ _______ _____ _____    ______ ____
ROOT
ATOM      1  C   LIG A   1      -7.690  -1.517 124.930  0.00  0.00    +0.021 C 
ATOM      2  C   LIG A   1      -8.378  -1.119 126.264  0.00  0.00    +0.015 C 
ATOM      3  C   LIG A   1      -7.676  -1.555 127.578  0.00  0.00    +0.028 C 
ATOM      4  C   LIG A   1      -6.118  -1.384 127.433  0.00  0.00    +0.029 C 
ATOM      5  C   LIG A   1      -5.592  -2.296 126.295  0.00  0.00    +0.015 C 
ATOM      6  C   LIG A   1      -6.554  -2.539 125.120  0.00  0.00    +0.007 C 
ENDROOT
BRANCH   1   8
ATOM      7  C   LIG A   1      -9.369  -3.289 124.132  0.00  0.00    +0.041 C 
ATOM      8  C   LIG A   1      -8.720  -1.930 123.834  0.00  0.00    +0.063 C 
ATOM      9  C   LIG A   1      -8.062  -1.989 122.444  0.00  0.00    +0.041 C 
BRANCH   8  10
ATOM     10  O   LIG A   1      -9.759  -0.949 123.800  0.00  0.00    -0.389 OA
ATOM     11  H   LIG A   1      -9.403  -0.146 123.386  0.00  0.00    +0.210 HD
ENDBRANCH   8  10
ENDBRANCH   1   8
BRANCH   3  12
ATOM     12  C   LIG A   1      -8.250  -2.890 128.130  0.00  0.00    -0.076 C 
ATOM     13  C   LIG A   1      -8.282  -3.019 129.640  0.00  0.00    +0.038 C 
ATOM     14  C   LIG A   1      -8.664  -3.965 127.436  0.00  0.00    +0.007 C 
ENDBRANCH   3  12
BRANCH   4  15
ATOM     15  C   LIG A   1      -5.791   0.111 127.149  0.00  0.00    -0.024 C 
ATOM     16  C   LIG A   1      -5.013   0.657 126.198  0.00  0.00    +0.004 C 
ENDBRANCH   4  15
BRANCH   4  17
ATOM     17  C   LIG A   1      -5.369  -1.771 128.759  0.00  0.00    +0.243 C 
BRANCH  17  18
ATOM     18  O   LIG A   1      -4.634  -3.018 128.661  0.00  0.00    -0.464 OA
BRANCH  18  19
ATOM     19  C   LIG A   1      -4.121  -3.533 129.814  0.00  0.00    +0.304 C 
ATOM     20  C   LIG A   1      -5.118  -4.446 130.484  0.00  0.00    +0.136 C 
ATOM     21  O   LIG A   1      -3.043  -3.271 130.297  0.00  0.00    -0.251 OA
ENDBRANCH  18  19
ENDBRANCH  17  18
ENDBRANCH   4  17
TORSDOF 7
ENDMDL
MODEL 5
REMARK VINA RESULT:      -5.9      2.739      4.513
REMARK  Name = NuBBE_969
REMARK  11 active torsions:
REMARK  status: ('A' for Active; 'I' for Inactive)
REMARK    1  A    between atoms: C_1  and  C_2
REMARK    2  A    between atoms: C_2  and  C_3
REMARK    3  A    between atoms: C_2  and  O_4
REMARK    4  A    between atoms: C_2  and  C_5
REMARK    5  A    between atoms: C_8  and  C_10
REMARK    6  A    between atoms: C_10  and  C_11
REMARK    7  A    between atoms: C_13  and  C_14
REMARK    8  A    between atoms: C_13  and  C_19
REMARK    9  A    between atoms: C_14  and  O_15
REMARK   10  A    between atoms: O_15  and  C_16
REMARK   11  A    between atoms: C_16  and  C_17
REMARK                            x       y       z     vdW  Elec       q    Type
REMARK                         _______ _______ _______ _____ _____    ______ ____
ROOT
ATOM      1  C   LIG A   1      -6.494  -1.202 127.713  0.00  0.00    +0.021 C 
ATOM      2  C   LIG A   1      -5.433  -1.311 126.585  0.00  0.00    +0.015 C 
ATOM      3  C   LIG A   1      -5.943  -1.200 125.123  0.00  0.00    +0.028 C 
ATOM      4  C   LIG A   1      -7.057  -0.092 125.029  0.00  0.00    +0.029 C 
ATOM      5  C   LIG A   1      -8.266  -0.484 125.919  0.00  0.00    +0.015 C 
ATOM      6  C   LIG A   1      -7.940  -1.286 127.191  0.00  0.00    +0.007 C 
ENDROOT
BRANCH   1   8
ATOM      7  C   LIG A   1      -4.861  -2.905 128.727  0.00  0.00    +0.041 C 
ATOM      8  C   LIG A   1      -6.203  -2.178 128.894  0.00  0.00    +0.063 C 
ATOM      9  C   LIG A   1      -7.319  -3.227 129.039  0.00  0.00    +0.041 C 
BRANCH   8  10
ATOM     10  O   LIG A   1      -6.139  -1.418 130.102  0.00  0.00    -0.389 OA
ATOM     11  H   LIG A   1      -7.031  -1.384 130.486  0.00  0.00    +0.210 HD
ENDBRANCH   8  10
ENDBRANCH   1   8
BRANCH   3  12
ATOM     12  C   LIG A   1      -6.197  -2.595 124.488  0.00  0.00    -0.076 C 
ATOM     13  C   LIG A   1      -5.103  -3.112 123.575  0.00  0.00    +0.038 C 
ATOM     14  C   LIG A   1      -7.291  -3.371 124.597  0.00  0.00    +0.007 C 
ENDBRANCH   3  12
BRANCH   4  15
ATOM     15  C   LIG A   1      -6.458   1.276 125.469  0.00  0.00    -0.024 C 
ATOM     16  C   LIG A   1      -7.065   2.350 126.002  0.00  0.00    +0.004 C 
ENDBRANCH   4  15
BRANCH   4  17
ATOM     17  C   LIG A   1      -7.571   0.087 123.555  0.00  0.00    +0.243 C 
BRANCH  17  18
ATOM     18  O   LIG A   1      -8.946  -0.337 123.370  0.00  0.00    -0.464 OA
BRANCH  18  19
ATOM     19  C   LIG A   1      -9.821   0.579 122.867  0.00  0.00    +0.304 C 
ATOM     20  C   LIG A   1      -9.212   1.960 122.872  0.00  0.00    +0.136 C 
ATOM     21  O   LIG A   1     -10.958   0.364 122.514  0.00  0.00    -0.251 OA
ENDBRANCH  18  19
ENDBRANCH  17  18
ENDBRANCH   4  17
TORSDOF 7
ENDMDL
MODEL 6
REMARK VINA RESULT:      -5.8      2.737      5.710
REMARK  Name = NuBBE_969
REMARK  11 active torsions:
REMARK  status: ('A' for Active; 'I' for Inactive)
REMARK    1  A    between atoms: C_1  and  C_2
REMARK    2  A    between atoms: C_2  and  C_3
REMARK    3  A    between atoms: C_2  and  O_4
REMARK    4  A    between atoms: C_2  and  C_5
REMARK    5  A    between atoms: C_8  and  C_10
REMARK    6  A    between atoms: C_10  and  C_11
REMARK    7  A    between atoms: C_13  and  C_14
REMARK    8  A    between atoms: C_13  and  C_19
REMARK    9  A    between atoms: C_14  and  O_15
REMARK   10  A    between atoms: O_15  and  C_16
REMARK   11  A    between atoms: C_16  and  C_17
REMARK                            x       y       z     vdW  Elec       q    Type
REMARK                         _______ _______ _______ _____ _____    ______ ____
ROOT
ATOM      1  C   LIG A   1      -8.313   0.736 124.284  0.00  0.00    +0.021 C 
ATOM      2  C   LIG A   1      -8.821   0.119 125.615  0.00  0.00    +0.015 C 
ATOM      3  C   LIG A   1      -8.083  -1.143 126.135  0.00  0.00    +0.028 C 
ATOM      4  C   LIG A   1      -6.534  -0.992 125.898  0.00  0.00    +0.029 C 
ATOM      5  C   LIG A   1      -6.244  -0.871 124.379  0.00  0.00    +0.015 C 
ATOM      6  C   LIG A   1      -7.326  -0.178 123.534  0.00  0.00    +0.007 C 
ENDROOT
BRANCH   1   8
ATOM      7  C   LIG A   1     -10.051   0.154 122.485  0.00  0.00    +0.041 C 
ATOM      8  C   LIG A   1      -9.480   1.256 123.389  0.00  0.00    +0.063 C 
ATOM      9  C   LIG A   1      -9.026   2.433 122.508  0.00  0.00    +0.041 C 
BRANCH   8  10
ATOM     10  O   LIG A   1     -10.534   1.709 124.241  0.00  0.00    -0.389 OA
ATOM     11  H   LIG A   1     -10.917   2.510 123.848  0.00  0.00    +0.210 HD
ENDBRANCH   8  10
ENDBRANCH   1   8
BRANCH   3  12
ATOM     12  C   LIG A   1      -8.797  -2.454 125.705  0.00  0.00    -0.076 C 
ATOM     13  C   LIG A   1      -9.074  -3.448 126.816  0.00  0.00    +0.038 C 
ATOM     14  C   LIG A   1      -9.144  -2.843 124.465  0.00  0.00    +0.007 C 
ENDBRANCH   3  12
BRANCH   4  15
ATOM     15  C   LIG A   1      -6.017   0.259 126.668  0.00  0.00    -0.024 C 
ATOM     16  C   LIG A   1      -5.153   1.213 126.280  0.00  0.00    +0.004 C 
ENDBRANCH   4  15
BRANCH   4  17
ATOM     17  C   LIG A   1      -5.741  -2.229 126.453  0.00  0.00    +0.243 C 
BRANCH  17  18
ATOM     18  O   LIG A   1      -5.062  -1.962 127.707  0.00  0.00    -0.464 OA
BRANCH  18  19
ATOM     19  C   LIG A   1      -5.361  -2.769 128.764  0.00  0.00    +0.304 C 
ATOM     20  C   LIG A   1      -4.122  -3.457 129.280  0.00  0.00    +0.136 C 
ATOM     21  O   LIG A   1      -6.465  -2.977 129.215  0.00  0.00    -0.251 OA
ENDBRANCH  18  19
ENDBRANCH  17  18
ENDBRANCH   4  17
TORSDOF 7
ENDMDL
MODEL 7
REMARK VINA RESULT:      -5.7      2.749      5.956
REMARK  Name = NuBBE_969
REMARK  11 active torsions:
REMARK  status: ('A' for Active; 'I' for Inactive)
REMARK    1  A    between atoms: C_1  and  C_2
REMARK    2  A    between atoms: C_2  and  C_3
REMARK    3  A    between atoms: C_2  and  O_4
REMARK    4  A    between atoms: C_2  and  C_5
REMARK    5  A    between atoms: C_8  and  C_10
REMARK    6  A    between atoms: C_10  and  C_11
REMARK    7  A    between atoms: C_13  and  C_14
REMARK    8  A    between atoms: C_13  and  C_19
REMARK    9  A    between atoms: C_14  and  O_15
REMARK   10  A    between atoms: O_15  and  C_16
REMARK   11  A    between atoms: C_16  and  C_17
REMARK                            x       y       z     vdW  Elec       q    Type
REMARK                         _______ _______ _______ _____ _____    ______ ____
ROOT
ATOM      1  C   LIG A   1      -4.272   3.635 126.072  0.00  0.00    +0.021 C 
ATOM      2  C   LIG A   1      -4.956   2.244 125.985  0.00  0.00    +0.015 C 
ATOM      3  C   LIG A   1      -6.501   2.224 125.838  0.00  0.00    +0.028 C 
ATOM      4  C   LIG A   1      -6.958   3.370 124.860  0.00  0.00    +0.029 C 
ATOM      5  C   LIG A   1      -6.560   4.750 125.444  0.00  0.00    +0.015 C 
ATOM      6  C   LIG A   1      -5.273   4.786 126.286  0.00  0.00    +0.007 C 
ENDROOT
BRANCH   1   8
ATOM      7  C   LIG A   1      -1.797   3.079 126.473  0.00  0.00    +0.041 C 
ATOM      8  C   LIG A   1      -3.085   3.648 127.084  0.00  0.00    +0.063 C 
ATOM      9  C   LIG A   1      -3.426   2.848 128.354  0.00  0.00    +0.041 C 
BRANCH   8  10
ATOM     10  O   LIG A   1      -2.828   5.003 127.459  0.00  0.00    -0.389 OA
ATOM     11  H   LIG A   1      -1.882   5.086 127.662  0.00  0.00    +0.210 HD
ENDBRANCH   8  10
ENDBRANCH   1   8
BRANCH   3  12
ATOM     12  C   LIG A   1      -7.215   2.059 127.208  0.00  0.00    -0.076 C 
ATOM     13  C   LIG A   1      -8.162   0.880 127.319  0.00  0.00    +0.038 C 
ATOM     14  C   LIG A   1      -7.144   2.863 128.284  0.00  0.00    +0.007 C 
ENDBRANCH   3  12
BRANCH   4  15
ATOM     15  C   LIG A   1      -6.307   3.143 123.464  0.00  0.00    -0.024 C 
ATOM     16  C   LIG A   1      -5.755   4.030 122.618  0.00  0.00    +0.004 C 
ENDBRANCH   4  15
BRANCH   4  17
ATOM     17  C   LIG A   1      -8.514   3.359 124.645  0.00  0.00    +0.243 C 
BRANCH  17  18
ATOM     18  O   LIG A   1      -8.934   2.545 123.520  0.00  0.00    -0.464 OA
BRANCH  18  19
ATOM     19  C   LIG A   1      -9.604   1.391 123.797  0.00  0.00    +0.304 C 
ATOM     20  C   LIG A   1      -8.724   0.189 123.558  0.00  0.00    +0.136 C 
ATOM     21  O   LIG A   1     -10.763   1.300 124.133  0.00  0.00    -0.251 OA
ENDBRANCH  18  19
ENDBRANCH  17  18
ENDBRANCH   4  17
TORSDOF 7
ENDMDL
MODEL 8
REMARK VINA RESULT:      -5.6      3.024      4.964
REMARK  Name = NuBBE_969
REMARK  11 active torsions:
REMARK  status: ('A' for Active; 'I' for Inactive)
REMARK    1  A    between atoms: C_1  and  C_2
REMARK    2  A    between atoms: C_2  and  C_3
REMARK    3  A    between atoms: C_2  and  O_4
REMARK    4  A    between atoms: C_2  and  C_5
REMARK    5  A    between atoms: C_8  and  C_10
REMARK    6  A    between atoms: C_10  and  C_11
REMARK    7  A    between atoms: C_13  and  C_14
REMARK    8  A    between atoms: C_13  and  C_19
REMARK    9  A    between atoms: C_14  and  O_15
REMARK   10  A    between atoms: O_15  and  C_16
REMARK   11  A    between atoms: C_16  and  C_17
REMARK                            x       y       z     vdW  Elec       q    Type
REMARK                         _______ _______ _______ _____ _____    ______ ____
ROOT
ATOM      1  C   LIG A   1      -6.784  -1.209 128.373  0.00  0.00    +0.021 C 
ATOM      2  C   LIG A   1      -6.295  -2.160 127.248  0.00  0.00    +0.015 C 
ATOM      3  C   LIG A   1      -6.994  -2.040 125.868  0.00  0.00    +0.028 C 
ATOM      4  C   LIG A   1      -7.260  -0.526 125.534  0.00  0.00    +0.029 C 
ATOM      5  C   LIG A   1      -8.209   0.089 126.596  0.00  0.00    +0.015 C 
ATOM      6  C   LIG A   1      -8.095  -0.482 128.020  0.00  0.00    +0.007 C 
ENDROOT
BRANCH   1   8
ATOM      7  C   LIG A   1      -7.214  -3.389 129.661  0.00  0.00    +0.041 C 
ATOM      8  C   LIG A   1      -6.818  -1.909 129.766  0.00  0.00    +0.063 C 
ATOM      9  C   LIG A   1      -7.796  -1.202 130.722  0.00  0.00    +0.041 C 
BRANCH   8  10
ATOM     10  O   LIG A   1      -5.508  -1.848 130.334  0.00  0.00    -0.389 OA
ATOM     11  H   LIG A   1      -5.103  -1.006 130.069  0.00  0.00    +0.210 HD
ENDBRANCH   8  10
ENDBRANCH   1   8
BRANCH   3  12
ATOM     12  C   LIG A   1      -8.145  -3.072 125.706  0.00  0.00    -0.076 C 
ATOM     13  C   LIG A   1      -8.151  -3.855 124.408  0.00  0.00    +0.038 C 
ATOM     14  C   LIG A   1      -9.169  -3.312 126.545  0.00  0.00    +0.007 C 
ENDBRANCH   3  12
BRANCH   4  15
ATOM     15  C   LIG A   1      -5.903   0.236 125.489  0.00  0.00    -0.024 C 
ATOM     16  C   LIG A   1      -5.589   1.464 125.936  0.00  0.00    +0.004 C 
ENDBRANCH   4  15
BRANCH   4  17
ATOM     17  C   LIG A   1      -7.927  -0.353 124.122  0.00  0.00    +0.243 C 
BRANCH  17  18
ATOM     18  O   LIG A   1      -9.357  -0.116 124.186  0.00  0.00    -0.464 OA
BRANCH  18  19
ATOM     19  C   LIG A   1      -9.903   0.680 123.223  0.00  0.00    +0.304 C 
ATOM     20  C   LIG A   1      -9.226   2.028 123.196  0.00  0.00    +0.136 C 
ATOM     21  O   LIG A   1     -10.840   0.401 122.512  0.00  0.00    -0.251 OA
ENDBRANCH  18  19
ENDBRANCH  17  18
ENDBRANCH   4  17
TORSDOF 7
ENDMDL
MODEL 9
REMARK VINA RESULT:      -5.6      2.328      3.732
REMARK  Name = NuBBE_969
REMARK  11 active torsions:
REMARK  status: ('A' for Active; 'I' for Inactive)
REMARK    1  A    between atoms: C_1  and  C_2
REMARK    2  A    between atoms: C_2  and  C_3
REMARK    3  A    between atoms: C_2  and  O_4
REMARK    4  A    between atoms: C_2  and  C_5
REMARK    5  A    between atoms: C_8  and  C_10
REMARK    6  A    between atoms: C_10  and  C_11
REMARK    7  A    between atoms: C_13  and  C_14
REMARK    8  A    between atoms: C_13  and  C_19
REMARK    9  A    between atoms: C_14  and  O_15
REMARK   10  A    between atoms: O_15  and  C_16
REMARK   11  A    between atoms: C_16  and  C_17
REMARK                            x       y       z     vdW  Elec       q    Type
REMARK                         _______ _______ _______ _____ _____    ______ ____
ROOT
ATOM      1  C   LIG A   1      -7.055  -2.104 126.982  0.00  0.00    +0.021 C 
ATOM      2  C   LIG A   1      -8.357  -1.946 126.151  0.00  0.00    +0.015 C 
ATOM      3  C   LIG A   1      -8.394  -0.798 125.107  0.00  0.00    +0.028 C 
ATOM      4  C   LIG A   1      -7.000  -0.689 124.384  0.00  0.00    +0.029 C 
ATOM      5  C   LIG A   1      -5.896  -0.348 125.418  0.00  0.00    +0.015 C 
ATOM      6  C   LIG A   1      -6.099  -0.905 126.838  0.00  0.00    +0.007 C 
ENDROOT
BRANCH   1   8
ATOM      7  C   LIG A   1      -8.501  -3.494 128.586  0.00  0.00    +0.041 C 
ATOM      8  C   LIG A   1      -7.343  -2.493 128.465  0.00  0.00    +0.063 C 
ATOM      9  C   LIG A   1      -7.672  -1.252 129.313  0.00  0.00    +0.041 C 
BRANCH   8  10
ATOM     10  O   LIG A   1      -6.174  -3.112 129.004  0.00  0.00    -0.389 OA
ATOM     11  H   LIG A   1      -5.569  -2.411 129.297  0.00  0.00    +0.210 HD
ENDBRANCH   8  10
ENDBRANCH   1   8
BRANCH   3  12
ATOM     12  C   LIG A   1      -9.062   0.485 125.676  0.00  0.00    -0.076 C 
ATOM     13  C   LIG A   1     -10.090   1.145 124.779  0.00  0.00    +0.038 C 
ATOM     14  C   LIG A   1      -8.798   1.114 126.835  0.00  0.00    +0.007 C 
ENDBRANCH   3  12
BRANCH   4  15
ATOM     15  C   LIG A   1      -6.693  -2.032 123.659  0.00  0.00    -0.024 C 
ATOM     16  C   LIG A   1      -5.520  -2.662 123.475  0.00  0.00    +0.004 C 
ENDBRANCH   4  15
BRANCH   4  17
ATOM     17  C   LIG A   1      -7.006   0.433 123.285  0.00  0.00    +0.243 C 
BRANCH  17  18
ATOM     18  O   LIG A   1      -6.609   1.734 123.788  0.00  0.00    -0.464 OA
BRANCH  18  19
ATOM     19  C   LIG A   1      -6.979   2.826 123.060  0.00  0.00    +0.304 C 
ATOM     20  C   LIG A   1      -5.914   3.894 123.118  0.00  0.00    +0.136 C 
ATOM     21  O   LIG A   1      -8.032   2.979 122.485  0.00  0.00    -0.251 OA
ENDBRANCH  18  19
ENDBRANCH  17  18
ENDBRANCH   4  17
TORSDOF 7
ENDMDL
