MODEL 1
REMARK VINA RESULT:      -6.4      0.000      0.000
REMARK  Name = NuBBE_217
REMARK  8 active torsions:
REMARK  status: ('A' for Active; 'I' for Inactive)
REMARK    1  A    between atoms: O_1  and  C_2
REMARK    2  A    between atoms: C_7  and  C_8
REMARK    3  A    between atoms: C_9  and  C_18
REMARK    4  A    between atoms: C_12  and  O_17
REMARK    5  A    between atoms: C_14  and  C_16
REMARK    6  A    between atoms: C_18  and  C_20
REMARK    7  A    between atoms: C_18  and  C_21
REMARK    8  A    between atoms: C_21  and  O_22
REMARK                            x       y       z     vdW  Elec       q    Type
REMARK                         _______ _______ _______ _____ _____    ______ ____
ROOT
ATOM      1  C   LIG A   1      -8.780  -3.640 127.656  0.00  0.00    +0.120 A 
ATOM      2  C   LIG A   1      -8.743  -3.662 126.261  0.00  0.00    +0.050 A 
ATOM      3  C   LIG A   1      -7.738  -2.977 125.549  0.00  0.00    -0.035 A 
ATOM      4  C   LIG A   1      -6.771  -2.262 126.280  0.00  0.00    -0.040 A 
ATOM      5  C   LIG A   1      -6.801  -2.293 127.689  0.00  0.00    +0.011 A 
ATOM      6  C   LIG A   1      -7.803  -2.975 128.389  0.00  0.00    -0.009 A 
ATOM      7  C   LIG A   1      -7.819  -2.978 129.888  0.00  0.00    +0.048 C 
ATOM      8  C   LIG A   1      -5.672  -1.467 125.589  0.00  0.00    +0.027 C 
ATOM      9  C   LIG A   1      -5.269  -2.235 124.314  0.00  0.00    +0.040 C 
ATOM     10  C   LIG A   1      -6.438  -2.453 123.356  0.00  0.00    +0.122 C 
ATOM     11  C   LIG A   1      -7.648  -3.151 124.035  0.00  0.00    +0.045 C 
ATOM     12  C   LIG A   1      -8.967  -2.818 123.324  0.00  0.00    +0.015 C 
ENDROOT
BRANCH   1  13
ATOM     13  O   LIG A   1      -9.773  -4.295 128.330  0.00  0.00    -0.506 OA
ATOM     14  H   LIG A   1      -9.371  -4.973 128.896  0.00  0.00    +0.292 HD
ENDBRANCH   1  13
BRANCH  10  15
ATOM     15  O   LIG A   1      -6.779  -1.207 122.749  0.00  0.00    -0.391 OA
ATOM     16  H   LIG A   1      -7.709  -1.013 122.961  0.00  0.00    +0.210 HD
ENDBRANCH  10  15
BRANCH   8  17
ATOM     17  C   LIG A   1      -6.059   0.035 125.376  0.00  0.00    +0.019 C 
ATOM     18  C   LIG A   1      -5.160   0.972 126.201  0.00  0.00    +0.010 C 
BRANCH  17  19
ATOM     19  C   LIG A   1      -7.535   0.321 125.726  0.00  0.00    +0.159 C 
BRANCH  19  20
ATOM     20  O   LIG A   1      -8.330   0.467 124.552  0.00  0.00    -0.395 OA
ATOM     21  H   LIG A   1      -8.875   1.263 124.676  0.00  0.00    +0.209 HD
ENDBRANCH  19  20
ENDBRANCH  17  19
ENDBRANCH   8  17
TORSDOF 5
ENDMDL
MODEL 2
REMARK VINA RESULT:      -6.1      2.236      3.904
REMARK  Name = NuBBE_217
REMARK  8 active torsions:
REMARK  status: ('A' for Active; 'I' for Inactive)
REMARK    1  A    between atoms: O_1  and  C_2
REMARK    2  A    between atoms: C_7  and  C_8
REMARK    3  A    between atoms: C_9  and  C_18
REMARK    4  A    between atoms: C_12  and  O_17
REMARK    5  A    between atoms: C_14  and  C_16
REMARK    6  A    between atoms: C_18  and  C_20
REMARK    7  A    between atoms: C_18  and  C_21
REMARK    8  A    between atoms: C_21  and  O_22
REMARK                            x       y       z     vdW  Elec       q    Type
REMARK                         _______ _______ _______ _____ _____    ______ ____
ROOT
ATOM      1  C   LIG A   1      -5.543  -0.572 126.878  0.00  0.00    +0.120 A 
ATOM      2  C   LIG A   1      -6.276  -1.718 126.567  0.00  0.00    +0.050 A 
ATOM      3  C   LIG A   1      -7.108  -1.764 125.430  0.00  0.00    -0.035 A 
ATOM      4  C   LIG A   1      -7.187  -0.620 124.615  0.00  0.00    -0.040 A 
ATOM      5  C   LIG A   1      -6.402   0.510 124.923  0.00  0.00    +0.011 A 
ATOM      6  C   LIG A   1      -5.579   0.547 126.053  0.00  0.00    -0.009 A 
ATOM      7  C   LIG A   1      -4.765   1.768 126.365  0.00  0.00    +0.048 C 
ATOM      8  C   LIG A   1      -8.088  -0.572 123.388  0.00  0.00    +0.027 C 
ATOM      9  C   LIG A   1      -8.091  -1.978 122.754  0.00  0.00    +0.040 C 
ATOM     10  C   LIG A   1      -8.573  -3.063 123.715  0.00  0.00    +0.122 C 
ATOM     11  C   LIG A   1      -7.774  -3.083 125.047  0.00  0.00    +0.045 C 
ATOM     12  C   LIG A   1      -8.598  -3.684 126.194  0.00  0.00    +0.015 C 
ENDROOT
BRANCH   1  13
ATOM     13  O   LIG A   1      -4.755  -0.539 127.995  0.00  0.00    -0.506 OA
ATOM     14  H   LIG A   1      -4.301  -1.392 128.080  0.00  0.00    +0.292 HD
ENDBRANCH   1  13
BRANCH  10  15
ATOM     15  O   LIG A   1      -9.979  -2.919 123.909  0.00  0.00    -0.391 OA
ATOM     16  H   LIG A   1     -10.419  -3.691 123.513  0.00  0.00    +0.210 HD
ENDBRANCH  10  15
BRANCH   8  17
ATOM     17  C   LIG A   1      -9.500   0.029 123.701  0.00  0.00    +0.019 C 
ATOM     18  C   LIG A   1     -10.052   0.824 122.505  0.00  0.00    +0.010 C 
BRANCH  17  19
ATOM     19  C   LIG A   1      -9.492   0.939 124.947  0.00  0.00    +0.159 C 
BRANCH  19  20
ATOM     20  O   LIG A   1      -9.760   2.296 124.603  0.00  0.00    -0.395 OA
ATOM     21  H   LIG A   1      -8.948   2.652 124.204  0.00  0.00    +0.209 HD
ENDBRANCH  19  20
ENDBRANCH  17  19
ENDBRANCH   8  17
TORSDOF 5
ENDMDL
MODEL 3
REMARK VINA RESULT:      -5.7      2.906      4.252
REMARK  Name = NuBBE_217
REMARK  8 active torsions:
REMARK  status: ('A' for Active; 'I' for Inactive)
REMARK    1  A    between atoms: O_1  and  C_2
REMARK    2  A    between atoms: C_7  and  C_8
REMARK    3  A    between atoms: C_9  and  C_18
REMARK    4  A    between atoms: C_12  and  O_17
REMARK    5  A    between atoms: C_14  and  C_16
REMARK    6  A    between atoms: C_18  and  C_20
REMARK    7  A    between atoms: C_18  and  C_21
REMARK    8  A    between atoms: C_21  and  O_22
REMARK                            x       y       z     vdW  Elec       q    Type
REMARK                         _______ _______ _______ _____ _____    ______ ____
ROOT
ATOM      1  C   LIG A   1      -8.230  -2.175 123.526  0.00  0.00    +0.120 A 
ATOM      2  C   LIG A   1      -8.997  -1.023 123.348  0.00  0.00    +0.050 A 
ATOM      3  C   LIG A   1      -8.486   0.249 123.674  0.00  0.00    -0.035 A 
ATOM      4  C   LIG A   1      -7.179   0.331 124.191  0.00  0.00    -0.040 A 
ATOM      5  C   LIG A   1      -6.407  -0.841 124.319  0.00  0.00    +0.011 A 
ATOM      6  C   LIG A   1      -6.922  -2.101 123.993  0.00  0.00    -0.009 A 
ATOM      7  C   LIG A   1      -6.083  -3.333 124.153  0.00  0.00    +0.048 C 
ATOM      8  C   LIG A   1      -6.564   1.661 124.602  0.00  0.00    +0.027 C 
ATOM      9  C   LIG A   1      -7.080   2.738 123.626  0.00  0.00    +0.040 C 
ATOM     10  C   LIG A   1      -8.603   2.848 123.614  0.00  0.00    +0.122 C 
ATOM     11  C   LIG A   1      -9.301   1.492 123.325  0.00  0.00    +0.045 C 
ATOM     12  C   LIG A   1     -10.721   1.449 123.906  0.00  0.00    +0.015 C 
ENDROOT
BRANCH   1  13
ATOM     13  O   LIG A   1      -8.749  -3.403 123.221  0.00  0.00    -0.506 OA
ATOM     14  H   LIG A   1      -8.042  -4.064 123.287  0.00  0.00    +0.292 HD
ENDBRANCH   1  13
BRANCH  10  15
ATOM     15  O   LIG A   1      -9.034   3.450 124.835  0.00  0.00    -0.391 OA
ATOM     16  H   LIG A   1      -9.564   4.235 124.613  0.00  0.00    +0.210 HD
ENDBRANCH  10  15
BRANCH   8  17
ATOM     17  C   LIG A   1      -6.769   1.976 126.122  0.00  0.00    +0.019 C 
ATOM     18  C   LIG A   1      -5.434   1.961 126.887  0.00  0.00    +0.010 C 
BRANCH  17  19
ATOM     19  C   LIG A   1      -7.747   0.995 126.802  0.00  0.00    +0.159 C 
BRANCH  19  20
ATOM     20  O   LIG A   1      -9.023   1.594 127.013  0.00  0.00    -0.395 OA
ATOM     21  H   LIG A   1      -9.253   1.450 127.947  0.00  0.00    +0.209 HD
ENDBRANCH  19  20
ENDBRANCH  17  19
ENDBRANCH   8  17
TORSDOF 5
ENDMDL
MODEL 4
REMARK VINA RESULT:      -5.6      8.072     10.135
REMARK  Name = NuBBE_217
REMARK  8 active torsions:
REMARK  status: ('A' for Active; 'I' for Inactive)
REMARK    1  A    between atoms: O_1  and  C_2
REMARK    2  A    between atoms: C_7  and  C_8
REMARK    3  A    between atoms: C_9  and  C_18
REMARK    4  A    between atoms: C_12  and  O_17
REMARK    5  A    between atoms: C_14  and  C_16
REMARK    6  A    between atoms: C_18  and  C_20
REMARK    7  A    between atoms: C_18  and  C_21
REMARK    8  A    between atoms: C_21  and  O_22
REMARK                            x       y       z     vdW  Elec       q    Type
REMARK                         _______ _______ _______ _____ _____    ______ ____
ROOT
ATOM      1  C   LIG A   1     -11.195   6.106 129.605  0.00  0.00    +0.120 A 
ATOM      2  C   LIG A   1     -10.923   5.086 130.517  0.00  0.00    +0.050 A 
ATOM      3  C   LIG A   1      -9.776   5.128 131.336  0.00  0.00    -0.035 A 
ATOM      4  C   LIG A   1      -8.905   6.226 131.208  0.00  0.00    -0.040 A 
ATOM      5  C   LIG A   1      -9.224   7.268 130.313  0.00  0.00    +0.011 A 
ATOM      6  C   LIG A   1     -10.365   7.218 129.504  0.00  0.00    -0.009 A 
ATOM      7  C   LIG A   1     -10.672   8.333 128.550  0.00  0.00    +0.048 C 
ATOM      8  C   LIG A   1      -7.627   6.333 132.028  0.00  0.00    +0.027 C 
ATOM      9  C   LIG A   1      -7.909   5.725 133.417  0.00  0.00    +0.040 C 
ATOM     10  C   LIG A   1      -8.365   4.269 133.347  0.00  0.00    +0.122 C 
ATOM     11  C   LIG A   1      -9.596   4.070 132.421  0.00  0.00    +0.045 C 
ATOM     12  C   LIG A   1      -9.663   2.639 131.867  0.00  0.00    +0.015 C 
ENDROOT
BRANCH   1  13
ATOM     13  O   LIG A   1     -12.302   6.040 128.806  0.00  0.00    -0.506 OA
ATOM     14  H   LIG A   1     -12.096   6.455 127.954  0.00  0.00    +0.292 HD
ENDBRANCH   1  13
BRANCH  10  15
ATOM     15  O   LIG A   1      -7.253   3.451 132.984  0.00  0.00    -0.391 OA
ATOM     16  H   LIG A   1      -6.844   3.835 132.189  0.00  0.00    +0.210 HD
ENDBRANCH  10  15
BRANCH   8  17
ATOM     17  C   LIG A   1      -6.380   5.752 131.279  0.00  0.00    +0.019 C 
ATOM     18  C   LIG A   1      -5.354   6.851 130.954  0.00  0.00    +0.010 C 
BRANCH  17  19
ATOM     19  C   LIG A   1      -6.761   5.021 129.975  0.00  0.00    +0.159 C 
BRANCH  19  20
ATOM     20  O   LIG A   1      -6.707   3.606 130.135  0.00  0.00    -0.395 OA
ATOM     21  H   LIG A   1      -7.406   3.365 130.767  0.00  0.00    +0.209 HD
ENDBRANCH  19  20
ENDBRANCH  17  19
ENDBRANCH   8  17
TORSDOF 5
ENDMDL
MODEL 5
REMARK VINA RESULT:      -5.5      2.048      4.589
REMARK  Name = NuBBE_217
REMARK  8 active torsions:
REMARK  status: ('A' for Active; 'I' for Inactive)
REMARK    1  A    between atoms: O_1  and  C_2
REMARK    2  A    between atoms: C_7  and  C_8
REMARK    3  A    between atoms: C_9  and  C_18
REMARK    4  A    between atoms: C_12  and  O_17
REMARK    5  A    between atoms: C_14  and  C_16
REMARK    6  A    between atoms: C_18  and  C_20
REMARK    7  A    between atoms: C_18  and  C_21
REMARK    8  A    between atoms: C_21  and  O_22
REMARK                            x       y       z     vdW  Elec       q    Type
REMARK                         _______ _______ _______ _____ _____    ______ ____
ROOT
ATOM      1  C   LIG A   1      -7.223   1.806 124.293  0.00  0.00    +0.120 A 
ATOM      2  C   LIG A   1      -7.130   0.625 123.556  0.00  0.00    +0.050 A 
ATOM      3  C   LIG A   1      -7.608  -0.596 124.073  0.00  0.00    -0.035 A 
ATOM      4  C   LIG A   1      -8.180  -0.598 125.359  0.00  0.00    -0.040 A 
ATOM      5  C   LIG A   1      -8.305   0.615 126.066  0.00  0.00    +0.011 A 
ATOM      6  C   LIG A   1      -7.827   1.823 125.546  0.00  0.00    -0.009 A 
ATOM      7  C   LIG A   1      -7.960   3.096 126.327  0.00  0.00    +0.048 C 
ATOM      8  C   LIG A   1      -8.689  -1.878 126.005  0.00  0.00    +0.027 C 
ATOM      9  C   LIG A   1      -9.285  -2.762 124.891  0.00  0.00    +0.040 C 
ATOM     10  C   LIG A   1      -8.277  -3.095 123.794  0.00  0.00    +0.122 C 
ATOM     11  C   LIG A   1      -7.622  -1.830 123.175  0.00  0.00    +0.045 C 
ATOM     12  C   LIG A   1      -6.243  -2.140 122.576  0.00  0.00    +0.015 C 
ENDROOT
BRANCH   1  13
ATOM     13  O   LIG A   1      -6.737   2.978 123.784  0.00  0.00    -0.506 OA
ATOM     14  H   LIG A   1      -6.428   2.819 122.878  0.00  0.00    +0.292 HD
ENDBRANCH   1  13
BRANCH  10  15
ATOM     15  O   LIG A   1      -7.322  -4.024 124.308  0.00  0.00    -0.391 OA
ATOM     16  H   LIG A   1      -7.388  -4.017 125.278  0.00  0.00    +0.210 HD
ENDBRANCH  10  15
BRANCH   8  17
ATOM     17  C   LIG A   1      -7.610  -2.568 126.907  0.00  0.00    +0.019 C 
ATOM     18  C   LIG A   1      -8.054  -2.620 128.379  0.00  0.00    +0.010 C 
BRANCH  17  19
ATOM     19  C   LIG A   1      -6.236  -1.871 126.823  0.00  0.00    +0.159 C 
BRANCH  19  20
ATOM     20  O   LIG A   1      -5.349  -2.571 125.954  0.00  0.00    -0.395 OA
ATOM     21  H   LIG A   1      -5.542  -2.270 125.049  0.00  0.00    +0.209 HD
ENDBRANCH  19  20
ENDBRANCH  17  19
ENDBRANCH   8  17
TORSDOF 5
ENDMDL
MODEL 6
REMARK VINA RESULT:      -5.5      1.727      4.564
REMARK  Name = NuBBE_217
REMARK  8 active torsions:
REMARK  status: ('A' for Active; 'I' for Inactive)
REMARK    1  A    between atoms: O_1  and  C_2
REMARK    2  A    between atoms: C_7  and  C_8
REMARK    3  A    between atoms: C_9  and  C_18
REMARK    4  A    between atoms: C_12  and  O_17
REMARK    5  A    between atoms: C_14  and  C_16
REMARK    6  A    between atoms: C_18  and  C_20
REMARK    7  A    between atoms: C_18  and  C_21
REMARK    8  A    between atoms: C_21  and  O_22
REMARK                            x       y       z     vdW  Elec       q    Type
REMARK                         _______ _______ _______ _____ _____    ______ ____
ROOT
ATOM      1  C   LIG A   1      -5.955  -2.163 122.829  0.00  0.00    +0.120 A 
ATOM      2  C   LIG A   1      -6.778  -1.065 123.086  0.00  0.00    +0.050 A 
ATOM      3  C   LIG A   1      -7.131  -0.713 124.404  0.00  0.00    -0.035 A 
ATOM      4  C   LIG A   1      -6.638  -1.501 125.460  0.00  0.00    -0.040 A 
ATOM      5  C   LIG A   1      -5.771  -2.577 125.179  0.00  0.00    +0.011 A 
ATOM      6  C   LIG A   1      -5.425  -2.920 123.868  0.00  0.00    -0.009 A 
ATOM      7  C   LIG A   1      -4.512  -4.079 123.598  0.00  0.00    +0.048 C 
ATOM      8  C   LIG A   1      -6.999  -1.212 126.910  0.00  0.00    +0.027 C 
ATOM      9  C   LIG A   1      -7.109   0.319 127.070  0.00  0.00    +0.040 C 
ATOM     10  C   LIG A   1      -8.147   0.940 126.138  0.00  0.00    +0.122 C 
ATOM     11  C   LIG A   1      -7.909   0.578 124.647  0.00  0.00    +0.045 C 
ATOM     12  C   LIG A   1      -9.208   0.648 123.832  0.00  0.00    +0.015 C 
ENDROOT
BRANCH   1  13
ATOM     13  O   LIG A   1      -5.637  -2.501 121.543  0.00  0.00    -0.506 OA
ATOM     14  H   LIG A   1      -6.070  -1.875 120.941  0.00  0.00    +0.292 HD
ENDBRANCH   1  13
BRANCH  10  15
ATOM     15  O   LIG A   1      -9.452   0.589 126.597  0.00  0.00    -0.391 OA
ATOM     16  H   LIG A   1      -9.799  -0.108 126.014  0.00  0.00    +0.210 HD
ENDBRANCH  10  15
BRANCH   8  17
ATOM     17  C   LIG A   1      -8.243  -2.031 127.396  0.00  0.00    +0.019 C 
ATOM     18  C   LIG A   1      -7.899  -2.912 128.609  0.00  0.00    +0.010 C 
BRANCH  17  19
ATOM     19  C   LIG A   1      -8.837  -2.919 126.283  0.00  0.00    +0.159 C 
BRANCH  19  20
ATOM     20  O   LIG A   1     -10.005  -2.332 125.715  0.00  0.00    -0.395 OA
ATOM     21  H   LIG A   1     -10.737  -2.506 126.332  0.00  0.00    +0.209 HD
ENDBRANCH  19  20
ENDBRANCH  17  19
ENDBRANCH   8  17
TORSDOF 5
ENDMDL
MODEL 7
REMARK VINA RESULT:      -5.4      2.278      4.956
REMARK  Name = NuBBE_217
REMARK  8 active torsions:
REMARK  status: ('A' for Active; 'I' for Inactive)
REMARK    1  A    between atoms: O_1  and  C_2
REMARK    2  A    between atoms: C_7  and  C_8
REMARK    3  A    between atoms: C_9  and  C_18
REMARK    4  A    between atoms: C_12  and  O_17
REMARK    5  A    between atoms: C_14  and  C_16
REMARK    6  A    between atoms: C_18  and  C_20
REMARK    7  A    between atoms: C_18  and  C_21
REMARK    8  A    between atoms: C_21  and  O_22
REMARK                            x       y       z     vdW  Elec       q    Type
REMARK                         _______ _______ _______ _____ _____    ______ ____
ROOT
ATOM      1  C   LIG A   1      -5.428   2.111 126.109  0.00  0.00    +0.120 A 
ATOM      2  C   LIG A   1      -5.325   0.720 126.168  0.00  0.00    +0.050 A 
ATOM      3  C   LIG A   1      -5.961  -0.097 125.212  0.00  0.00    -0.035 A 
ATOM      4  C   LIG A   1      -6.710   0.524 124.195  0.00  0.00    -0.040 A 
ATOM      5  C   LIG A   1      -6.761   1.931 124.129  0.00  0.00    +0.011 A 
ATOM      6  C   LIG A   1      -6.127   2.736 125.082  0.00  0.00    -0.009 A 
ATOM      7  C   LIG A   1      -6.210   4.230 124.996  0.00  0.00    +0.048 C 
ATOM      8  C   LIG A   1      -7.457  -0.286 123.144  0.00  0.00    +0.027 C 
ATOM      9  C   LIG A   1      -6.614  -1.539 122.831  0.00  0.00    +0.040 C 
ATOM     10  C   LIG A   1      -6.350  -2.400 124.064  0.00  0.00    +0.122 C 
ATOM     11  C   LIG A   1      -5.701  -1.601 125.227  0.00  0.00    +0.045 C 
ATOM     12  C   LIG A   1      -6.002  -2.239 126.590  0.00  0.00    +0.015 C 
ENDROOT
BRANCH   1  13
ATOM     13  O   LIG A   1      -4.820   2.888 127.056  0.00  0.00    -0.506 OA
ATOM     14  H   LIG A   1      -4.604   3.747 126.661  0.00  0.00    +0.292 HD
ENDBRANCH   1  13
BRANCH  10  15
ATOM     15  O   LIG A   1      -7.561  -3.053 124.442  0.00  0.00    -0.391 OA
ATOM     16  H   LIG A   1      -7.998  -3.371 123.632  0.00  0.00    +0.210 HD
ENDBRANCH  10  15
BRANCH   8  17
ATOM     17  C   LIG A   1      -8.947  -0.558 123.540  0.00  0.00    +0.019 C 
ATOM     18  C   LIG A   1      -9.921   0.252 122.666  0.00  0.00    +0.010 C 
BRANCH  17  19
ATOM     19  C   LIG A   1      -9.231  -0.248 125.025  0.00  0.00    +0.159 C 
BRANCH  19  20
ATOM     20  O   LIG A   1      -9.540  -1.432 125.755  0.00  0.00    -0.395 OA
ATOM     21  H   LIG A   1      -8.708  -1.745 126.151  0.00  0.00    +0.209 HD
ENDBRANCH  19  20
ENDBRANCH  17  19
ENDBRANCH   8  17
TORSDOF 5
ENDMDL
MODEL 8
REMARK VINA RESULT:      -5.4      7.496      9.208
REMARK  Name = NuBBE_217
REMARK  8 active torsions:
REMARK  status: ('A' for Active; 'I' for Inactive)
REMARK    1  A    between atoms: O_1  and  C_2
REMARK    2  A    between atoms: C_7  and  C_8
REMARK    3  A    between atoms: C_9  and  C_18
REMARK    4  A    between atoms: C_12  and  O_17
REMARK    5  A    between atoms: C_14  and  C_16
REMARK    6  A    between atoms: C_18  and  C_20
REMARK    7  A    between atoms: C_18  and  C_21
REMARK    8  A    between atoms: C_21  and  O_22
REMARK                            x       y       z     vdW  Elec       q    Type
REMARK                         _______ _______ _______ _____ _____    ______ ____
ROOT
ATOM      1  C   LIG A   1      -4.033   2.256 131.245  0.00  0.00    +0.120 A 
ATOM      2  C   LIG A   1      -4.197   2.831 129.983  0.00  0.00    +0.050 A 
ATOM      3  C   LIG A   1      -3.688   4.114 129.696  0.00  0.00    -0.035 A 
ATOM      4  C   LIG A   1      -3.014   4.808 130.718  0.00  0.00    -0.040 A 
ATOM      5  C   LIG A   1      -2.821   4.190 131.970  0.00  0.00    +0.011 A 
ATOM      6  C   LIG A   1      -3.329   2.916 132.247  0.00  0.00    -0.009 A 
ATOM      7  C   LIG A   1      -3.122   2.288 133.592  0.00  0.00    +0.048 C 
ATOM      8  C   LIG A   1      -2.465   6.212 130.503  0.00  0.00    +0.027 C 
ATOM      9  C   LIG A   1      -1.970   6.304 129.045  0.00  0.00    +0.040 C 
ATOM     10  C   LIG A   1      -3.067   6.009 128.025  0.00  0.00    +0.122 C 
ATOM     11  C   LIG A   1      -3.759   4.640 128.265  0.00  0.00    +0.045 C 
ATOM     12  C   LIG A   1      -5.185   4.617 127.697  0.00  0.00    +0.015 C 
ENDROOT
BRANCH   1  13
ATOM     13  O   LIG A   1      -4.549   1.019 131.511  0.00  0.00    -0.506 OA
ATOM     14  H   LIG A   1      -4.941   1.030 132.399  0.00  0.00    +0.292 HD
ENDBRANCH   1  13
BRANCH  10  15
ATOM     15  O   LIG A   1      -3.984   7.102 128.002  0.00  0.00    -0.391 OA
ATOM     16  H   LIG A   1      -4.569   7.021 128.775  0.00  0.00    +0.210 HD
ENDBRANCH  10  15
BRANCH   8  17
ATOM     17  C   LIG A   1      -3.473   7.327 130.943  0.00  0.00    +0.019 C 
ATOM     18  C   LIG A   1      -2.943   8.124 132.147  0.00  0.00    +0.010 C 
BRANCH  17  19
ATOM     19  C   LIG A   1      -4.866   6.761 131.291  0.00  0.00    +0.159 C 
BRANCH  19  20
ATOM     20  O   LIG A   1      -5.834   7.115 130.307  0.00  0.00    -0.395 OA
ATOM     21  H   LIG A   1      -6.047   6.304 129.814  0.00  0.00    +0.209 HD
ENDBRANCH  19  20
ENDBRANCH  17  19
ENDBRANCH   8  17
TORSDOF 5
ENDMDL
MODEL 9
REMARK VINA RESULT:      -5.3      8.467     10.967
REMARK  Name = NuBBE_217
REMARK  8 active torsions:
REMARK  status: ('A' for Active; 'I' for Inactive)
REMARK    1  A    between atoms: O_1  and  C_2
REMARK    2  A    between atoms: C_7  and  C_8
REMARK    3  A    between atoms: C_9  and  C_18
REMARK    4  A    between atoms: C_12  and  O_17
REMARK    5  A    between atoms: C_14  and  C_16
REMARK    6  A    between atoms: C_18  and  C_20
REMARK    7  A    between atoms: C_18  and  C_21
REMARK    8  A    between atoms: C_21  and  O_22
REMARK                            x       y       z     vdW  Elec       q    Type
REMARK                         _______ _______ _______ _____ _____    ______ ____
ROOT
ATOM      1  C   LIG A   1      -5.221   7.396 130.654  0.00  0.00    +0.120 A 
ATOM      2  C   LIG A   1      -6.602   7.197 130.675  0.00  0.00    +0.050 A 
ATOM      3  C   LIG A   1      -7.214   6.446 131.699  0.00  0.00    -0.035 A 
ATOM      4  C   LIG A   1      -6.395   5.894 132.702  0.00  0.00    -0.040 A 
ATOM      5  C   LIG A   1      -5.008   6.147 132.685  0.00  0.00    +0.011 A 
ATOM      6  C   LIG A   1      -4.408   6.893 131.665  0.00  0.00    -0.009 A 
ATOM      7  C   LIG A   1      -2.929   7.133 131.664  0.00  0.00    +0.048 C 
ATOM      8  C   LIG A   1      -6.970   5.041 133.824  0.00  0.00    +0.027 C 
ATOM      9  C   LIG A   1      -8.358   5.612 134.183  0.00  0.00    +0.040 C 
ATOM     10  C   LIG A   1      -9.317   5.630 132.996  0.00  0.00    +0.122 C 
ATOM     11  C   LIG A   1      -8.737   6.380 131.766  0.00  0.00    +0.045 C 
ATOM     12  C   LIG A   1      -9.365   5.888 130.453  0.00  0.00    +0.015 C 
ENDROOT
BRANCH   1  13
ATOM     13  O   LIG A   1      -4.642   8.111 129.642  0.00  0.00    -0.506 OA
ATOM     14  H   LIG A   1      -4.604   9.044 129.904  0.00  0.00    +0.292 HD
ENDBRANCH   1  13
BRANCH  10  15
ATOM     15  O   LIG A   1      -9.713   4.291 132.698  0.00  0.00    -0.391 OA
ATOM     16  H   LIG A   1     -10.660   4.300 132.473  0.00  0.00    +0.210 HD
ENDBRANCH  10  15
BRANCH   8  17
ATOM     17  C   LIG A   1      -6.936   3.510 133.495  0.00  0.00    +0.019 C 
ATOM     18  C   LIG A   1      -6.026   2.744 134.471  0.00  0.00    +0.010 C 
BRANCH  17  19
ATOM     19  C   LIG A   1      -6.473   3.226 132.051  0.00  0.00    +0.159 C 
BRANCH  19  20
ATOM     20  O   LIG A   1      -7.572   2.891 131.208  0.00  0.00    -0.395 OA
ATOM     21  H   LIG A   1      -7.745   1.942 131.332  0.00  0.00    +0.209 HD
ENDBRANCH  19  20
ENDBRANCH  17  19
ENDBRANCH   8  17
TORSDOF 5
ENDMDL
