MODEL 1
REMARK VINA RESULT:      -9.2      0.000      0.000
REMARK  Name = NuBBE_1317
REMARK  3 active torsions:
REMARK  status: ('A' for Active; 'I' for Inactive)
REMARK    1  A    between atoms: C_4  and  C_18
REMARK    2  A    between atoms: C_14  and  C_15
REMARK    3  A    between atoms: C_14  and  C_17
REMARK                            x       y       z     vdW  Elec       q    Type
REMARK                         _______ _______ _______ _____ _____    ______ ____
ROOT
ATOM      1  O   LIG A   1      -8.405   5.087 133.872  0.00  0.00    -0.292 OA
ATOM      2  C   LIG A   1      -8.255   5.593 132.765  0.00  0.00    +0.171 C 
ATOM      3  C   LIG A   1      -6.931   5.606 132.060  0.00  0.00    +0.129 C 
ATOM      4  C   LIG A   1      -6.880   6.845 131.178  0.00  0.00    +0.211 C 
ATOM      5  O   LIG A   1      -7.938   6.816 130.206  0.00  0.00    -0.482 OA
ATOM      6  C   LIG A   1      -9.189   6.737 130.770  0.00  0.00    +0.142 A 
ATOM      7  C   LIG A   1      -9.403   6.164 132.030  0.00  0.00    +0.060 A 
ATOM      8  C   LIG A   1     -10.687   6.098 132.573  0.00  0.00    +0.019 A 
ATOM      9  C   LIG A   1     -11.766   6.596 131.846  0.00  0.00    +0.047 A 
ATOM     10  C   LIG A   1     -11.565   7.155 130.582  0.00  0.00    +0.132 A 
ATOM     11  C   LIG A   1     -10.280   7.222 130.028  0.00  0.00    +0.059 A 
ATOM     12  C   LIG A   1     -10.115   7.795 128.697  0.00  0.00    +0.015 C 
ATOM     13  C   LIG A   1     -11.189   8.310 128.091  0.00  0.00    +0.020 C 
ATOM     14  C   LIG A   1     -12.565   8.324 128.713  0.00  0.00    +0.123 C 
ATOM     15  C   LIG A   1     -13.566   7.689 127.741  0.00  0.00    +0.060 C 
ATOM     16  O   LIG A   1     -12.694   7.596 129.951  0.00  0.00    -0.481 OA
ATOM     17  C   LIG A   1     -12.977   9.771 129.006  0.00  0.00    +0.060 C 
ENDROOT
BRANCH   4  18
ATOM     18  C   LIG A   1      -5.551   6.929 130.450  0.00  0.00    -0.007 A 
ATOM     19  C   LIG A   1      -4.903   8.158 130.252  0.00  0.00    +0.007 A 
ATOM     20  C   LIG A   1      -3.693   8.221 129.559  0.00  0.00    +0.000 A 
ATOM     21  C   LIG A   1      -3.119   7.058 129.051  0.00  0.00    +0.000 A 
ATOM     22  C   LIG A   1      -3.754   5.831 129.234  0.00  0.00    +0.000 A 
ATOM     23  C   LIG A   1      -4.963   5.766 129.928  0.00  0.00    +0.007 A 
ENDBRANCH   4  18
TORSDOF 1
ENDMDL
MODEL 2
REMARK VINA RESULT:      -9.0      8.789     10.063
REMARK  Name = NuBBE_1317
REMARK  3 active torsions:
REMARK  status: ('A' for Active; 'I' for Inactive)
REMARK    1  A    between atoms: C_4  and  C_18
REMARK    2  A    between atoms: C_14  and  C_15
REMARK    3  A    between atoms: C_14  and  C_17
REMARK                            x       y       z     vdW  Elec       q    Type
REMARK                         _______ _______ _______ _____ _____    ______ ____
ROOT
ATOM      1  O   LIG A   1      -8.116   3.957 126.560  0.00  0.00    -0.292 OA
ATOM      2  C   LIG A   1      -7.747   3.333 125.570  0.00  0.00    +0.171 C 
ATOM      3  C   LIG A   1      -6.981   3.978 124.453  0.00  0.00    +0.129 C 
ATOM      4  C   LIG A   1      -7.316   3.239 123.166  0.00  0.00    +0.211 C 
ATOM      5  O   LIG A   1      -6.941   1.856 123.266  0.00  0.00    -0.482 OA
ATOM      6  C   LIG A   1      -7.551   1.204 124.311  0.00  0.00    +0.142 A 
ATOM      7  C   LIG A   1      -7.984   1.879 125.459  0.00  0.00    +0.060 A 
ATOM      8  C   LIG A   1      -8.598   1.186 126.503  0.00  0.00    +0.019 A 
ATOM      9  C   LIG A   1      -8.770  -0.193 126.404  0.00  0.00    +0.047 A 
ATOM     10  C   LIG A   1      -8.327  -0.878 125.269  0.00  0.00    +0.132 A 
ATOM     11  C   LIG A   1      -7.706  -0.191 124.219  0.00  0.00    +0.059 A 
ATOM     12  C   LIG A   1      -7.240  -0.945 123.061  0.00  0.00    +0.015 C 
ATOM     13  C   LIG A   1      -7.499  -2.255 123.011  0.00  0.00    +0.020 C 
ATOM     14  C   LIG A   1      -8.246  -2.993 124.096  0.00  0.00    +0.123 C 
ATOM     15  C   LIG A   1      -7.412  -4.196 124.555  0.00  0.00    +0.060 C 
ATOM     16  O   LIG A   1      -8.530  -2.229 125.286  0.00  0.00    -0.481 OA
ATOM     17  C   LIG A   1      -9.593  -3.478 123.549  0.00  0.00    +0.060 C 
ENDROOT
BRANCH   4  18
ATOM     18  C   LIG A   1      -6.587   3.859 121.989  0.00  0.00    -0.007 A 
ATOM     19  C   LIG A   1      -7.161   3.892 120.709  0.00  0.00    +0.007 A 
ATOM     20  C   LIG A   1      -6.466   4.444 119.631  0.00  0.00    +0.000 A 
ATOM     21  C   LIG A   1      -5.187   4.964 119.818  0.00  0.00    +0.000 A 
ATOM     22  C   LIG A   1      -4.601   4.932 121.082  0.00  0.00    +0.000 A 
ATOM     23  C   LIG A   1      -5.295   4.382 122.161  0.00  0.00    +0.007 A 
ENDBRANCH   4  18
TORSDOF 1
ENDMDL
MODEL 3
REMARK VINA RESULT:      -8.6      7.124      9.212
REMARK  Name = NuBBE_1317
REMARK  3 active torsions:
REMARK  status: ('A' for Active; 'I' for Inactive)
REMARK    1  A    between atoms: C_4  and  C_18
REMARK    2  A    between atoms: C_14  and  C_15
REMARK    3  A    between atoms: C_14  and  C_17
REMARK                            x       y       z     vdW  Elec       q    Type
REMARK                         _______ _______ _______ _____ _____    ______ ____
ROOT
ATOM      1  O   LIG A   1      -9.979   1.326 123.547  0.00  0.00    -0.292 OA
ATOM      2  C   LIG A   1      -9.017   2.088 123.514  0.00  0.00    +0.171 C 
ATOM      3  C   LIG A   1      -8.656   2.874 122.288  0.00  0.00    +0.129 C 
ATOM      4  C   LIG A   1      -7.150   3.089 122.295  0.00  0.00    +0.211 C 
ATOM      5  O   LIG A   1      -6.750   3.820 123.465  0.00  0.00    -0.482 OA
ATOM      6  C   LIG A   1      -7.104   3.198 124.639  0.00  0.00    +0.142 A 
ATOM      7  C   LIG A   1      -8.195   2.324 124.719  0.00  0.00    +0.060 A 
ATOM      8  C   LIG A   1      -8.529   1.710 125.927  0.00  0.00    +0.019 A 
ATOM      9  C   LIG A   1      -7.773   1.981 127.066  0.00  0.00    +0.047 A 
ATOM     10  C   LIG A   1      -6.692   2.863 127.000  0.00  0.00    +0.132 A 
ATOM     11  C   LIG A   1      -6.353   3.487 125.793  0.00  0.00    +0.059 A 
ATOM     12  C   LIG A   1      -5.230   4.417 125.770  0.00  0.00    +0.015 C 
ATOM     13  C   LIG A   1      -4.516   4.575 126.888  0.00  0.00    +0.020 C 
ATOM     14  C   LIG A   1      -4.815   3.842 128.174  0.00  0.00    +0.123 C 
ATOM     15  C   LIG A   1      -4.953   4.858 129.314  0.00  0.00    +0.060 C 
ATOM     16  O   LIG A   1      -6.034   3.070 128.180  0.00  0.00    -0.481 OA
ATOM     17  C   LIG A   1      -3.673   2.869 128.485  0.00  0.00    +0.060 C 
ENDROOT
BRANCH   4  18
ATOM     18  C   LIG A   1      -6.715   3.863 121.064  0.00  0.00    -0.007 A 
ATOM     19  C   LIG A   1      -5.461   4.490 121.000  0.00  0.00    +0.007 A 
ATOM     20  C   LIG A   1      -5.087   5.219 119.870  0.00  0.00    +0.000 A 
ATOM     21  C   LIG A   1      -5.963   5.336 118.794  0.00  0.00    +0.000 A 
ATOM     22  C   LIG A   1      -7.214   4.724 118.845  0.00  0.00    +0.000 A 
ATOM     23  C   LIG A   1      -7.590   3.994 119.974  0.00  0.00    +0.007 A 
ENDBRANCH   4  18
TORSDOF 1
ENDMDL
MODEL 4
REMARK VINA RESULT:      -8.5      1.664      6.721
REMARK  Name = NuBBE_1317
REMARK  3 active torsions:
REMARK  status: ('A' for Active; 'I' for Inactive)
REMARK    1  A    between atoms: C_4  and  C_18
REMARK    2  A    between atoms: C_14  and  C_15
REMARK    3  A    between atoms: C_14  and  C_17
REMARK                            x       y       z     vdW  Elec       q    Type
REMARK                         _______ _______ _______ _____ _____    ______ ____
ROOT
ATOM      1  O   LIG A   1      -9.533   3.945 133.831  0.00  0.00    -0.292 OA
ATOM      2  C   LIG A   1      -9.170   4.821 133.052  0.00  0.00    +0.171 C 
ATOM      3  C   LIG A   1     -10.140   5.739 132.368  0.00  0.00    +0.129 C 
ATOM      4  C   LIG A   1      -9.541   6.141 131.029  0.00  0.00    +0.211 C 
ATOM      5  O   LIG A   1      -8.292   6.823 131.218  0.00  0.00    -0.482 OA
ATOM      6  C   LIG A   1      -7.363   6.072 131.899  0.00  0.00    +0.142 A 
ATOM      7  C   LIG A   1      -7.735   5.064 132.798  0.00  0.00    +0.060 A 
ATOM      8  C   LIG A   1      -6.767   4.320 133.475  0.00  0.00    +0.019 A 
ATOM      9  C   LIG A   1      -5.418   4.595 133.261  0.00  0.00    +0.047 A 
ATOM     10  C   LIG A   1      -5.037   5.609 132.378  0.00  0.00    +0.132 A 
ATOM     11  C   LIG A   1      -6.002   6.362 131.698  0.00  0.00    +0.059 A 
ATOM     12  C   LIG A   1      -5.563   7.424 130.801  0.00  0.00    +0.015 C 
ATOM     13  C   LIG A   1      -4.252   7.583 130.599  0.00  0.00    +0.020 C 
ATOM     14  C   LIG A   1      -3.202   6.720 131.258  0.00  0.00    +0.123 C 
ATOM     15  C   LIG A   1      -2.183   7.619 131.968  0.00  0.00    +0.060 C 
ATOM     16  O   LIG A   1      -3.690   5.803 132.259  0.00  0.00    -0.481 OA
ATOM     17  C   LIG A   1      -2.493   5.877 130.192  0.00  0.00    +0.060 C 
ENDROOT
BRANCH   4  18
ATOM     18  C   LIG A   1     -10.487   7.057 130.274  0.00  0.00    -0.007 A 
ATOM     19  C   LIG A   1     -11.819   7.228 130.683  0.00  0.00    +0.007 A 
ATOM     20  C   LIG A   1     -12.684   8.055 129.963  0.00  0.00    +0.000 A 
ATOM     21  C   LIG A   1     -12.230   8.714 128.823  0.00  0.00    +0.000 A 
ATOM     22  C   LIG A   1     -10.912   8.549 128.402  0.00  0.00    +0.000 A 
ATOM     23  C   LIG A   1     -10.047   7.724 129.120  0.00  0.00    +0.007 A 
ENDBRANCH   4  18
TORSDOF 1
ENDMDL
MODEL 5
REMARK VINA RESULT:      -8.3      8.581     10.374
REMARK  Name = NuBBE_1317
REMARK  3 active torsions:
REMARK  status: ('A' for Active; 'I' for Inactive)
REMARK    1  A    between atoms: C_4  and  C_18
REMARK    2  A    between atoms: C_14  and  C_15
REMARK    3  A    between atoms: C_14  and  C_17
REMARK                            x       y       z     vdW  Elec       q    Type
REMARK                         _______ _______ _______ _____ _____    ______ ____
ROOT
ATOM      1  O   LIG A   1      -9.800  -1.942 123.309  0.00  0.00    -0.292 OA
ATOM      2  C   LIG A   1      -9.083  -1.318 124.085  0.00  0.00    +0.171 C 
ATOM      3  C   LIG A   1      -8.613   0.077 123.798  0.00  0.00    +0.129 C 
ATOM      4  C   LIG A   1      -7.264   0.267 124.477  0.00  0.00    +0.211 C 
ATOM      5  O   LIG A   1      -7.383   0.086 125.897  0.00  0.00    -0.482 OA
ATOM      6  C   LIG A   1      -7.872  -1.151 126.245  0.00  0.00    +0.142 A 
ATOM      7  C   LIG A   1      -8.696  -1.894 125.390  0.00  0.00    +0.060 A 
ATOM      8  C   LIG A   1      -9.177  -3.146 125.774  0.00  0.00    +0.019 A 
ATOM      9  C   LIG A   1      -8.843  -3.654 127.028  0.00  0.00    +0.047 A 
ATOM     10  C   LIG A   1      -8.035  -2.913 127.895  0.00  0.00    +0.132 A 
ATOM     11  C   LIG A   1      -7.552  -1.654 127.518  0.00  0.00    +0.059 A 
ATOM     12  C   LIG A   1      -6.728  -0.905 128.459  0.00  0.00    +0.015 C 
ATOM     13  C   LIG A   1      -6.399  -1.486 129.616  0.00  0.00    +0.020 C 
ATOM     14  C   LIG A   1      -6.840  -2.879 129.999  0.00  0.00    +0.123 C 
ATOM     15  C   LIG A   1      -7.523  -2.833 131.372  0.00  0.00    +0.060 C 
ATOM     16  O   LIG A   1      -7.787  -3.498 129.105  0.00  0.00    -0.481 OA
ATOM     17  C   LIG A   1      -5.619  -3.802 130.061  0.00  0.00    +0.060 C 
ENDROOT
BRANCH   4  18
ATOM     18  C   LIG A   1      -6.722   1.659 124.206  0.00  0.00    -0.007 A 
ATOM     19  C   LIG A   1      -6.902   2.284 122.963  0.00  0.00    +0.007 A 
ATOM     20  C   LIG A   1      -6.375   3.554 122.722  0.00  0.00    +0.000 A 
ATOM     21  C   LIG A   1      -5.656   4.211 123.718  0.00  0.00    +0.000 A 
ATOM     22  C   LIG A   1      -5.464   3.600 124.955  0.00  0.00    +0.000 A 
ATOM     23  C   LIG A   1      -5.990   2.331 125.198  0.00  0.00    +0.007 A 
ENDBRANCH   4  18
TORSDOF 1
ENDMDL
MODEL 6
REMARK VINA RESULT:      -8.2      2.122      2.383
REMARK  Name = NuBBE_1317
REMARK  3 active torsions:
REMARK  status: ('A' for Active; 'I' for Inactive)
REMARK    1  A    between atoms: C_4  and  C_18
REMARK    2  A    between atoms: C_14  and  C_15
REMARK    3  A    between atoms: C_14  and  C_17
REMARK                            x       y       z     vdW  Elec       q    Type
REMARK                         _______ _______ _______ _____ _____    ______ ____
ROOT
ATOM      1  O   LIG A   1      -7.250   1.981 131.760  0.00  0.00    -0.292 OA
ATOM      2  C   LIG A   1      -7.279   3.168 131.447  0.00  0.00    +0.171 C 
ATOM      3  C   LIG A   1      -6.046   4.021 131.417  0.00  0.00    +0.129 C 
ATOM      4  C   LIG A   1      -6.457   5.452 131.729  0.00  0.00    +0.211 C 
ATOM      5  O   LIG A   1      -7.394   5.933 130.752  0.00  0.00    -0.482 OA
ATOM      6  C   LIG A   1      -8.531   5.164 130.668  0.00  0.00    +0.142 A 
ATOM      7  C   LIG A   1      -8.539   3.807 131.013  0.00  0.00    +0.060 A 
ATOM      8  C   LIG A   1      -9.710   3.054 130.915  0.00  0.00    +0.019 A 
ATOM      9  C   LIG A   1     -10.878   3.660 130.456  0.00  0.00    +0.047 A 
ATOM     10  C   LIG A   1     -10.877   5.010 130.095  0.00  0.00    +0.132 A 
ATOM     11  C   LIG A   1      -9.705   5.770 130.187  0.00  0.00    +0.059 A 
ATOM     12  C   LIG A   1      -9.740   7.171 129.781  0.00  0.00    +0.015 C 
ATOM     13  C   LIG A   1     -10.912   7.695 129.413  0.00  0.00    +0.020 C 
ATOM     14  C   LIG A   1     -12.202   6.909 129.394  0.00  0.00    +0.123 C 
ATOM     15  C   LIG A   1     -12.851   7.038 128.010  0.00  0.00    +0.060 C 
ATOM     16  O   LIG A   1     -12.071   5.495 129.642  0.00  0.00    -0.481 OA
ATOM     17  C   LIG A   1     -13.152   7.461 130.463  0.00  0.00    +0.060 C 
ENDROOT
BRANCH   4  18
ATOM     18  C   LIG A   1      -5.246   6.366 131.735  0.00  0.00    -0.007 A 
ATOM     19  C   LIG A   1      -4.953   7.199 130.644  0.00  0.00    +0.007 A 
ATOM     20  C   LIG A   1      -3.821   8.015 130.655  0.00  0.00    +0.000 A 
ATOM     21  C   LIG A   1      -2.965   8.005 131.754  0.00  0.00    +0.000 A 
ATOM     22  C   LIG A   1      -3.239   7.180 132.842  0.00  0.00    +0.000 A 
ATOM     23  C   LIG A   1      -4.371   6.363 132.833  0.00  0.00    +0.007 A 
ENDBRANCH   4  18
TORSDOF 1
ENDMDL
MODEL 7
REMARK VINA RESULT:      -8.1      7.709     10.412
REMARK  Name = NuBBE_1317
REMARK  3 active torsions:
REMARK  status: ('A' for Active; 'I' for Inactive)
REMARK    1  A    between atoms: C_4  and  C_18
REMARK    2  A    between atoms: C_14  and  C_15
REMARK    3  A    between atoms: C_14  and  C_17
REMARK                            x       y       z     vdW  Elec       q    Type
REMARK                         _______ _______ _______ _____ _____    ______ ____
ROOT
ATOM      1  O   LIG A   1      -8.797   3.308 122.152  0.00  0.00    -0.292 OA
ATOM      2  C   LIG A   1      -8.275   2.509 122.923  0.00  0.00    +0.171 C 
ATOM      3  C   LIG A   1      -8.655   1.059 122.957  0.00  0.00    +0.129 C 
ATOM      4  C   LIG A   1      -8.441   0.550 124.375  0.00  0.00    +0.211 C 
ATOM      5  O   LIG A   1      -7.064   0.691 124.759  0.00  0.00    -0.482 OA
ATOM      6  C   LIG A   1      -6.614   1.989 124.693  0.00  0.00    +0.142 A 
ATOM      7  C   LIG A   1      -7.181   2.929 123.825  0.00  0.00    +0.060 A 
ATOM      8  C   LIG A   1      -6.700   4.239 123.780  0.00  0.00    +0.019 A 
ATOM      9  C   LIG A   1      -5.635   4.606 124.601  0.00  0.00    +0.047 A 
ATOM     10  C   LIG A   1      -5.053   3.670 125.460  0.00  0.00    +0.132 A 
ATOM     11  C   LIG A   1      -5.528   2.354 125.507  0.00  0.00    +0.059 A 
ATOM     12  C   LIG A   1      -4.879   1.402 126.402  0.00  0.00    +0.015 C 
ATOM     13  C   LIG A   1      -3.908   1.847 127.204  0.00  0.00    +0.020 C 
ATOM     14  C   LIG A   1      -3.445   3.285 127.227  0.00  0.00    +0.123 C 
ATOM     15  C   LIG A   1      -1.925   3.329 127.027  0.00  0.00    +0.060 C 
ATOM     16  O   LIG A   1      -4.005   4.134 126.205  0.00  0.00    -0.481 OA
ATOM     17  C   LIG A   1      -3.807   3.916 128.576  0.00  0.00    +0.060 C 
ENDROOT
BRANCH   4  18
ATOM     18  C   LIG A   1      -8.830  -0.913 124.481  0.00  0.00    -0.007 A 
ATOM     19  C   LIG A   1      -9.029  -1.528 125.727  0.00  0.00    +0.007 A 
ATOM     20  C   LIG A   1      -9.362  -2.881 125.808  0.00  0.00    +0.000 A 
ATOM     21  C   LIG A   1      -9.493  -3.638 124.646  0.00  0.00    +0.000 A 
ATOM     22  C   LIG A   1      -9.292  -3.043 123.402  0.00  0.00    +0.000 A 
ATOM     23  C   LIG A   1      -8.960  -1.691 123.319  0.00  0.00    +0.007 A 
ENDBRANCH   4  18
TORSDOF 1
ENDMDL
MODEL 8
REMARK VINA RESULT:      -7.8      3.254      4.295
REMARK  Name = NuBBE_1317
REMARK  3 active torsions:
REMARK  status: ('A' for Active; 'I' for Inactive)
REMARK    1  A    between atoms: C_4  and  C_18
REMARK    2  A    between atoms: C_14  and  C_15
REMARK    3  A    between atoms: C_14  and  C_17
REMARK                            x       y       z     vdW  Elec       q    Type
REMARK                         _______ _______ _______ _____ _____    ______ ____
ROOT
ATOM      1  O   LIG A   1      -8.462   1.153 133.097  0.00  0.00    -0.292 OA
ATOM      2  C   LIG A   1      -8.401   2.378 133.065  0.00  0.00    +0.171 C 
ATOM      3  C   LIG A   1      -7.424   3.155 133.897  0.00  0.00    +0.129 C 
ATOM      4  C   LIG A   1      -8.043   4.510 134.205  0.00  0.00    +0.211 C 
ATOM      5  O   LIG A   1      -8.315   5.229 132.992  0.00  0.00    -0.482 OA
ATOM      6  C   LIG A   1      -9.156   4.553 132.140  0.00  0.00    +0.142 A 
ATOM      7  C   LIG A   1      -9.253   3.157 132.142  0.00  0.00    +0.060 A 
ATOM      8  C   LIG A   1     -10.115   2.501 131.262  0.00  0.00    +0.019 A 
ATOM      9  C   LIG A   1     -10.876   3.247 130.364  0.00  0.00    +0.047 A 
ATOM     10  C   LIG A   1     -10.774   4.640 130.343  0.00  0.00    +0.132 A 
ATOM     11  C   LIG A   1      -9.908   5.305 131.220  0.00  0.00    +0.059 A 
ATOM     12  C   LIG A   1      -9.816   6.759 131.153  0.00  0.00    +0.015 C 
ATOM     13  C   LIG A   1     -10.625   7.407 130.310  0.00  0.00    +0.020 C 
ATOM     14  C   LIG A   1     -11.626   6.709 129.420  0.00  0.00    +0.123 C 
ATOM     15  C   LIG A   1     -11.409   7.154 127.969  0.00  0.00    +0.060 C 
ATOM     16  O   LIG A   1     -11.551   5.269 129.411  0.00  0.00    -0.481 OA
ATOM     17  C   LIG A   1     -13.047   7.075 129.865  0.00  0.00    +0.060 C 
ENDROOT
BRANCH   4  18
ATOM     18  C   LIG A   1      -7.109   5.340 135.066  0.00  0.00    -0.007 A 
ATOM     19  C   LIG A   1      -7.522   5.857 136.304  0.00  0.00    +0.007 A 
ATOM     20  C   LIG A   1      -6.658   6.640 137.072  0.00  0.00    +0.000 A 
ATOM     21  C   LIG A   1      -5.375   6.922 136.610  0.00  0.00    +0.000 A 
ATOM     22  C   LIG A   1      -4.953   6.421 135.380  0.00  0.00    +0.000 A 
ATOM     23  C   LIG A   1      -5.814   5.637 134.611  0.00  0.00    +0.007 A 
ENDBRANCH   4  18
TORSDOF 1
ENDMDL
MODEL 9
REMARK VINA RESULT:      -7.8      9.020     10.357
REMARK  Name = NuBBE_1317
REMARK  3 active torsions:
REMARK  status: ('A' for Active; 'I' for Inactive)
REMARK    1  A    between atoms: C_4  and  C_18
REMARK    2  A    between atoms: C_14  and  C_15
REMARK    3  A    between atoms: C_14  and  C_17
REMARK                            x       y       z     vdW  Elec       q    Type
REMARK                         _______ _______ _______ _____ _____    ______ ____
ROOT
ATOM      1  O   LIG A   1      -7.969   1.489 130.117  0.00  0.00    -0.292 OA
ATOM      2  C   LIG A   1      -7.818   0.322 129.766  0.00  0.00    +0.171 C 
ATOM      3  C   LIG A   1      -7.530  -0.780 130.742  0.00  0.00    +0.129 C 
ATOM      4  C   LIG A   1      -6.708  -1.840 130.025  0.00  0.00    +0.211 C 
ATOM      5  O   LIG A   1      -7.434  -2.371 128.906  0.00  0.00    -0.482 OA
ATOM      6  C   LIG A   1      -7.795  -1.411 127.990  0.00  0.00    +0.142 A 
ATOM      7  C   LIG A   1      -7.980  -0.071 128.351  0.00  0.00    +0.060 A 
ATOM      8  C   LIG A   1      -8.349   0.879 127.397  0.00  0.00    +0.019 A 
ATOM      9  C   LIG A   1      -8.547   0.483 126.075  0.00  0.00    +0.047 A 
ATOM     10  C   LIG A   1      -8.380  -0.855 125.709  0.00  0.00    +0.132 A 
ATOM     11  C   LIG A   1      -8.014  -1.814 126.661  0.00  0.00    +0.059 A 
ATOM     12  C   LIG A   1      -7.869  -3.204 126.242  0.00  0.00    +0.015 C 
ATOM     13  C   LIG A   1      -8.012  -3.493 124.946  0.00  0.00    +0.020 C 
ATOM     14  C   LIG A   1      -8.320  -2.454 123.894  0.00  0.00    +0.123 C 
ATOM     15  C   LIG A   1      -9.555  -2.893 123.097  0.00  0.00    +0.060 C 
ATOM     16  O   LIG A   1      -8.617  -1.134 124.393  0.00  0.00    -0.481 OA
ATOM     17  C   LIG A   1      -7.121  -2.313 122.950  0.00  0.00    +0.060 C 
ENDROOT
BRANCH   4  18
ATOM     18  C   LIG A   1      -6.364  -2.977 130.969  0.00  0.00    -0.007 A 
ATOM     19  C   LIG A   1      -6.649  -2.900 132.341  0.00  0.00    +0.007 A 
ATOM     20  C   LIG A   1      -6.303  -3.945 133.200  0.00  0.00    +0.000 A 
ATOM     21  C   LIG A   1      -5.663  -5.076 132.699  0.00  0.00    +0.000 A 
ATOM     22  C   LIG A   1      -5.368  -5.165 131.340  0.00  0.00    +0.000 A 
ATOM     23  C   LIG A   1      -5.714  -4.122 130.480  0.00  0.00    +0.007 A 
ENDBRANCH   4  18
TORSDOF 1
ENDMDL
