MODEL 1
REMARK VINA RESULT:      -7.0      0.000      0.000
REMARK  Name = NuBBE_442
REMARK  14 active torsions:
REMARK  status: ('A' for Active; 'I' for Inactive)
REMARK    1  A    between atoms: C_2  and  C_3
REMARK    2  A    between atoms: C_2  and  O_37
REMARK    3  A    between atoms: C_6  and  O_20
REMARK    4  A    between atoms: C_12  and  C_13
REMARK    5  A    between atoms: C_12  and  O_17
REMARK    6  A    between atoms: C_13  and  O_14
REMARK    7  A    between atoms: O_14  and  C_15
REMARK    8  A    between atoms: O_20  and  C_21
REMARK    9  A    between atoms: C_23  and  O_36
REMARK   10  A    between atoms: C_25  and  O_35
REMARK   11  A    between atoms: C_27  and  O_34
REMARK   12  A    between atoms: C_29  and  C_32
REMARK   13  A    between atoms: C_32  and  O_33
REMARK   14  A    between atoms: O_37  and  C_38
REMARK                            x       y       z     vdW  Elec       q    Type
REMARK                         _______ _______ _______ _____ _____    ______ ____
ROOT
ATOM      1  C   LIG A   1      -7.867   2.835 127.654  0.00  0.00    +0.078 C 
ATOM      2  C   LIG A   1      -7.631   4.079 128.084  0.00  0.00    +0.201 C 
ATOM      3  O   LIG A   1      -7.851   4.502 129.366  0.00  0.00    -0.470 OA
ATOM      4  C   LIG A   1      -8.928   3.818 130.025  0.00  0.00    +0.317 C 
ATOM      5  C   LIG A   1      -8.819   2.284 129.957  0.00  0.00    +0.116 C 
ATOM      6  C   LIG A   1      -8.271   1.755 128.605  0.00  0.00    +0.064 C 
ATOM      7  C   LIG A   1      -7.066   0.936 128.985  0.00  0.00    -0.019 C 
ATOM      8  C   LIG A   1      -6.844   0.932 130.300  0.00  0.00    +0.015 C 
ATOM      9  C   LIG A   1      -7.902   1.673 131.054  0.00  0.00    +0.190 C 
ENDROOT
BRANCH   1  11
ATOM     10  O   LIG A   1      -6.717   2.411 125.591  0.00  0.00    -0.245 OA
ATOM     11  C   LIG A   1      -7.754   2.570 126.199  0.00  0.00    +0.338 C 
BRANCH  11  12
ATOM     12  O   LIG A   1      -8.993   2.711 125.654  0.00  0.00    -0.465 OA
ATOM     13  C   LIG A   1      -9.069   2.350 124.279  0.00  0.00    +0.280 C 
ENDBRANCH  11  12
ENDBRANCH   1  11
BRANCH   9  14
ATOM     14  C   LIG A   1      -8.686   0.660 131.932  0.00  0.00    +0.343 C 
ATOM     15  O   LIG A   1      -9.899   0.500 131.879  0.00  0.00    -0.247 OA
BRANCH  14  16
ATOM     16  O   LIG A   1      -7.855   0.020 132.810  0.00  0.00    -0.466 OA
ATOM     17  C   LIG A   1      -7.895  -1.404 132.740  0.00  0.00    +0.280 C 
ENDBRANCH  14  16
ENDBRANCH   9  14
BRANCH   9  18
ATOM     18  O   LIG A   1      -7.251   2.670 131.822  0.00  0.00    -0.373 OA
ATOM     19  H   LIG A   1      -7.492   3.535 131.445  0.00  0.00    +0.211 HD
ENDBRANCH   9  18
BRANCH   4  20
ATOM     20  O   LIG A   1     -10.222   4.238 129.517  0.00  0.00    -0.309 OA
BRANCH  20  21
ATOM     21  C   LIG A   1     -10.919   5.051 130.481  0.00  0.00    +0.286 C 
ATOM     22  C   LIG A   1      -9.943   6.033 131.186  0.00  0.00    +0.201 C 
ATOM     23  C   LIG A   1      -9.620   7.273 130.331  0.00  0.00    +0.179 C 
ATOM     24  C   LIG A   1     -10.297   7.218 128.961  0.00  0.00    +0.177 C 
ATOM     25  C   LIG A   1     -11.781   6.941 129.200  0.00  0.00    +0.178 C 
ATOM     26  O   LIG A   1     -12.043   5.711 129.892  0.00  0.00    -0.340 OA
BRANCH  24  27
ATOM     27  O   LIG A   1     -10.101   8.463 128.285  0.00  0.00    -0.387 OA
ATOM     28  H   LIG A   1      -9.526   8.992 128.872  0.00  0.00    +0.210 HD
ENDBRANCH  24  27
BRANCH  23  29
ATOM     29  O   LIG A   1      -8.204   7.429 130.140  0.00  0.00    -0.386 OA
ATOM     30  H   LIG A   1      -7.904   6.703 129.564  0.00  0.00    +0.210 HD
ENDBRANCH  23  29
BRANCH  22  31
ATOM     31  O   LIG A   1     -10.545   6.481 132.419  0.00  0.00    -0.384 OA
ATOM     32  H   LIG A   1     -11.508   6.360 132.359  0.00  0.00    +0.210 HD
ENDBRANCH  22  31
BRANCH  25  33
ATOM     33  C   LIG A   1     -12.586   6.931 127.898  0.00  0.00    +0.190 C 
BRANCH  33  34
ATOM     34  O   LIG A   1     -11.745   6.527 126.814  0.00  0.00    -0.392 OA
ATOM     35  H   LIG A   1     -11.077   5.932 127.208  0.00  0.00    +0.209 HD
ENDBRANCH  33  34
ENDBRANCH  25  33
ENDBRANCH  20  21
ENDBRANCH   4  20
TORSDOF 12
ENDMDL
MODEL 2
REMARK VINA RESULT:      -6.8      2.383      6.209
REMARK  Name = NuBBE_442
REMARK  14 active torsions:
REMARK  status: ('A' for Active; 'I' for Inactive)
REMARK    1  A    between atoms: C_2  and  C_3
REMARK    2  A    between atoms: C_2  and  O_37
REMARK    3  A    between atoms: C_6  and  O_20
REMARK    4  A    between atoms: C_12  and  C_13
REMARK    5  A    between atoms: C_12  and  O_17
REMARK    6  A    between atoms: C_13  and  O_14
REMARK    7  A    between atoms: O_14  and  C_15
REMARK    8  A    between atoms: O_20  and  C_21
REMARK    9  A    between atoms: C_23  and  O_36
REMARK   10  A    between atoms: C_25  and  O_35
REMARK   11  A    between atoms: C_27  and  O_34
REMARK   12  A    between atoms: C_29  and  C_32
REMARK   13  A    between atoms: C_32  and  O_33
REMARK   14  A    between atoms: O_37  and  C_38
REMARK                            x       y       z     vdW  Elec       q    Type
REMARK                         _______ _______ _______ _____ _____    ______ ____
ROOT
ATOM      1  C   LIG A   1     -10.354   5.118 130.114  0.00  0.00    +0.078 C 
ATOM      2  C   LIG A   1     -10.344   3.796 130.309  0.00  0.00    +0.201 C 
ATOM      3  O   LIG A   1      -9.212   3.028 130.299  0.00  0.00    -0.470 OA
ATOM      4  C   LIG A   1      -8.180   3.530 129.436  0.00  0.00    +0.317 C 
ATOM      5  C   LIG A   1      -7.843   5.013 129.675  0.00  0.00    +0.116 C 
ATOM      6  C   LIG A   1      -9.080   5.891 130.002  0.00  0.00    +0.064 C 
ATOM      7  C   LIG A   1      -8.751   6.521 131.329  0.00  0.00    -0.019 C 
ATOM      8  C   LIG A   1      -7.562   6.137 131.797  0.00  0.00    +0.015 C 
ATOM      9  C   LIG A   1      -6.838   5.247 130.838  0.00  0.00    +0.190 C 
ENDROOT
BRANCH   1  11
ATOM     10  O   LIG A   1     -12.203   6.079 128.922  0.00  0.00    -0.245 OA
ATOM     11  C   LIG A   1     -11.670   5.788 129.972  0.00  0.00    +0.338 C 
BRANCH  11  12
ATOM     12  O   LIG A   1     -12.080   6.167 131.213  0.00  0.00    -0.465 OA
ATOM     13  C   LIG A   1     -12.787   7.403 131.242  0.00  0.00    +0.280 C 
ENDBRANCH  11  12
ENDBRANCH   1  11
BRANCH   9  14
ATOM     14  C   LIG A   1      -5.570   5.991 130.334  0.00  0.00    +0.343 C 
ATOM     15  O   LIG A   1      -4.894   6.743 131.026  0.00  0.00    -0.247 OA
BRANCH  14  16
ATOM     16  O   LIG A   1      -5.348   5.745 129.007  0.00  0.00    -0.466 OA
ATOM     17  C   LIG A   1      -4.168   4.992 128.729  0.00  0.00    +0.280 C 
ENDBRANCH  14  16
ENDBRANCH   9  14
BRANCH   9  18
ATOM     18  O   LIG A   1      -6.529   4.048 131.526  0.00  0.00    -0.373 OA
ATOM     19  H   LIG A   1      -5.740   3.663 131.105  0.00  0.00    +0.211 HD
ENDBRANCH   9  18
BRANCH   4  20
ATOM     20  O   LIG A   1      -8.500   3.322 128.035  0.00  0.00    -0.309 OA
BRANCH  20  21
ATOM     21  C   LIG A   1      -7.646   2.319 127.451  0.00  0.00    +0.286 C 
ATOM     22  C   LIG A   1      -8.446   1.406 126.482  0.00  0.00    +0.201 C 
ATOM     23  C   LIG A   1      -8.678   2.053 125.103  0.00  0.00    +0.179 C 
ATOM     24  C   LIG A   1      -8.110   3.471 125.032  0.00  0.00    +0.177 C 
ATOM     25  C   LIG A   1      -6.656   3.399 125.499  0.00  0.00    +0.178 C 
ATOM     26  O   LIG A   1      -6.495   2.907 126.838  0.00  0.00    -0.340 OA
BRANCH  24  27
ATOM     27  O   LIG A   1      -8.202   3.951 123.687  0.00  0.00    -0.387 OA
ATOM     28  H   LIG A   1      -8.666   3.250 123.190  0.00  0.00    +0.210 HD
ENDBRANCH  24  27
BRANCH  23  29
ATOM     29  O   LIG A   1     -10.075   2.099 124.769  0.00  0.00    -0.386 OA
ATOM     30  H   LIG A   1     -10.380   1.180 124.661  0.00  0.00    +0.210 HD
ENDBRANCH  23  29
BRANCH  22  31
ATOM     31  O   LIG A   1      -7.712   0.179 126.286  0.00  0.00    -0.384 OA
ATOM     32  H   LIG A   1      -7.280   0.210 125.415  0.00  0.00    +0.210 HD
ENDBRANCH  22  31
BRANCH  25  33
ATOM     33  C   LIG A   1      -5.950   4.755 125.407  0.00  0.00    +0.190 C 
BRANCH  33  34
ATOM     34  O   LIG A   1      -6.914   5.785 125.169  0.00  0.00    -0.392 OA
ATOM     35  H   LIG A   1      -7.621   5.640 125.828  0.00  0.00    +0.209 HD
ENDBRANCH  33  34
ENDBRANCH  25  33
ENDBRANCH  20  21
ENDBRANCH   4  20
TORSDOF 12
ENDMDL
MODEL 3
REMARK VINA RESULT:      -6.7      2.656      3.896
REMARK  Name = NuBBE_442
REMARK  14 active torsions:
REMARK  status: ('A' for Active; 'I' for Inactive)
REMARK    1  A    between atoms: C_2  and  C_3
REMARK    2  A    between atoms: C_2  and  O_37
REMARK    3  A    between atoms: C_6  and  O_20
REMARK    4  A    between atoms: C_12  and  C_13
REMARK    5  A    between atoms: C_12  and  O_17
REMARK    6  A    between atoms: C_13  and  O_14
REMARK    7  A    between atoms: O_14  and  C_15
REMARK    8  A    between atoms: O_20  and  C_21
REMARK    9  A    between atoms: C_23  and  O_36
REMARK   10  A    between atoms: C_25  and  O_35
REMARK   11  A    between atoms: C_27  and  O_34
REMARK   12  A    between atoms: C_29  and  C_32
REMARK   13  A    between atoms: C_32  and  O_33
REMARK   14  A    between atoms: O_37  and  C_38
REMARK                            x       y       z     vdW  Elec       q    Type
REMARK                         _______ _______ _______ _____ _____    ______ ____
ROOT
ATOM      1  C   LIG A   1      -5.342   5.857 130.253  0.00  0.00    +0.078 C 
ATOM      2  C   LIG A   1      -5.759   6.862 131.029  0.00  0.00    +0.201 C 
ATOM      3  O   LIG A   1      -6.852   6.794 131.850  0.00  0.00    -0.470 OA
ATOM      4  C   LIG A   1      -7.884   5.919 131.368  0.00  0.00    +0.317 C 
ATOM      5  C   LIG A   1      -7.379   4.513 130.998  0.00  0.00    +0.116 C 
ATOM      6  C   LIG A   1      -5.978   4.507 130.330  0.00  0.00    +0.064 C 
ATOM      7  C   LIG A   1      -5.150   3.605 131.206  0.00  0.00    -0.019 C 
ATOM      8  C   LIG A   1      -5.839   3.126 132.243  0.00  0.00    +0.015 C 
ATOM      9  C   LIG A   1      -7.273   3.547 132.211  0.00  0.00    +0.190 C 
ENDROOT
BRANCH   1  11
ATOM     10  O   LIG A   1      -4.406   6.387 128.107  0.00  0.00    -0.245 OA
ATOM     11  C   LIG A   1      -4.254   6.136 129.283  0.00  0.00    +0.338 C 
BRANCH  11  12
ATOM     12  O   LIG A   1      -3.069   5.890 129.907  0.00  0.00    -0.465 OA
ATOM     13  C   LIG A   1      -1.943   6.494 129.278  0.00  0.00    +0.280 C 
ENDBRANCH  11  12
ENDBRANCH   1  11
BRANCH   9  14
ATOM     14  C   LIG A   1      -8.154   2.285 131.994  0.00  0.00    +0.343 C 
ATOM     15  O   LIG A   1      -8.387   1.452 132.861  0.00  0.00    -0.247 OA
BRANCH  14  16
ATOM     16  O   LIG A   1      -8.579   2.197 130.697  0.00  0.00    -0.466 OA
ATOM     17  C   LIG A   1      -8.186   1.004 130.020  0.00  0.00    +0.280 C 
ENDBRANCH  14  16
ENDBRANCH   9  14
BRANCH   9  18
ATOM     18  O   LIG A   1      -7.549   4.198 133.439  0.00  0.00    -0.373 OA
ATOM     19  H   LIG A   1      -8.513   4.176 133.572  0.00  0.00    +0.211 HD
ENDBRANCH   9  18
BRANCH   4  20
ATOM     20  O   LIG A   1      -8.594   6.495 130.240  0.00  0.00    -0.309 OA
BRANCH  20  21
ATOM     21  C   LIG A   1      -9.408   5.507 129.579  0.00  0.00    +0.286 C 
ATOM     22  C   LIG A   1     -10.553   5.019 130.510  0.00  0.00    +0.201 C 
ATOM     23  C   LIG A   1     -11.738   6.000 130.566  0.00  0.00    +0.179 C 
ATOM     24  C   LIG A   1     -11.485   7.256 129.730  0.00  0.00    +0.177 C 
ATOM     25  C   LIG A   1     -11.068   6.792 128.334  0.00  0.00    +0.178 C 
ATOM     26  O   LIG A   1      -9.884   5.981 128.316  0.00  0.00    -0.340 OA
BRANCH  24  27
ATOM     27  O   LIG A   1     -12.679   8.043 129.683  0.00  0.00    -0.387 OA
ATOM     28  H   LIG A   1     -12.391   8.939 129.421  0.00  0.00    +0.210 HD
ENDBRANCH  24  27
BRANCH  23  29
ATOM     29  O   LIG A   1     -12.033   6.397 131.916  0.00  0.00    -0.386 OA
ATOM     30  H   LIG A   1     -11.471   5.865 132.507  0.00  0.00    +0.210 HD
ENDBRANCH  23  29
BRANCH  22  31
ATOM     31  O   LIG A   1     -11.040   3.751 130.023  0.00  0.00    -0.384 OA
ATOM     32  H   LIG A   1     -11.575   3.334 130.720  0.00  0.00    +0.210 HD
ENDBRANCH  22  31
BRANCH  25  33
ATOM     33  C   LIG A   1     -10.851   7.966 127.375  0.00  0.00    +0.190 C 
BRANCH  33  34
ATOM     34  O   LIG A   1     -10.413   9.113 128.108  0.00  0.00    -0.392 OA
ATOM     35  H   LIG A   1      -9.537   9.342 127.738  0.00  0.00    +0.209 HD
ENDBRANCH  33  34
ENDBRANCH  25  33
ENDBRANCH  20  21
ENDBRANCH   4  20
TORSDOF 12
ENDMDL
MODEL 4
REMARK VINA RESULT:      -6.6      3.734      6.109
REMARK  Name = NuBBE_442
REMARK  14 active torsions:
REMARK  status: ('A' for Active; 'I' for Inactive)
REMARK    1  A    between atoms: C_2  and  C_3
REMARK    2  A    between atoms: C_2  and  O_37
REMARK    3  A    between atoms: C_6  and  O_20
REMARK    4  A    between atoms: C_12  and  C_13
REMARK    5  A    between atoms: C_12  and  O_17
REMARK    6  A    between atoms: C_13  and  O_14
REMARK    7  A    between atoms: O_14  and  C_15
REMARK    8  A    between atoms: O_20  and  C_21
REMARK    9  A    between atoms: C_23  and  O_36
REMARK   10  A    between atoms: C_25  and  O_35
REMARK   11  A    between atoms: C_27  and  O_34
REMARK   12  A    between atoms: C_29  and  C_32
REMARK   13  A    between atoms: C_32  and  O_33
REMARK   14  A    between atoms: O_37  and  C_38
REMARK                            x       y       z     vdW  Elec       q    Type
REMARK                         _______ _______ _______ _____ _____    ______ ____
ROOT
ATOM      1  C   LIG A   1      -7.362  -2.526 125.609  0.00  0.00    +0.078 C 
ATOM      2  C   LIG A   1      -6.217  -2.204 124.997  0.00  0.00    +0.201 C 
ATOM      3  O   LIG A   1      -5.394  -1.187 125.398  0.00  0.00    -0.470 OA
ATOM      4  C   LIG A   1      -6.085  -0.096 126.025  0.00  0.00    +0.317 C 
ATOM      5  C   LIG A   1      -7.025  -0.532 127.164  0.00  0.00    +0.116 C 
ATOM      6  C   LIG A   1      -7.766  -1.866 126.887  0.00  0.00    +0.064 C 
ATOM      7  C   LIG A   1      -7.396  -2.747 128.051  0.00  0.00    -0.019 C 
ATOM      8  C   LIG A   1      -6.574  -2.142 128.910  0.00  0.00    +0.015 C 
ATOM      9  C   LIG A   1      -6.306  -0.721 128.529  0.00  0.00    +0.190 C 
ENDROOT
BRANCH   1  11
ATOM     10  O   LIG A   1      -7.931  -4.676 124.706  0.00  0.00    -0.245 OA
ATOM     11  C   LIG A   1      -8.238  -3.530 124.956  0.00  0.00    +0.338 C 
BRANCH  11  12
ATOM     12  O   LIG A   1      -9.364  -2.890 124.539  0.00  0.00    -0.465 OA
ATOM     13  C   LIG A   1      -9.740  -3.185 123.197  0.00  0.00    +0.280 C 
ENDBRANCH  11  12
ENDBRANCH   1  11
BRANCH   9  14
ATOM     14  C   LIG A   1      -6.922   0.206 129.614  0.00  0.00    +0.343 C 
ATOM     15  O   LIG A   1      -6.548   0.243 130.779  0.00  0.00    -0.247 OA
BRANCH  14  16
ATOM     16  O   LIG A   1      -7.972   0.924 129.111  0.00  0.00    -0.466 OA
ATOM     17  C   LIG A   1      -8.544   1.862 130.021  0.00  0.00    +0.280 C 
ENDBRANCH  14  16
ENDBRANCH   9  14
BRANCH   9  18
ATOM     18  O   LIG A   1      -4.901  -0.572 128.419  0.00  0.00    -0.373 OA
ATOM     19  H   LIG A   1      -4.523  -0.695 129.308  0.00  0.00    +0.211 HD
ENDBRANCH   9  18
BRANCH   4  20
ATOM     20  O   LIG A   1      -6.825   0.698 125.059  0.00  0.00    -0.309 OA
BRANCH  20  21
ATOM     21  C   LIG A   1      -7.935   1.372 125.683  0.00  0.00    +0.286 C 
ATOM     22  C   LIG A   1      -7.665   2.898 125.793  0.00  0.00    +0.201 C 
ATOM     23  C   LIG A   1      -7.914   3.648 124.471  0.00  0.00    +0.179 C 
ATOM     24  C   LIG A   1      -8.319   2.700 123.341  0.00  0.00    +0.177 C 
ATOM     25  C   LIG A   1      -9.482   1.852 123.857  0.00  0.00    +0.178 C 
ATOM     26  O   LIG A   1      -9.166   1.073 125.020  0.00  0.00    -0.340 OA
BRANCH  24  27
ATOM     27  O   LIG A   1      -8.701   3.465 122.194  0.00  0.00    -0.387 OA
ATOM     28  H   LIG A   1      -8.024   4.165 122.109  0.00  0.00    +0.210 HD
ENDBRANCH  24  27
BRANCH  23  29
ATOM     29  O   LIG A   1      -6.755   4.391 124.057  0.00  0.00    -0.386 OA
ATOM     30  H   LIG A   1      -6.228   4.579 124.854  0.00  0.00    +0.210 HD
ENDBRANCH  23  29
BRANCH  22  31
ATOM     31  O   LIG A   1      -8.539   3.454 126.797  0.00  0.00    -0.384 OA
ATOM     32  H   LIG A   1      -9.409   3.620 126.396  0.00  0.00    +0.210 HD
ENDBRANCH  22  31
BRANCH  25  33
ATOM     33  C   LIG A   1     -10.026   0.903 122.785  0.00  0.00    +0.190 C 
BRANCH  33  34
ATOM     34  O   LIG A   1     -11.436   0.737 122.960  0.00  0.00    -0.392 OA
ATOM     35  H   LIG A   1     -11.536   0.097 123.693  0.00  0.00    +0.209 HD
ENDBRANCH  33  34
ENDBRANCH  25  33
ENDBRANCH  20  21
ENDBRANCH   4  20
TORSDOF 12
ENDMDL
MODEL 5
REMARK VINA RESULT:      -6.4      1.955      5.525
REMARK  Name = NuBBE_442
REMARK  14 active torsions:
REMARK  status: ('A' for Active; 'I' for Inactive)
REMARK    1  A    between atoms: C_2  and  C_3
REMARK    2  A    between atoms: C_2  and  O_37
REMARK    3  A    between atoms: C_6  and  O_20
REMARK    4  A    between atoms: C_12  and  C_13
REMARK    5  A    between atoms: C_12  and  O_17
REMARK    6  A    between atoms: C_13  and  O_14
REMARK    7  A    between atoms: O_14  and  C_15
REMARK    8  A    between atoms: O_20  and  C_21
REMARK    9  A    between atoms: C_23  and  O_36
REMARK   10  A    between atoms: C_25  and  O_35
REMARK   11  A    between atoms: C_27  and  O_34
REMARK   12  A    between atoms: C_29  and  C_32
REMARK   13  A    between atoms: C_32  and  O_33
REMARK   14  A    between atoms: O_37  and  C_38
REMARK                            x       y       z     vdW  Elec       q    Type
REMARK                         _______ _______ _______ _____ _____    ______ ____
ROOT
ATOM      1  C   LIG A   1     -10.331   5.939 130.349  0.00  0.00    +0.078 C 
ATOM      2  C   LIG A   1     -11.286   5.060 130.029  0.00  0.00    +0.201 C 
ATOM      3  O   LIG A   1     -11.210   3.718 130.284  0.00  0.00    -0.470 OA
ATOM      4  C   LIG A   1      -9.870   3.202 130.273  0.00  0.00    +0.317 C 
ATOM      5  C   LIG A   1      -8.895   3.993 131.164  0.00  0.00    +0.116 C 
ATOM      6  C   LIG A   1      -9.140   5.525 131.151  0.00  0.00    +0.064 C 
ATOM      7  C   LIG A   1      -9.354   5.881 132.598  0.00  0.00    -0.019 C 
ATOM      8  C   LIG A   1      -9.286   4.819 133.402  0.00  0.00    +0.015 C 
ATOM      9  C   LIG A   1      -8.932   3.570 132.660  0.00  0.00    +0.190 C 
ENDROOT
BRANCH   1  11
ATOM     10  O   LIG A   1      -9.587   7.987 129.342  0.00  0.00    -0.245 OA
ATOM     11  C   LIG A   1     -10.471   7.328 129.848  0.00  0.00    +0.338 C 
BRANCH  11  12
ATOM     12  O   LIG A   1     -11.702   7.779 130.213  0.00  0.00    -0.465 OA
ATOM     13  C   LIG A   1     -12.303   8.661 129.270  0.00  0.00    +0.280 C 
ENDBRANCH  11  12
ENDBRANCH   1  11
BRANCH   9  14
ATOM     14  C   LIG A   1      -7.532   3.092 133.135  0.00  0.00    +0.343 C 
ATOM     15  O   LIG A   1      -6.744   2.471 132.434  0.00  0.00    -0.247 OA
BRANCH  14  16
ATOM     16  O   LIG A   1      -7.327   3.400 134.452  0.00  0.00    -0.466 OA
ATOM     17  C   LIG A   1      -5.974   3.700 134.791  0.00  0.00    +0.280 C 
ENDBRANCH  14  16
ENDBRANCH   9  14
BRANCH   9  18
ATOM     18  O   LIG A   1      -9.950   2.621 132.922  0.00  0.00    -0.373 OA
ATOM     19  H   LIG A   1     -10.561   3.018 133.569  0.00  0.00    +0.211 HD
ENDBRANCH   9  18
BRANCH   4  20
ATOM     20  O   LIG A   1      -9.338   3.116 128.924  0.00  0.00    -0.309 OA
BRANCH  20  21
ATOM     21  C   LIG A   1      -7.898   3.141 128.932  0.00  0.00    +0.286 C 
ATOM     22  C   LIG A   1      -7.318   1.701 128.987  0.00  0.00    +0.201 C 
ATOM     23  C   LIG A   1      -7.328   0.998 127.617  0.00  0.00    +0.179 C 
ATOM     24  C   LIG A   1      -7.959   1.868 126.529  0.00  0.00    +0.177 C 
ATOM     25  C   LIG A   1      -7.260   3.228 126.577  0.00  0.00    +0.178 C 
ATOM     26  O   LIG A   1      -7.383   3.905 127.837  0.00  0.00    -0.340 OA
BRANCH  24  27
ATOM     27  O   LIG A   1      -7.785   1.238 125.257  0.00  0.00    -0.387 OA
ATOM     28  H   LIG A   1      -8.005   0.296 125.399  0.00  0.00    +0.210 HD
ENDBRANCH  24  27
BRANCH  23  29
ATOM     29  O   LIG A   1      -8.030  -0.255 127.670  0.00  0.00    -0.386 OA
ATOM     30  H   LIG A   1      -7.888  -0.634 128.556  0.00  0.00    +0.210 HD
ENDBRANCH  23  29
BRANCH  22  31
ATOM     31  O   LIG A   1      -5.953   1.766 129.450  0.00  0.00    -0.384 OA
ATOM     32  H   LIG A   1      -5.580   0.868 129.450  0.00  0.00    +0.210 HD
ENDBRANCH  22  31
BRANCH  25  33
ATOM     33  C   LIG A   1      -7.760   4.174 125.481  0.00  0.00    +0.190 C 
BRANCH  33  34
ATOM     34  O   LIG A   1      -9.089   3.812 125.101  0.00  0.00    -0.392 OA
ATOM     35  H   LIG A   1      -8.988   3.105 124.432  0.00  0.00    +0.209 HD
ENDBRANCH  33  34
ENDBRANCH  25  33
ENDBRANCH  20  21
ENDBRANCH   4  20
TORSDOF 12
ENDMDL
MODEL 6
REMARK VINA RESULT:      -6.4      4.365      6.088
REMARK  Name = NuBBE_442
REMARK  14 active torsions:
REMARK  status: ('A' for Active; 'I' for Inactive)
REMARK    1  A    between atoms: C_2  and  C_3
REMARK    2  A    between atoms: C_2  and  O_37
REMARK    3  A    between atoms: C_6  and  O_20
REMARK    4  A    between atoms: C_12  and  C_13
REMARK    5  A    between atoms: C_12  and  O_17
REMARK    6  A    between atoms: C_13  and  O_14
REMARK    7  A    between atoms: O_14  and  C_15
REMARK    8  A    between atoms: O_20  and  C_21
REMARK    9  A    between atoms: C_23  and  O_36
REMARK   10  A    between atoms: C_25  and  O_35
REMARK   11  A    between atoms: C_27  and  O_34
REMARK   12  A    between atoms: C_29  and  C_32
REMARK   13  A    between atoms: C_32  and  O_33
REMARK   14  A    between atoms: O_37  and  C_38
REMARK                            x       y       z     vdW  Elec       q    Type
REMARK                         _______ _______ _______ _____ _____    ______ ____
ROOT
ATOM      1  C   LIG A   1      -8.033  -2.543 125.519  0.00  0.00    +0.078 C 
ATOM      2  C   LIG A   1      -6.745  -2.678 125.189  0.00  0.00    +0.201 C 
ATOM      3  O   LIG A   1      -5.705  -2.440 126.046  0.00  0.00    -0.470 OA
ATOM      4  C   LIG A   1      -5.985  -1.432 127.030  0.00  0.00    +0.317 C 
ATOM      5  C   LIG A   1      -7.297  -1.669 127.800  0.00  0.00    +0.116 C 
ATOM      6  C   LIG A   1      -8.442  -2.242 126.925  0.00  0.00    +0.064 C 
ATOM      7  C   LIG A   1      -8.842  -3.516 127.620  0.00  0.00    -0.019 C 
ATOM      8  C   LIG A   1      -8.114  -3.754 128.711  0.00  0.00    +0.015 C 
ATOM      9  C   LIG A   1      -7.150  -2.648 128.999  0.00  0.00    +0.190 C 
ENDROOT
BRANCH   1  11
ATOM     10  O   LIG A   1      -9.267  -3.659 123.789  0.00  0.00    -0.245 OA
ATOM     11  C   LIG A   1      -9.042  -2.659 124.437  0.00  0.00    +0.338 C 
BRANCH  11  12
ATOM     12  O   LIG A   1      -9.534  -1.414 124.192  0.00  0.00    -0.465 OA
ATOM     13  C   LIG A   1      -9.222  -0.908 122.898  0.00  0.00    +0.280 C 
ENDBRANCH  11  12
ENDBRANCH   1  11
BRANCH   9  14
ATOM     14  C   LIG A   1      -7.567  -1.962 130.330  0.00  0.00    +0.343 C 
ATOM     15  O   LIG A   1      -7.528  -2.508 131.425  0.00  0.00    -0.247 OA
BRANCH  14  16
ATOM     16  O   LIG A   1      -8.039  -0.698 130.107  0.00  0.00    -0.466 OA
ATOM     17  C   LIG A   1      -8.682  -0.094 131.228  0.00  0.00    +0.280 C 
ENDBRANCH  14  16
ENDBRANCH   9  14
BRANCH   9  18
ATOM     18  O   LIG A   1      -5.856  -3.222 129.065  0.00  0.00    -0.373 OA
ATOM     19  H   LIG A   1      -5.318  -2.666 129.656  0.00  0.00    +0.211 HD
ENDBRANCH   9  18
BRANCH   4  20
ATOM     20  O   LIG A   1      -5.994  -0.101 126.449  0.00  0.00    -0.309 OA
BRANCH  20  21
ATOM     21  C   LIG A   1      -6.279   0.899 127.447  0.00  0.00    +0.286 C 
ATOM     22  C   LIG A   1      -4.977   1.614 127.903  0.00  0.00    +0.201 C 
ATOM     23  C   LIG A   1      -4.509   2.695 126.911  0.00  0.00    +0.179 C 
ATOM     24  C   LIG A   1      -5.411   2.773 125.678  0.00  0.00    +0.177 C 
ATOM     25  C   LIG A   1      -6.850   2.905 126.179  0.00  0.00    +0.178 C 
ATOM     26  O   LIG A   1      -7.286   1.811 126.999  0.00  0.00    -0.340 OA
BRANCH  24  27
ATOM     27  O   LIG A   1      -5.031   3.900 124.883  0.00  0.00    -0.387 OA
ATOM     28  H   LIG A   1      -5.833   4.151 124.384  0.00  0.00    +0.210 HD
ENDBRANCH  24  27
BRANCH  23  29
ATOM     29  O   LIG A   1      -3.157   2.468 126.479  0.00  0.00    -0.386 OA
ATOM     30  H   LIG A   1      -3.184   2.259 125.528  0.00  0.00    +0.210 HD
ENDBRANCH  23  29
BRANCH  22  31
ATOM     31  O   LIG A   1      -5.215   2.246 129.178  0.00  0.00    -0.384 OA
ATOM     32  H   LIG A   1      -5.871   1.721 129.668  0.00  0.00    +0.210 HD
ENDBRANCH  22  31
BRANCH  25  33
ATOM     33  C   LIG A   1      -7.850   3.062 125.030  0.00  0.00    +0.190 C 
BRANCH  33  34
ATOM     34  O   LIG A   1      -7.951   4.441 124.664  0.00  0.00    -0.392 OA
ATOM     35  H   LIG A   1      -7.030   4.756 124.573  0.00  0.00    +0.209 HD
ENDBRANCH  33  34
ENDBRANCH  25  33
ENDBRANCH  20  21
ENDBRANCH   4  20
TORSDOF 12
ENDMDL
MODEL 7
REMARK VINA RESULT:      -6.4      2.272      6.378
REMARK  Name = NuBBE_442
REMARK  14 active torsions:
REMARK  status: ('A' for Active; 'I' for Inactive)
REMARK    1  A    between atoms: C_2  and  C_3
REMARK    2  A    between atoms: C_2  and  O_37
REMARK    3  A    between atoms: C_6  and  O_20
REMARK    4  A    between atoms: C_12  and  C_13
REMARK    5  A    between atoms: C_12  and  O_17
REMARK    6  A    between atoms: C_13  and  O_14
REMARK    7  A    between atoms: O_14  and  C_15
REMARK    8  A    between atoms: O_20  and  C_21
REMARK    9  A    between atoms: C_23  and  O_36
REMARK   10  A    between atoms: C_25  and  O_35
REMARK   11  A    between atoms: C_27  and  O_34
REMARK   12  A    between atoms: C_29  and  C_32
REMARK   13  A    between atoms: C_32  and  O_33
REMARK   14  A    between atoms: O_37  and  C_38
REMARK                            x       y       z     vdW  Elec       q    Type
REMARK                         _______ _______ _______ _____ _____    ______ ____
ROOT
ATOM      1  C   LIG A   1     -10.609   5.116 130.225  0.00  0.00    +0.078 C 
ATOM      2  C   LIG A   1     -10.633   3.855 130.669  0.00  0.00    +0.201 C 
ATOM      3  O   LIG A   1      -9.524   3.061 130.780  0.00  0.00    -0.470 OA
ATOM      4  C   LIG A   1      -8.502   3.355 129.815  0.00  0.00    +0.317 C 
ATOM      5  C   LIG A   1      -8.116   4.844 129.758  0.00  0.00    +0.116 C 
ATOM      6  C   LIG A   1      -9.317   5.809 129.940  0.00  0.00    +0.064 C 
ATOM      7  C   LIG A   1      -8.932   6.669 131.114  0.00  0.00    -0.019 C 
ATOM      8  C   LIG A   1      -7.742   6.340 131.621  0.00  0.00    +0.015 C 
ATOM      9  C   LIG A   1      -7.072   5.260 130.833  0.00  0.00    +0.190 C 
ENDROOT
BRANCH   1  11
ATOM     10  O   LIG A   1     -12.371   6.068 128.901  0.00  0.00    -0.245 OA
ATOM     11  C   LIG A   1     -11.909   5.791 129.988  0.00  0.00    +0.338 C 
BRANCH  11  12
ATOM     12  O   LIG A   1     -12.395   6.192 131.194  0.00  0.00    -0.465 OA
ATOM     13  C   LIG A   1     -12.818   7.552 131.229  0.00  0.00    +0.280 C 
ENDBRANCH  11  12
ENDBRANCH   1  11
BRANCH   9  14
ATOM     14  C   LIG A   1      -5.797   5.851 130.168  0.00  0.00    +0.343 C 
ATOM     15  O   LIG A   1      -5.342   5.470 129.097  0.00  0.00    -0.247 OA
BRANCH  14  16
ATOM     16  O   LIG A   1      -5.221   6.802 130.965  0.00  0.00    -0.466 OA
ATOM     17  C   LIG A   1      -4.430   7.765 130.269  0.00  0.00    +0.280 C 
ENDBRANCH  14  16
ENDBRANCH   9  14
BRANCH   9  18
ATOM     18  O   LIG A   1      -6.778   4.204 131.730  0.00  0.00    -0.373 OA
ATOM     19  H   LIG A   1      -6.242   4.575 132.454  0.00  0.00    +0.211 HD
ENDBRANCH   9  18
BRANCH   4  20
ATOM     20  O   LIG A   1      -8.868   2.896 128.487  0.00  0.00    -0.309 OA
BRANCH  20  21
ATOM     21  C   LIG A   1      -7.845   3.218 127.525  0.00  0.00    +0.286 C 
ATOM     22  C   LIG A   1      -6.536   2.436 127.826  0.00  0.00    +0.201 C 
ATOM     23  C   LIG A   1      -6.582   0.978 127.331  0.00  0.00    +0.179 C 
ATOM     24  C   LIG A   1      -7.933   0.627 126.706  0.00  0.00    +0.177 C 
ATOM     25  C   LIG A   1      -8.238   1.697 125.657  0.00  0.00    +0.178 C 
ATOM     26  O   LIG A   1      -8.309   3.030 126.185  0.00  0.00    -0.340 OA
BRANCH  24  27
ATOM     27  O   LIG A   1      -7.857  -0.675 126.116  0.00  0.00    -0.387 OA
ATOM     28  H   LIG A   1      -6.915  -0.806 125.892  0.00  0.00    +0.210 HD
ENDBRANCH  24  27
BRANCH  23  29
ATOM     29  O   LIG A   1      -6.310   0.050 128.395  0.00  0.00    -0.386 OA
ATOM     30  H   LIG A   1      -5.530   0.378 128.876  0.00  0.00    +0.210 HD
ENDBRANCH  23  29
BRANCH  22  31
ATOM     31  O   LIG A   1      -5.436   3.100 127.168  0.00  0.00    -0.384 OA
ATOM     32  H   LIG A   1      -4.604   2.693 127.464  0.00  0.00    +0.210 HD
ENDBRANCH  22  31
BRANCH  25  33
ATOM     33  C   LIG A   1      -9.543   1.416 124.906  0.00  0.00    +0.190 C 
BRANCH  33  34
ATOM     34  O   LIG A   1     -10.288   0.408 125.595  0.00  0.00    -0.392 OA
ATOM     35  H   LIG A   1     -11.095   0.855 125.920  0.00  0.00    +0.209 HD
ENDBRANCH  33  34
ENDBRANCH  25  33
ENDBRANCH  20  21
ENDBRANCH   4  20
TORSDOF 12
ENDMDL
MODEL 8
REMARK VINA RESULT:      -6.3      3.875      7.124
REMARK  Name = NuBBE_442
REMARK  14 active torsions:
REMARK  status: ('A' for Active; 'I' for Inactive)
REMARK    1  A    between atoms: C_2  and  C_3
REMARK    2  A    between atoms: C_2  and  O_37
REMARK    3  A    between atoms: C_6  and  O_20
REMARK    4  A    between atoms: C_12  and  C_13
REMARK    5  A    between atoms: C_12  and  O_17
REMARK    6  A    between atoms: C_13  and  O_14
REMARK    7  A    between atoms: O_14  and  C_15
REMARK    8  A    between atoms: O_20  and  C_21
REMARK    9  A    between atoms: C_23  and  O_36
REMARK   10  A    between atoms: C_25  and  O_35
REMARK   11  A    between atoms: C_27  and  O_34
REMARK   12  A    between atoms: C_29  and  C_32
REMARK   13  A    between atoms: C_32  and  O_33
REMARK   14  A    between atoms: O_37  and  C_38
REMARK                            x       y       z     vdW  Elec       q    Type
REMARK                         _______ _______ _______ _____ _____    ______ ____
ROOT
ATOM      1  C   LIG A   1      -6.737  -1.604 127.715  0.00  0.00    +0.078 C 
ATOM      2  C   LIG A   1      -7.266  -0.527 128.305  0.00  0.00    +0.201 C 
ATOM      3  O   LIG A   1      -8.018   0.413 127.653  0.00  0.00    -0.470 OA
ATOM      4  C   LIG A   1      -7.666   0.579 126.271  0.00  0.00    +0.317 C 
ATOM      5  C   LIG A   1      -7.621  -0.742 125.482  0.00  0.00    +0.116 C 
ATOM      6  C   LIG A   1      -7.051  -1.936 126.293  0.00  0.00    +0.064 C 
ATOM      7  C   LIG A   1      -8.140  -2.975 126.244  0.00  0.00    -0.019 C 
ATOM      8  C   LIG A   1      -9.211  -2.562 125.565  0.00  0.00    +0.015 C 
ATOM      9  C   LIG A   1      -9.011  -1.208 124.962  0.00  0.00    +0.190 C 
ENDROOT
BRANCH   1  11
ATOM     10  O   LIG A   1      -4.592  -2.457 128.371  0.00  0.00    -0.245 OA
ATOM     11  C   LIG A   1      -5.796  -2.435 128.506  0.00  0.00    +0.338 C 
BRANCH  11  12
ATOM     12  O   LIG A   1      -6.535  -3.280 129.275  0.00  0.00    -0.465 OA
ATOM     13  C   LIG A   1      -6.196  -3.256 130.658  0.00  0.00    +0.280 C 
ENDBRANCH  11  12
ENDBRANCH   1  11
BRANCH   9  14
ATOM     14  C   LIG A   1      -9.005  -1.350 123.415  0.00  0.00    +0.343 C 
ATOM     15  O   LIG A   1      -8.058  -1.780 122.769  0.00  0.00    -0.247 OA
BRANCH  14  16
ATOM     16  O   LIG A   1     -10.167  -0.876 122.871  0.00  0.00    -0.466 OA
ATOM     17  C   LIG A   1     -10.087   0.453 122.358  0.00  0.00    +0.280 C 
ENDBRANCH  14  16
ENDBRANCH   9  14
BRANCH   9  18
ATOM     18  O   LIG A   1     -10.061  -0.379 125.429  0.00  0.00    -0.373 OA
ATOM     19  H   LIG A   1      -9.998   0.469 124.954  0.00  0.00    +0.211 HD
ENDBRANCH   9  18
BRANCH   4  20
ATOM     20  O   LIG A   1      -6.404   1.282 126.118  0.00  0.00    -0.309 OA
BRANCH  20  21
ATOM     21  C   LIG A   1      -6.533   2.384 125.199  0.00  0.00    +0.286 C 
ATOM     22  C   LIG A   1      -7.761   3.265 125.559  0.00  0.00    +0.201 C 
ATOM     23  C   LIG A   1      -7.483   4.232 126.726  0.00  0.00    +0.179 C 
ATOM     24  C   LIG A   1      -6.074   4.057 127.293  0.00  0.00    +0.177 C 
ATOM     25  C   LIG A   1      -5.100   4.134 126.117  0.00  0.00    +0.178 C 
ATOM     26  O   LIG A   1      -5.318   3.134 125.111  0.00  0.00    -0.340 OA
BRANCH  24  27
ATOM     27  O   LIG A   1      -5.817   5.089 128.251  0.00  0.00    -0.387 OA
ATOM     28  H   LIG A   1      -6.694   5.452 128.485  0.00  0.00    +0.210 HD
ENDBRANCH  24  27
BRANCH  23  29
ATOM     29  O   LIG A   1      -8.434   4.062 127.791  0.00  0.00    -0.386 OA
ATOM     30  H   LIG A   1      -7.943   3.760 128.576  0.00  0.00    +0.210 HD
ENDBRANCH  23  29
BRANCH  22  31
ATOM     31  O   LIG A   1      -8.126   4.048 124.403  0.00  0.00    -0.384 OA
ATOM     32  H   LIG A   1      -7.461   3.907 123.708  0.00  0.00    +0.210 HD
ENDBRANCH  22  31
BRANCH  25  33
ATOM     33  C   LIG A   1      -3.639   4.042 126.567  0.00  0.00    +0.190 C 
BRANCH  33  34
ATOM     34  O   LIG A   1      -3.538   3.177 127.701  0.00  0.00    -0.392 OA
ATOM     35  H   LIG A   1      -3.051   2.389 127.388  0.00  0.00    +0.209 HD
ENDBRANCH  33  34
ENDBRANCH  25  33
ENDBRANCH  20  21
ENDBRANCH   4  20
TORSDOF 12
ENDMDL
MODEL 9
REMARK VINA RESULT:      -6.2      3.375      5.572
REMARK  Name = NuBBE_442
REMARK  14 active torsions:
REMARK  status: ('A' for Active; 'I' for Inactive)
REMARK    1  A    between atoms: C_2  and  C_3
REMARK    2  A    between atoms: C_2  and  O_37
REMARK    3  A    between atoms: C_6  and  O_20
REMARK    4  A    between atoms: C_12  and  C_13
REMARK    5  A    between atoms: C_12  and  O_17
REMARK    6  A    between atoms: C_13  and  O_14
REMARK    7  A    between atoms: O_14  and  C_15
REMARK    8  A    between atoms: O_20  and  C_21
REMARK    9  A    between atoms: C_23  and  O_36
REMARK   10  A    between atoms: C_25  and  O_35
REMARK   11  A    between atoms: C_27  and  O_34
REMARK   12  A    between atoms: C_29  and  C_32
REMARK   13  A    between atoms: C_32  and  O_33
REMARK   14  A    between atoms: O_37  and  C_38
REMARK                            x       y       z     vdW  Elec       q    Type
REMARK                         _______ _______ _______ _____ _____    ______ ____
ROOT
ATOM      1  C   LIG A   1      -7.958  -1.559 124.827  0.00  0.00    +0.078 C 
ATOM      2  C   LIG A   1      -6.660  -1.418 124.538  0.00  0.00    +0.201 C 
ATOM      3  O   LIG A   1      -5.713  -1.018 125.441  0.00  0.00    -0.470 OA
ATOM      4  C   LIG A   1      -6.217  -0.135 126.456  0.00  0.00    +0.317 C 
ATOM      5  C   LIG A   1      -7.473  -0.667 127.168  0.00  0.00    +0.116 C 
ATOM      6  C   LIG A   1      -8.456  -1.415 126.229  0.00  0.00    +0.064 C 
ATOM      7  C   LIG A   1      -8.609  -2.775 126.855  0.00  0.00    -0.019 C 
ATOM      8  C   LIG A   1      -7.877  -2.915 127.961  0.00  0.00    +0.015 C 
ATOM      9  C   LIG A   1      -7.164  -1.653 128.330  0.00  0.00    +0.190 C 
ENDROOT
BRANCH   1  11
ATOM     10  O   LIG A   1      -8.765  -2.694 122.873  0.00  0.00    -0.245 OA
ATOM     11  C   LIG A   1      -8.893  -1.823 123.706  0.00  0.00    +0.338 C 
BRANCH  11  12
ATOM     12  O   LIG A   1      -9.808  -0.816 123.684  0.00  0.00    -0.465 OA
ATOM     13  C   LIG A   1      -9.945  -0.181 122.417  0.00  0.00    +0.280 C 
ENDBRANCH  11  12
ENDBRANCH   1  11
BRANCH   9  14
ATOM     14  C   LIG A   1      -7.746  -1.130 129.672  0.00  0.00    +0.343 C 
ATOM     15  O   LIG A   1      -7.958   0.052 129.914  0.00  0.00    -0.247 OA
BRANCH  14  16
ATOM     16  O   LIG A   1      -7.928  -2.151 130.563  0.00  0.00    -0.466 OA
ATOM     17  C   LIG A   1      -7.075  -2.107 131.706  0.00  0.00    +0.280 C 
ENDBRANCH  14  16
ENDBRANCH   9  14
BRANCH   9  18
ATOM     18  O   LIG A   1      -5.783  -1.960 128.417  0.00  0.00    -0.373 OA
ATOM     19  H   LIG A   1      -5.343  -1.206 128.849  0.00  0.00    +0.211 HD
ENDBRANCH   9  18
BRANCH   4  20
ATOM     20  O   LIG A   1      -6.478   1.194 125.932  0.00  0.00    -0.309 OA
BRANCH  20  21
ATOM     21  C   LIG A   1      -5.539   2.152 126.456  0.00  0.00    +0.286 C 
ATOM     22  C   LIG A   1      -5.314   3.315 125.451  0.00  0.00    +0.201 C 
ATOM     23  C   LIG A   1      -6.445   4.361 125.483  0.00  0.00    +0.179 C 
ATOM     24  C   LIG A   1      -7.554   3.978 126.463  0.00  0.00    +0.177 C 
ATOM     25  C   LIG A   1      -6.887   3.676 127.805  0.00  0.00    +0.178 C 
ATOM     26  O   LIG A   1      -5.929   2.608 127.755  0.00  0.00    -0.340 OA
BRANCH  24  27
ATOM     27  O   LIG A   1      -8.483   5.061 126.575  0.00  0.00    -0.387 OA
ATOM     28  H   LIG A   1      -8.895   4.962 127.455  0.00  0.00    +0.210 HD
ENDBRANCH  24  27
BRANCH  23  29
ATOM     29  O   LIG A   1      -7.025   4.553 124.182  0.00  0.00    -0.386 OA
ATOM     30  H   LIG A   1      -7.899   4.124 124.185  0.00  0.00    +0.210 HD
ENDBRANCH  23  29
BRANCH  22  31
ATOM     31  O   LIG A   1      -4.076   3.981 125.779  0.00  0.00    -0.384 OA
ATOM     32  H   LIG A   1      -3.805   3.711 126.673  0.00  0.00    +0.210 HD
ENDBRANCH  22  31
BRANCH  25  33
ATOM     33  C   LIG A   1      -7.908   3.344 128.897  0.00  0.00    +0.190 C 
BRANCH  33  34
ATOM     34  O   LIG A   1      -8.926   2.492 128.364  0.00  0.00    -0.392 OA
ATOM     35  H   LIG A   1      -9.757   2.774 128.795  0.00  0.00    +0.209 HD
ENDBRANCH  33  34
ENDBRANCH  25  33
ENDBRANCH  20  21
ENDBRANCH   4  20
TORSDOF 12
ENDMDL
