MODEL 1
REMARK VINA RESULT:      -8.3      0.000      0.000
REMARK  Name = NuBBE_431
REMARK  21 active torsions:
REMARK  status: ('A' for Active; 'I' for Inactive)
REMARK    1  A    between atoms: C_1  and  C_2
REMARK    2  A    between atoms: C_6  and  C_53
REMARK    3  A    between atoms: C_9  and  C_52
REMARK    4  A    between atoms: C_10  and  C_51
REMARK    5  A    between atoms: C_15  and  C_16
REMARK    6  A    between atoms: C_15  and  C_46
REMARK    7  A    between atoms: C_16  and  O_17
REMARK    8  A    between atoms: O_17  and  C_18
REMARK    9  A    between atoms: C_18  and  C_19
REMARK   10  A    between atoms: C_21  and  O_42
REMARK   11  A    between atoms: C_23  and  O_38
REMARK   12  A    between atoms: C_26  and  C_37
REMARK   13  A    between atoms: C_34  and  C_35
REMARK   14  A    between atoms: C_34  and  O_36
REMARK   15  A    between atoms: O_38  and  C_39
REMARK   16  A    between atoms: C_39  and  C_40
REMARK   17  A    between atoms: O_42  and  C_43
REMARK   18  A    between atoms: C_43  and  C_44
REMARK   19  A    between atoms: C_46  and  O_47
REMARK   20  A    between atoms: O_47  and  C_48
REMARK   21  A    between atoms: C_48  and  C_49
REMARK                            x       y       z     vdW  Elec       q    Type
REMARK                         _______ _______ _______ _____ _____    ______ ____
ROOT
ATOM      1  C   LIG A   1      -6.537  -3.812 124.005  0.00  0.00    +0.010 C 
ATOM      2  C   LIG A   1      -7.217  -3.072 125.173  0.00  0.00    +0.018 C 
ATOM      3  C   LIG A   1      -8.641  -2.737 124.693  0.00  0.00    +0.006 C 
ATOM      4  C   LIG A   1      -9.325  -1.628 125.454  0.00  0.00    +0.007 C 
ATOM      5  C   LIG A   1      -8.425  -0.390 125.613  0.00  0.00    -0.023 C 
ATOM      6  C   LIG A   1      -9.320   0.685 126.244  0.00  0.00    +0.008 C 
ATOM      7  C   LIG A   1      -8.505   1.898 126.616  0.00  0.00    +0.012 C 
ATOM      8  C   LIG A   1      -7.349   1.590 127.594  0.00  0.00    -0.005 C 
ATOM      9  C   LIG A   1      -6.360   2.879 127.646  0.00  0.00    -0.019 C 
ATOM     10  C   LIG A   1      -7.103   4.221 127.670  0.00  0.00    +0.008 C 
ATOM     11  C   LIG A   1      -7.699   4.569 129.008  0.00  0.00    +0.005 C 
ATOM     12  C   LIG A   1      -6.577   4.707 130.034  0.00  0.00    +0.012 C 
ATOM     13  C   LIG A   1      -6.887   5.702 131.240  0.00  0.00    +0.083 C 
ATOM     14  C   LIG A   1      -6.548   5.063 132.611  0.00  0.00    +0.230 C 
ATOM     15  C   LIG A   1      -5.152   4.335 132.623  0.00  0.00    +0.218 C 
ATOM     16  C   LIG A   1      -4.621   3.818 131.232  0.00  0.00    +0.055 C 
ATOM     17  C   LIG A   1      -5.773   3.347 130.291  0.00  0.00    -0.021 C 
ATOM     18  C   LIG A   1      -5.294   2.812 128.816  0.00  0.00    +0.006 C 
ATOM     19  C   LIG A   1      -4.573   1.438 128.693  0.00  0.00    +0.031 C 
ATOM     20  C   LIG A   1      -5.273   0.331 127.893  0.00  0.00    -0.026 C 
ATOM     21  C   LIG A   1      -6.490   0.358 127.284  0.00  0.00    -0.061 C 
ATOM     22  C   LIG A   1      -7.195  -0.832 126.536  0.00  0.00    +0.053 C 
ATOM     23  C   LIG A   1      -6.326  -1.900 125.746  0.00  0.00    +0.073 C 
ATOM     24  C   LIG A   1      -5.214  -2.559 126.586  0.00  0.00    +0.042 C 
ATOM     25  C   LIG A   1      -6.445   2.205 131.075  0.00  0.00    +0.012 C 
ATOM     26  C   LIG A   1      -5.549   2.963 126.280  0.00  0.00    +0.012 C 
ATOM     27  C   LIG A   1      -8.080   1.139 128.887  0.00  0.00    +0.016 C 
ATOM     28  C   LIG A   1      -8.009   0.169 124.225  0.00  0.00    +0.012 C 
ENDROOT
BRANCH  23  29
ATOM     29  O   LIG A   1      -5.646  -1.249 124.665  0.00  0.00    -0.388 OA
ATOM     30  H   LIG A   1      -4.815  -0.887 125.025  0.00  0.00    +0.210 HD
ENDBRANCH  23  29
BRANCH  13  31
ATOM     31  C   LIG A   1      -5.956   6.956 131.088  0.00  0.00    +0.246 C 
BRANCH  31  32
ATOM     32  O   LIG A   1      -5.118   6.853 129.918  0.00  0.00    -0.464 OA
BRANCH  32  33
ATOM     33  C   LIG A   1      -4.054   7.707 129.889  0.00  0.00    +0.304 C 
ATOM     34  C   LIG A   1      -3.286   7.689 131.178  0.00  0.00    +0.136 C 
ATOM     35  O   LIG A   1      -3.763   8.436 128.949  0.00  0.00    -0.251 OA
ENDBRANCH  32  33
ENDBRANCH  31  32
ENDBRANCH  13  31
BRANCH  15  36
ATOM     36  O   LIG A   1      -4.096   5.102 133.230  0.00  0.00    -0.458 OA
BRANCH  36  37
ATOM     37  C   LIG A   1      -4.025   4.888 134.582  0.00  0.00    +0.304 C 
ATOM     38  C   LIG A   1      -3.955   6.195 135.318  0.00  0.00    +0.136 C 
ATOM     39  O   LIG A   1      -3.840   3.808 135.101  0.00  0.00    -0.251 OA
ENDBRANCH  36  37
ENDBRANCH  15  36
BRANCH  14  40
ATOM     40  O   LIG A   1      -7.518   4.038 132.984  0.00  0.00    -0.457 OA
BRANCH  40  41
ATOM     41  C   LIG A   1      -8.331   4.273 134.049  0.00  0.00    +0.304 C 
ATOM     42  C   LIG A   1      -7.663   5.158 135.055  0.00  0.00    +0.136 C 
ATOM     43  O   LIG A   1      -9.463   3.839 134.195  0.00  0.00    -0.251 OA
ENDBRANCH  40  41
ENDBRANCH  14  40
BRANCH  13  44
ATOM     44  C   LIG A   1      -8.351   6.256 131.195  0.00  0.00    +0.246 C 
BRANCH  44  45
ATOM     45  O   LIG A   1      -8.536   7.430 130.382  0.00  0.00    -0.464 OA
BRANCH  45  46
ATOM     46  C   LIG A   1      -9.744   7.529 129.763  0.00  0.00    +0.304 C 
ATOM     47  C   LIG A   1     -10.774   6.657 130.411  0.00  0.00    +0.136 C 
ATOM     48  O   LIG A   1      -9.964   8.156 128.735  0.00  0.00    -0.251 OA
ENDBRANCH  45  46
ENDBRANCH  44  45
ENDBRANCH  13  44
TORSDOF 11
ENDMDL
MODEL 2
REMARK VINA RESULT:      -8.2      3.970      6.644
REMARK  Name = NuBBE_431
REMARK  21 active torsions:
REMARK  status: ('A' for Active; 'I' for Inactive)
REMARK    1  A    between atoms: C_1  and  C_2
REMARK    2  A    between atoms: C_6  and  C_53
REMARK    3  A    between atoms: C_9  and  C_52
REMARK    4  A    between atoms: C_10  and  C_51
REMARK    5  A    between atoms: C_15  and  C_16
REMARK    6  A    between atoms: C_15  and  C_46
REMARK    7  A    between atoms: C_16  and  O_17
REMARK    8  A    between atoms: O_17  and  C_18
REMARK    9  A    between atoms: C_18  and  C_19
REMARK   10  A    between atoms: C_21  and  O_42
REMARK   11  A    between atoms: C_23  and  O_38
REMARK   12  A    between atoms: C_26  and  C_37
REMARK   13  A    between atoms: C_34  and  C_35
REMARK   14  A    between atoms: C_34  and  O_36
REMARK   15  A    between atoms: O_38  and  C_39
REMARK   16  A    between atoms: C_39  and  C_40
REMARK   17  A    between atoms: O_42  and  C_43
REMARK   18  A    between atoms: C_43  and  C_44
REMARK   19  A    between atoms: C_46  and  O_47
REMARK   20  A    between atoms: O_47  and  C_48
REMARK   21  A    between atoms: C_48  and  C_49
REMARK                            x       y       z     vdW  Elec       q    Type
REMARK                         _______ _______ _______ _____ _____    ______ ____
ROOT
ATOM      1  C   LIG A   1      -6.028  -5.559 135.354  0.00  0.00    +0.010 C 
ATOM      2  C   LIG A   1      -6.371  -5.011 133.956  0.00  0.00    +0.018 C 
ATOM      3  C   LIG A   1      -5.526  -5.826 132.960  0.00  0.00    +0.006 C 
ATOM      4  C   LIG A   1      -5.332  -5.179 131.611  0.00  0.00    +0.007 C 
ATOM      5  C   LIG A   1      -4.892  -3.708 131.728  0.00  0.00    -0.023 C 
ATOM      6  C   LIG A   1      -4.577  -3.263 130.294  0.00  0.00    +0.008 C 
ATOM      7  C   LIG A   1      -4.303  -1.781 130.251  0.00  0.00    +0.012 C 
ATOM      8  C   LIG A   1      -5.471  -0.920 130.783  0.00  0.00    -0.005 C 
ATOM      9  C   LIG A   1      -4.934   0.598 131.002  0.00  0.00    -0.019 C 
ATOM     10  C   LIG A   1      -4.014   1.091 129.877  0.00  0.00    +0.008 C 
ATOM     11  C   LIG A   1      -4.740   1.481 128.617  0.00  0.00    +0.005 C 
ATOM     12  C   LIG A   1      -5.674   2.650 128.920  0.00  0.00    +0.012 C 
ATOM     13  C   LIG A   1      -5.967   3.616 127.685  0.00  0.00    +0.083 C 
ATOM     14  C   LIG A   1      -7.483   3.898 127.527  0.00  0.00    +0.230 C 
ATOM     15  C   LIG A   1      -8.190   4.245 128.890  0.00  0.00    +0.218 C 
ATOM     16  C   LIG A   1      -7.511   3.677 130.195  0.00  0.00    +0.055 C 
ATOM     17  C   LIG A   1      -6.835   2.290 129.960  0.00  0.00    -0.021 C 
ATOM     18  C   LIG A   1      -6.091   1.645 131.273  0.00  0.00    +0.006 C 
ATOM     19  C   LIG A   1      -6.949   1.080 132.443  0.00  0.00    +0.031 C 
ATOM     20  C   LIG A   1      -6.846  -0.422 132.743  0.00  0.00    -0.026 C 
ATOM     21  C   LIG A   1      -6.123  -1.375 132.094  0.00  0.00    -0.061 C 
ATOM     22  C   LIG A   1      -6.111  -2.917 132.399  0.00  0.00    +0.053 C 
ATOM     23  C   LIG A   1      -6.293  -3.435 133.888  0.00  0.00    +0.073 C 
ATOM     24  C   LIG A   1      -7.553  -2.898 134.596  0.00  0.00    +0.042 C 
ATOM     25  C   LIG A   1      -7.998   1.385 129.515  0.00  0.00    +0.012 C 
ATOM     26  C   LIG A   1      -3.971   0.629 132.267  0.00  0.00    +0.012 C 
ATOM     27  C   LIG A   1      -6.610  -1.186 129.763  0.00  0.00    +0.016 C 
ATOM     28  C   LIG A   1      -3.554  -3.596 132.509  0.00  0.00    +0.012 C 
ENDROOT
BRANCH  23  29
ATOM     29  O   LIG A   1      -5.190  -2.980 134.684  0.00  0.00    -0.388 OA
ATOM     30  H   LIG A   1      -5.565  -2.494 135.442  0.00  0.00    +0.210 HD
ENDBRANCH  23  29
BRANCH  13  31
ATOM     31  C   LIG A   1      -5.281   4.997 127.974  0.00  0.00    +0.246 C 
BRANCH  31  32
ATOM     32  O   LIG A   1      -4.169   4.855 128.882  0.00  0.00    -0.464 OA
BRANCH  32  33
ATOM     33  C   LIG A   1      -2.938   5.061 128.330  0.00  0.00    +0.304 C 
ATOM     34  C   LIG A   1      -2.500   6.491 128.456  0.00  0.00    +0.136 C 
ATOM     35  O   LIG A   1      -2.270   4.206 127.762  0.00  0.00    -0.251 OA
ENDBRANCH  32  33
ENDBRANCH  31  32
ENDBRANCH  13  31
BRANCH  15  36
ATOM     36  O   LIG A   1      -8.411   5.652 129.096  0.00  0.00    -0.458 OA
BRANCH  36  37
ATOM     37  C   LIG A   1      -9.627   5.896 129.677  0.00  0.00    +0.304 C 
ATOM     38  C   LIG A   1      -9.474   6.827 130.846  0.00  0.00    +0.136 C 
ATOM     39  O   LIG A   1     -10.649   5.296 129.419  0.00  0.00    -0.251 OA
ENDBRANCH  36  37
ENDBRANCH  15  36
BRANCH  14  40
ATOM     40  O   LIG A   1      -8.198   2.738 127.008  0.00  0.00    -0.457 OA
BRANCH  40  41
ATOM     41  C   LIG A   1      -8.537   2.722 125.690  0.00  0.00    +0.304 C 
ATOM     42  C   LIG A   1      -8.397   1.348 125.113  0.00  0.00    +0.136 C 
ATOM     43  O   LIG A   1      -8.914   3.681 125.036  0.00  0.00    -0.251 OA
ENDBRANCH  40  41
ENDBRANCH  14  40
BRANCH  13  44
ATOM     44  C   LIG A   1      -5.324   3.095 126.356  0.00  0.00    +0.246 C 
BRANCH  44  45
ATOM     45  O   LIG A   1      -4.782   4.116 125.497  0.00  0.00    -0.464 OA
BRANCH  45  46
ATOM     46  C   LIG A   1      -5.658   4.660 124.609  0.00  0.00    +0.304 C 
ATOM     47  C   LIG A   1      -5.740   3.858 123.347  0.00  0.00    +0.136 C 
ATOM     48  O   LIG A   1      -6.236   5.730 124.748  0.00  0.00    -0.251 OA
ENDBRANCH  45  46
ENDBRANCH  44  45
ENDBRANCH  13  44
TORSDOF 11
ENDMDL
MODEL 3
REMARK VINA RESULT:      -8.2      4.695      9.154
REMARK  Name = NuBBE_431
REMARK  21 active torsions:
REMARK  status: ('A' for Active; 'I' for Inactive)
REMARK    1  A    between atoms: C_1  and  C_2
REMARK    2  A    between atoms: C_6  and  C_53
REMARK    3  A    between atoms: C_9  and  C_52
REMARK    4  A    between atoms: C_10  and  C_51
REMARK    5  A    between atoms: C_15  and  C_16
REMARK    6  A    between atoms: C_15  and  C_46
REMARK    7  A    between atoms: C_16  and  O_17
REMARK    8  A    between atoms: O_17  and  C_18
REMARK    9  A    between atoms: C_18  and  C_19
REMARK   10  A    between atoms: C_21  and  O_42
REMARK   11  A    between atoms: C_23  and  O_38
REMARK   12  A    between atoms: C_26  and  C_37
REMARK   13  A    between atoms: C_34  and  C_35
REMARK   14  A    between atoms: C_34  and  O_36
REMARK   15  A    between atoms: O_38  and  C_39
REMARK   16  A    between atoms: C_39  and  C_40
REMARK   17  A    between atoms: O_42  and  C_43
REMARK   18  A    between atoms: C_43  and  C_44
REMARK   19  A    between atoms: C_46  and  O_47
REMARK   20  A    between atoms: O_47  and  C_48
REMARK   21  A    between atoms: C_48  and  C_49
REMARK                            x       y       z     vdW  Elec       q    Type
REMARK                         _______ _______ _______ _____ _____    ______ ____
ROOT
ATOM      1  C   LIG A   1      -6.884  -4.525 136.645  0.00  0.00    +0.010 C 
ATOM      2  C   LIG A   1      -6.985  -4.766 135.127  0.00  0.00    +0.018 C 
ATOM      3  C   LIG A   1      -5.836  -5.727 134.770  0.00  0.00    +0.006 C 
ATOM      4  C   LIG A   1      -5.444  -5.737 133.314  0.00  0.00    +0.007 C 
ATOM      5  C   LIG A   1      -5.252  -4.317 132.752  0.00  0.00    -0.023 C 
ATOM      6  C   LIG A   1      -4.695  -4.512 131.336  0.00  0.00    +0.008 C 
ATOM      7  C   LIG A   1      -4.629  -3.192 130.609  0.00  0.00    +0.012 C 
ATOM      8  C   LIG A   1      -5.995  -2.477 130.502  0.00  0.00    -0.005 C 
ATOM      9  C   LIG A   1      -5.738  -0.947 130.017  0.00  0.00    -0.019 C 
ATOM     10  C   LIG A   1      -4.672  -0.822 128.920  0.00  0.00    +0.008 C 
ATOM     11  C   LIG A   1      -5.151  -1.224 127.550  0.00  0.00    +0.005 C 
ATOM     12  C   LIG A   1      -6.284  -0.293 127.124  0.00  0.00    +0.012 C 
ATOM     13  C   LIG A   1      -6.431  -0.088 125.550  0.00  0.00    +0.083 C 
ATOM     14  C   LIG A   1      -7.900  -0.263 125.086  0.00  0.00    +0.230 C 
ATOM     15  C   LIG A   1      -8.931   0.492 126.005  0.00  0.00    +0.218 C 
ATOM     16  C   LIG A   1      -8.482   0.750 127.494  0.00  0.00    +0.055 C 
ATOM     17  C   LIG A   1      -7.583  -0.396 128.053  0.00  0.00    -0.021 C 
ATOM     18  C   LIG A   1      -7.062  -0.186 129.595  0.00  0.00    +0.006 C 
ATOM     19  C   LIG A   1      -8.067  -0.338 130.774  0.00  0.00    +0.031 C 
ATOM     20  C   LIG A   1      -7.823  -1.472 131.779  0.00  0.00    -0.026 C 
ATOM     21  C   LIG A   1      -6.848  -2.422 131.775  0.00  0.00    -0.061 C 
ATOM     22  C   LIG A   1      -6.686  -3.609 132.792  0.00  0.00    +0.053 C 
ATOM     23  C   LIG A   1      -7.117  -3.422 134.309  0.00  0.00    +0.073 C 
ATOM     24  C   LIG A   1      -8.564  -2.926 134.501  0.00  0.00    +0.042 C 
ATOM     25  C   LIG A   1      -8.481  -1.644 127.965  0.00  0.00    +0.012 C 
ATOM     26  C   LIG A   1      -5.090  -0.126 131.215  0.00  0.00    +0.012 C 
ATOM     27  C   LIG A   1      -6.834  -3.428 129.608  0.00  0.00    +0.016 C 
ATOM     28  C   LIG A   1      -4.147  -3.560 133.539  0.00  0.00    +0.012 C 
ENDROOT
BRANCH  23  29
ATOM     29  O   LIG A   1      -6.291  -2.416 134.912  0.00  0.00    -0.388 OA
ATOM     30  H   LIG A   1      -6.145  -2.683 135.839  0.00  0.00    +0.210 HD
ENDBRANCH  23  29
BRANCH  13  31
ATOM     31  C   LIG A   1      -6.026   1.390 125.211  0.00  0.00    +0.246 C 
BRANCH  31  32
ATOM     32  O   LIG A   1      -5.196   1.960 126.244  0.00  0.00    -0.464 OA
BRANCH  32  33
ATOM     33  C   LIG A   1      -4.610   3.151 125.926  0.00  0.00    +0.304 C 
ATOM     34  C   LIG A   1      -5.423   3.927 124.932  0.00  0.00    +0.136 C 
ATOM     35  O   LIG A   1      -3.534   3.543 126.359  0.00  0.00    -0.251 OA
ENDBRANCH  32  33
ENDBRANCH  31  32
ENDBRANCH  13  31
BRANCH  15  36
ATOM     36  O   LIG A   1      -9.387   1.747 125.469  0.00  0.00    -0.458 OA
BRANCH  36  37
ATOM     37  C   LIG A   1      -9.895   1.606 124.204  0.00  0.00    +0.304 C 
ATOM     38  C   LIG A   1      -9.021   2.305 123.204  0.00  0.00    +0.136 C 
ATOM     39  O   LIG A   1     -10.992   1.158 123.948  0.00  0.00    -0.251 OA
ENDBRANCH  36  37
ENDBRANCH  15  36
BRANCH  14  40
ATOM     40  O   LIG A   1      -8.313  -1.662 125.114  0.00  0.00    -0.457 OA
BRANCH  40  41
ATOM     41  C   LIG A   1      -9.013  -2.153 124.055  0.00  0.00    +0.304 C 
ATOM     42  C   LIG A   1      -9.261  -3.621 124.206  0.00  0.00    +0.136 C 
ATOM     43  O   LIG A   1      -9.405  -1.508 123.095  0.00  0.00    -0.251 OA
ENDBRANCH  40  41
ENDBRANCH  14  40
BRANCH  13  44
ATOM     44  C   LIG A   1      -5.446  -0.992 124.737  0.00  0.00    +0.246 C 
BRANCH  44  45
ATOM     45  O   LIG A   1      -5.688  -2.408 124.838  0.00  0.00    -0.464 OA
BRANCH  45  46
ATOM     46  C   LIG A   1      -5.278  -3.151 123.774  0.00  0.00    +0.304 C 
ATOM     47  C   LIG A   1      -5.678  -2.527 122.473  0.00  0.00    +0.136 C 
ATOM     48  O   LIG A   1      -4.746  -4.251 123.841  0.00  0.00    -0.251 OA
ENDBRANCH  45  46
ENDBRANCH  44  45
ENDBRANCH  13  44
TORSDOF 11
ENDMDL
MODEL 4
REMARK VINA RESULT:      -8.2      4.191      5.488
REMARK  Name = NuBBE_431
REMARK  21 active torsions:
REMARK  status: ('A' for Active; 'I' for Inactive)
REMARK    1  A    between atoms: C_1  and  C_2
REMARK    2  A    between atoms: C_6  and  C_53
REMARK    3  A    between atoms: C_9  and  C_52
REMARK    4  A    between atoms: C_10  and  C_51
REMARK    5  A    between atoms: C_15  and  C_16
REMARK    6  A    between atoms: C_15  and  C_46
REMARK    7  A    between atoms: C_16  and  O_17
REMARK    8  A    between atoms: O_17  and  C_18
REMARK    9  A    between atoms: C_18  and  C_19
REMARK   10  A    between atoms: C_21  and  O_42
REMARK   11  A    between atoms: C_23  and  O_38
REMARK   12  A    between atoms: C_26  and  C_37
REMARK   13  A    between atoms: C_34  and  C_35
REMARK   14  A    between atoms: C_34  and  O_36
REMARK   15  A    between atoms: O_38  and  C_39
REMARK   16  A    between atoms: C_39  and  C_40
REMARK   17  A    between atoms: O_42  and  C_43
REMARK   18  A    between atoms: C_43  and  C_44
REMARK   19  A    between atoms: C_46  and  O_47
REMARK   20  A    between atoms: O_47  and  C_48
REMARK   21  A    between atoms: C_48  and  C_49
REMARK                            x       y       z     vdW  Elec       q    Type
REMARK                         _______ _______ _______ _____ _____    ______ ____
ROOT
ATOM      1  C   LIG A   1      -2.839  -6.298 134.649  0.00  0.00    +0.010 C 
ATOM      2  C   LIG A   1      -3.916  -5.200 134.740  0.00  0.00    +0.018 C 
ATOM      3  C   LIG A   1      -5.260  -5.897 134.458  0.00  0.00    +0.006 C 
ATOM      4  C   LIG A   1      -6.377  -4.978 134.031  0.00  0.00    +0.007 C 
ATOM      5  C   LIG A   1      -5.942  -4.012 132.914  0.00  0.00    -0.023 C 
ATOM      6  C   LIG A   1      -7.222  -3.283 132.486  0.00  0.00    +0.008 C 
ATOM      7  C   LIG A   1      -6.898  -2.176 131.515  0.00  0.00    +0.012 C 
ATOM      8  C   LIG A   1      -5.906  -1.132 132.076  0.00  0.00    -0.005 C 
ATOM      9  C   LIG A   1      -5.383  -0.206 130.846  0.00  0.00    -0.019 C 
ATOM     10  C   LIG A   1      -6.490   0.181 129.856  0.00  0.00    +0.008 C 
ATOM     11  C   LIG A   1      -7.401   1.273 130.350  0.00  0.00    +0.005 C 
ATOM     12  C   LIG A   1      -6.585   2.545 130.565  0.00  0.00    +0.012 C 
ATOM     13  C   LIG A   1      -7.401   3.905 130.397  0.00  0.00    +0.083 C 
ATOM     14  C   LIG A   1      -7.144   4.876 131.578  0.00  0.00    +0.230 C 
ATOM     15  C   LIG A   1      -5.621   4.997 131.956  0.00  0.00    +0.218 C 
ATOM     16  C   LIG A   1      -4.709   3.765 131.589  0.00  0.00    +0.055 C 
ATOM     17  C   LIG A   1      -5.468   2.406 131.702  0.00  0.00    -0.021 C 
ATOM     18  C   LIG A   1      -4.584   1.078 131.317  0.00  0.00    +0.006 C 
ATOM     19  C   LIG A   1      -3.469   0.588 132.287  0.00  0.00    +0.031 C 
ATOM     20  C   LIG A   1      -3.639  -0.795 132.930  0.00  0.00    -0.026 C 
ATOM     21  C   LIG A   1      -4.671  -1.673 132.806  0.00  0.00    -0.061 C 
ATOM     22  C   LIG A   1      -4.829  -3.051 133.546  0.00  0.00    +0.053 C 
ATOM     23  C   LIG A   1      -3.547  -3.919 133.893  0.00  0.00    +0.073 C 
ATOM     24  C   LIG A   1      -2.463  -3.162 134.686  0.00  0.00    +0.042 C 
ATOM     25  C   LIG A   1      -5.894   2.345 133.180  0.00  0.00    +0.012 C 
ATOM     26  C   LIG A   1      -4.398  -1.062 129.937  0.00  0.00    +0.012 C 
ATOM     27  C   LIG A   1      -6.692  -0.475 133.242  0.00  0.00    +0.016 C 
ATOM     28  C   LIG A   1      -5.466  -4.798 131.663  0.00  0.00    +0.012 C 
ENDROOT
BRANCH  23  29
ATOM     29  O   LIG A   1      -2.908  -4.324 132.674  0.00  0.00    -0.388 OA
ATOM     30  H   LIG A   1      -2.137  -3.742 132.547  0.00  0.00    +0.210 HD
ENDBRANCH  23  29
BRANCH  13  31
ATOM     31  C   LIG A   1      -6.884   4.626 129.103  0.00  0.00    +0.246 C 
BRANCH  31  32
ATOM     32  O   LIG A   1      -5.949   3.802 128.377  0.00  0.00    -0.464 OA
BRANCH  32  33
ATOM     33  C   LIG A   1      -4.820   4.440 127.950  0.00  0.00    +0.304 C 
ATOM     34  C   LIG A   1      -3.605   3.569 128.071  0.00  0.00    +0.136 C 
ATOM     35  O   LIG A   1      -4.776   5.597 127.550  0.00  0.00    -0.251 OA
ENDBRANCH  32  33
ENDBRANCH  31  32
ENDBRANCH  13  31
BRANCH  15  36
ATOM     36  O   LIG A   1      -4.980   6.177 131.439  0.00  0.00    -0.458 OA
BRANCH  36  37
ATOM     37  C   LIG A   1      -4.139   6.744 132.360  0.00  0.00    +0.304 C 
ATOM     38  C   LIG A   1      -2.964   7.381 131.676  0.00  0.00    +0.136 C 
ATOM     39  O   LIG A   1      -4.220   6.584 133.559  0.00  0.00    -0.251 OA
ENDBRANCH  36  37
ENDBRANCH  15  36
BRANCH  14  40
ATOM     40  O   LIG A   1      -7.808   4.430 132.798  0.00  0.00    -0.457 OA
BRANCH  40  41
ATOM     41  C   LIG A   1      -8.315   5.370 133.641  0.00  0.00    +0.304 C 
ATOM     42  C   LIG A   1      -7.801   5.179 135.034  0.00  0.00    +0.136 C 
ATOM     43  O   LIG A   1      -9.084   6.267 133.335  0.00  0.00    -0.251 OA
ENDBRANCH  40  41
ENDBRANCH  14  40
BRANCH  13  44
ATOM     44  C   LIG A   1      -8.929   3.658 130.160  0.00  0.00    +0.246 C 
BRANCH  44  45
ATOM     45  O   LIG A   1      -9.595   4.658 129.366  0.00  0.00    -0.464 OA
BRANCH  45  46
ATOM     46  C   LIG A   1     -10.331   5.565 130.065  0.00  0.00    +0.304 C 
ATOM     47  C   LIG A   1      -9.789   6.953 129.918  0.00  0.00    +0.136 C 
ATOM     48  O   LIG A   1     -11.258   5.295 130.818  0.00  0.00    -0.251 OA
ENDBRANCH  45  46
ENDBRANCH  44  45
ENDBRANCH  13  44
TORSDOF 11
ENDMDL
MODEL 5
REMARK VINA RESULT:      -8.1      3.297     10.016
REMARK  Name = NuBBE_431
REMARK  21 active torsions:
REMARK  status: ('A' for Active; 'I' for Inactive)
REMARK    1  A    between atoms: C_1  and  C_2
REMARK    2  A    between atoms: C_6  and  C_53
REMARK    3  A    between atoms: C_9  and  C_52
REMARK    4  A    between atoms: C_10  and  C_51
REMARK    5  A    between atoms: C_15  and  C_16
REMARK    6  A    between atoms: C_15  and  C_46
REMARK    7  A    between atoms: C_16  and  O_17
REMARK    8  A    between atoms: O_17  and  C_18
REMARK    9  A    between atoms: C_18  and  C_19
REMARK   10  A    between atoms: C_21  and  O_42
REMARK   11  A    between atoms: C_23  and  O_38
REMARK   12  A    between atoms: C_26  and  C_37
REMARK   13  A    between atoms: C_34  and  C_35
REMARK   14  A    between atoms: C_34  and  O_36
REMARK   15  A    between atoms: O_38  and  C_39
REMARK   16  A    between atoms: C_39  and  C_40
REMARK   17  A    between atoms: O_42  and  C_43
REMARK   18  A    between atoms: C_43  and  C_44
REMARK   19  A    between atoms: C_46  and  O_47
REMARK   20  A    between atoms: O_47  and  C_48
REMARK   21  A    between atoms: C_48  and  C_49
REMARK                            x       y       z     vdW  Elec       q    Type
REMARK                         _______ _______ _______ _____ _____    ______ ____
ROOT
ATOM      1  C   LIG A   1      -0.031  12.840 134.729  0.00  0.00    +0.010 C 
ATOM      2  C   LIG A   1      -1.013  11.696 135.048  0.00  0.00    +0.018 C 
ATOM      3  C   LIG A   1      -0.455  10.992 136.298  0.00  0.00    +0.006 C 
ATOM      4  C   LIG A   1      -0.963   9.589 136.519  0.00  0.00    +0.007 C 
ATOM      5  C   LIG A   1      -0.878   8.731 135.243  0.00  0.00    -0.023 C 
ATOM      6  C   LIG A   1      -1.263   7.312 135.681  0.00  0.00    +0.008 C 
ATOM      7  C   LIG A   1      -1.391   6.407 134.482  0.00  0.00    +0.012 C 
ATOM      8  C   LIG A   1      -2.428   6.896 133.445  0.00  0.00    -0.005 C 
ATOM      9  C   LIG A   1      -2.228   6.044 132.076  0.00  0.00    -0.019 C 
ATOM     10  C   LIG A   1      -1.967   4.551 132.314  0.00  0.00    +0.008 C 
ATOM     11  C   LIG A   1      -3.197   3.763 132.678  0.00  0.00    +0.005 C 
ATOM     12  C   LIG A   1      -4.189   3.822 131.519  0.00  0.00    +0.012 C 
ATOM     13  C   LIG A   1      -5.162   2.564 131.401  0.00  0.00    +0.083 C 
ATOM     14  C   LIG A   1      -6.639   2.998 131.222  0.00  0.00    +0.230 C 
ATOM     15  C   LIG A   1      -6.820   4.145 130.159  0.00  0.00    +0.218 C 
ATOM     16  C   LIG A   1      -5.571   5.077 129.916  0.00  0.00    +0.055 C 
ATOM     17  C   LIG A   1      -4.730   5.296 131.212  0.00  0.00    -0.021 C 
ATOM     18  C   LIG A   1      -3.402   6.244 131.030  0.00  0.00    +0.006 C 
ATOM     19  C   LIG A   1      -3.574   7.777 130.828  0.00  0.00    +0.031 C 
ATOM     20  C   LIG A   1      -3.006   8.709 131.909  0.00  0.00    -0.026 C 
ATOM     21  C   LIG A   1      -2.388   8.384 133.076  0.00  0.00    -0.061 C 
ATOM     22  C   LIG A   1      -1.889   9.380 134.186  0.00  0.00    +0.053 C 
ATOM     23  C   LIG A   1      -1.347  10.815 133.781  0.00  0.00    +0.073 C 
ATOM     24  C   LIG A   1      -2.320  11.639 132.913  0.00  0.00    +0.042 C 
ATOM     25  C   LIG A   1      -5.721   5.959 132.187  0.00  0.00    +0.012 C 
ATOM     26  C   LIG A   1      -0.886   6.516 131.364  0.00  0.00    +0.012 C 
ATOM     27  C   LIG A   1      -3.775   6.803 134.210  0.00  0.00    +0.016 C 
ATOM     28  C   LIG A   1       0.589   8.635 134.742  0.00  0.00    +0.012 C 
ENDROOT
BRANCH  23  29
ATOM     29  O   LIG A   1      -0.165  10.665 132.982  0.00  0.00    -0.388 OA
ATOM     30  H   LIG A   1       0.011   9.709 132.908  0.00  0.00    +0.210 HD
ENDBRANCH  23  29
BRANCH  13  31
ATOM     31  C   LIG A   1      -4.769   1.764 130.109  0.00  0.00    +0.246 C 
BRANCH  31  32
ATOM     32  O   LIG A   1      -3.587   2.311 129.489  0.00  0.00    -0.464 OA
BRANCH  32  33
ATOM     33  C   LIG A   1      -3.725   2.650 128.174  0.00  0.00    +0.304 C 
ATOM     34  C   LIG A   1      -2.723   3.686 127.756  0.00  0.00    +0.136 C 
ATOM     35  O   LIG A   1      -4.580   2.205 127.419  0.00  0.00    -0.251 OA
ENDBRANCH  32  33
ENDBRANCH  31  32
ENDBRANCH  13  31
BRANCH  15  36
ATOM     36  O   LIG A   1      -7.272   3.686 128.872  0.00  0.00    -0.458 OA
BRANCH  36  37
ATOM     37  C   LIG A   1      -8.449   2.991 128.964  0.00  0.00    +0.304 C 
ATOM     38  C   LIG A   1      -8.328   1.659 128.282  0.00  0.00    +0.136 C 
ATOM     39  O   LIG A   1      -9.496   3.457 129.359  0.00  0.00    -0.251 OA
ENDBRANCH  36  37
ENDBRANCH  15  36
BRANCH  14  40
ATOM     40  O   LIG A   1      -7.200   3.530 132.460  0.00  0.00    -0.457 OA
BRANCH  40  41
ATOM     41  C   LIG A   1      -8.389   3.034 132.899  0.00  0.00    +0.304 C 
ATOM     42  C   LIG A   1      -8.927   3.848 134.034  0.00  0.00    +0.136 C 
ATOM     43  O   LIG A   1      -8.969   2.061 132.446  0.00  0.00    -0.251 OA
ENDBRANCH  40  41
ENDBRANCH  14  40
BRANCH  13  44
ATOM     44  C   LIG A   1      -4.984   1.559 132.589  0.00  0.00    +0.246 C 
BRANCH  44  45
ATOM     45  O   LIG A   1      -5.576   0.262 132.388  0.00  0.00    -0.464 OA
BRANCH  45  46
ATOM     46  C   LIG A   1      -6.404  -0.163 133.381  0.00  0.00    +0.304 C 
ATOM     47  C   LIG A   1      -7.270  -1.300 132.934  0.00  0.00    +0.136 C 
ATOM     48  O   LIG A   1      -6.529   0.370 134.476  0.00  0.00    -0.251 OA
ENDBRANCH  45  46
ENDBRANCH  44  45
ENDBRANCH  13  44
TORSDOF 11
ENDMDL
MODEL 6
REMARK VINA RESULT:      -7.9      1.684      2.162
REMARK  Name = NuBBE_431
REMARK  21 active torsions:
REMARK  status: ('A' for Active; 'I' for Inactive)
REMARK    1  A    between atoms: C_1  and  C_2
REMARK    2  A    between atoms: C_6  and  C_53
REMARK    3  A    between atoms: C_9  and  C_52
REMARK    4  A    between atoms: C_10  and  C_51
REMARK    5  A    between atoms: C_15  and  C_16
REMARK    6  A    between atoms: C_15  and  C_46
REMARK    7  A    between atoms: C_16  and  O_17
REMARK    8  A    between atoms: O_17  and  C_18
REMARK    9  A    between atoms: C_18  and  C_19
REMARK   10  A    between atoms: C_21  and  O_42
REMARK   11  A    between atoms: C_23  and  O_38
REMARK   12  A    between atoms: C_26  and  C_37
REMARK   13  A    between atoms: C_34  and  C_35
REMARK   14  A    between atoms: C_34  and  O_36
REMARK   15  A    between atoms: O_38  and  C_39
REMARK   16  A    between atoms: C_39  and  C_40
REMARK   17  A    between atoms: O_42  and  C_43
REMARK   18  A    between atoms: C_43  and  C_44
REMARK   19  A    between atoms: C_46  and  O_47
REMARK   20  A    between atoms: O_47  and  C_48
REMARK   21  A    between atoms: C_48  and  C_49
REMARK                            x       y       z     vdW  Elec       q    Type
REMARK                         _______ _______ _______ _____ _____    ______ ____
ROOT
ATOM      1  C   LIG A   1      -8.295  -2.368 122.487  0.00  0.00    +0.010 C 
ATOM      2  C   LIG A   1      -8.749  -1.410 123.604  0.00  0.00    +0.018 C 
ATOM      3  C   LIG A   1      -9.467  -0.244 122.900  0.00  0.00    +0.006 C 
ATOM      4  C   LIG A   1      -9.581   1.020 123.716  0.00  0.00    +0.007 C 
ATOM      5  C   LIG A   1      -8.239   1.423 124.356  0.00  0.00    -0.023 C 
ATOM      6  C   LIG A   1      -8.489   2.796 124.992  0.00  0.00    +0.008 C 
ATOM      7  C   LIG A   1      -7.295   3.224 125.808  0.00  0.00    +0.012 C 
ATOM      8  C   LIG A   1      -6.922   2.227 126.928  0.00  0.00    -0.005 C 
ATOM      9  C   LIG A   1      -5.451   2.618 127.497  0.00  0.00    -0.019 C 
ATOM     10  C   LIG A   1      -5.236   4.129 127.656  0.00  0.00    +0.008 C 
ATOM     11  C   LIG A   1      -5.911   4.721 128.864  0.00  0.00    +0.005 C 
ATOM     12  C   LIG A   1      -5.320   4.093 130.124  0.00  0.00    +0.012 C 
ATOM     13  C   LIG A   1      -5.362   5.018 131.422  0.00  0.00    +0.083 C 
ATOM     14  C   LIG A   1      -5.919   4.255 132.651  0.00  0.00    +0.230 C 
ATOM     15  C   LIG A   1      -5.300   2.818 132.817  0.00  0.00    +0.218 C 
ATOM     16  C   LIG A   1      -4.755   2.135 131.504  0.00  0.00    +0.055 C 
ATOM     17  C   LIG A   1      -5.589   2.520 130.242  0.00  0.00    -0.021 C 
ATOM     18  C   LIG A   1      -5.067   1.858 128.834  0.00  0.00    +0.006 C 
ATOM     19  C   LIG A   1      -5.285   0.340 128.570  0.00  0.00    +0.031 C 
ATOM     20  C   LIG A   1      -6.194  -0.060 127.399  0.00  0.00    -0.026 C 
ATOM     21  C   LIG A   1      -6.894   0.741 126.551  0.00  0.00    -0.061 C 
ATOM     22  C   LIG A   1      -7.871   0.277 125.410  0.00  0.00    +0.053 C 
ATOM     23  C   LIG A   1      -7.587  -1.069 124.618  0.00  0.00    +0.073 C 
ATOM     24  C   LIG A   1      -7.407  -2.308 125.518  0.00  0.00    +0.042 C 
ATOM     25  C   LIG A   1      -7.006   2.015 130.569  0.00  0.00    +0.012 C 
ATOM     26  C   LIG A   1      -4.356   2.231 126.410  0.00  0.00    +0.012 C 
ATOM     27  C   LIG A   1      -8.146   2.280 127.882  0.00  0.00    +0.016 C 
ATOM     28  C   LIG A   1      -7.158   1.654 123.265  0.00  0.00    +0.012 C 
ENDROOT
BRANCH  23  29
ATOM     29  O   LIG A   1      -6.353  -0.942 123.899  0.00  0.00    -0.388 OA
ATOM     30  H   LIG A   1      -5.632  -1.005 124.553  0.00  0.00    +0.210 HD
ENDBRANCH  23  29
BRANCH  13  31
ATOM     31  C   LIG A   1      -3.888   5.426 131.777  0.00  0.00    +0.246 C 
BRANCH  31  32
ATOM     32  O   LIG A   1      -2.972   5.064 130.723  0.00  0.00    -0.464 OA
BRANCH  32  33
ATOM     33  C   LIG A   1      -2.125   6.058 130.324  0.00  0.00    +0.304 C 
ATOM     34  C   LIG A   1      -2.188   6.285 128.843  0.00  0.00    +0.136 C 
ATOM     35  O   LIG A   1      -1.369   6.675 131.064  0.00  0.00    -0.251 OA
ENDBRANCH  32  33
ENDBRANCH  31  32
ENDBRANCH  13  31
BRANCH  15  36
ATOM     36  O   LIG A   1      -4.260   2.738 133.808  0.00  0.00    -0.458 OA
BRANCH  36  37
ATOM     37  C   LIG A   1      -4.756   2.404 135.041  0.00  0.00    +0.304 C 
ATOM     38  C   LIG A   1      -5.542   1.127 134.963  0.00  0.00    +0.136 C 
ATOM     39  O   LIG A   1      -4.739   3.130 136.012  0.00  0.00    -0.251 OA
ENDBRANCH  36  37
ENDBRANCH  15  36
BRANCH  14  40
ATOM     40  O   LIG A   1      -7.359   4.044 132.548  0.00  0.00    -0.457 OA
BRANCH  40  41
ATOM     41  C   LIG A   1      -8.062   3.798 133.687  0.00  0.00    +0.304 C 
ATOM     42  C   LIG A   1      -9.294   2.998 133.400  0.00  0.00    +0.136 C 
ATOM     43  O   LIG A   1      -7.753   4.162 134.811  0.00  0.00    -0.251 OA
ENDBRANCH  40  41
ENDBRANCH  14  40
BRANCH  13  44
ATOM     44  C   LIG A   1      -6.122   6.364 131.170  0.00  0.00    +0.246 C 
BRANCH  44  45
ATOM     45  O   LIG A   1      -7.487   6.391 131.627  0.00  0.00    -0.464 OA
BRANCH  45  46
ATOM     46  C   LIG A   1      -8.416   6.695 130.680  0.00  0.00    +0.304 C 
ATOM     47  C   LIG A   1      -9.297   5.525 130.369  0.00  0.00    +0.136 C 
ATOM     48  O   LIG A   1      -8.476   7.748 130.059  0.00  0.00    -0.251 OA
ENDBRANCH  45  46
ENDBRANCH  44  45
ENDBRANCH  13  44
TORSDOF 11
ENDMDL
MODEL 7
REMARK VINA RESULT:      -7.8      2.933      6.124
REMARK  Name = NuBBE_431
REMARK  21 active torsions:
REMARK  status: ('A' for Active; 'I' for Inactive)
REMARK    1  A    between atoms: C_1  and  C_2
REMARK    2  A    between atoms: C_6  and  C_53
REMARK    3  A    between atoms: C_9  and  C_52
REMARK    4  A    between atoms: C_10  and  C_51
REMARK    5  A    between atoms: C_15  and  C_16
REMARK    6  A    between atoms: C_15  and  C_46
REMARK    7  A    between atoms: C_16  and  O_17
REMARK    8  A    between atoms: O_17  and  C_18
REMARK    9  A    between atoms: C_18  and  C_19
REMARK   10  A    between atoms: C_21  and  O_42
REMARK   11  A    between atoms: C_23  and  O_38
REMARK   12  A    between atoms: C_26  and  C_37
REMARK   13  A    between atoms: C_34  and  C_35
REMARK   14  A    between atoms: C_34  and  O_36
REMARK   15  A    between atoms: O_38  and  C_39
REMARK   16  A    between atoms: C_39  and  C_40
REMARK   17  A    between atoms: O_42  and  C_43
REMARK   18  A    between atoms: C_43  and  C_44
REMARK   19  A    between atoms: C_46  and  O_47
REMARK   20  A    between atoms: O_47  and  C_48
REMARK   21  A    between atoms: C_48  and  C_49
REMARK                            x       y       z     vdW  Elec       q    Type
REMARK                         _______ _______ _______ _____ _____    ______ ____
ROOT
ATOM      1  C   LIG A   1      -9.661  -1.235 122.486  0.00  0.00    +0.010 C 
ATOM      2  C   LIG A   1      -8.420  -0.731 123.248  0.00  0.00    +0.018 C 
ATOM      3  C   LIG A   1      -7.298  -1.742 122.950  0.00  0.00    +0.006 C 
ATOM      4  C   LIG A   1      -6.153  -1.731 123.932  0.00  0.00    +0.007 C 
ATOM      5  C   LIG A   1      -6.639  -1.768 125.393  0.00  0.00    -0.023 C 
ATOM      6  C   LIG A   1      -5.369  -1.926 126.239  0.00  0.00    +0.008 C 
ATOM      7  C   LIG A   1      -5.694  -1.797 127.706  0.00  0.00    +0.012 C 
ATOM      8  C   LIG A   1      -6.364  -0.454 128.075  0.00  0.00    -0.005 C 
ATOM      9  C   LIG A   1      -6.964  -0.574 129.581  0.00  0.00    -0.019 C 
ATOM     10  C   LIG A   1      -6.033  -1.308 130.556  0.00  0.00    +0.008 C 
ATOM     11  C   LIG A   1      -4.871  -0.480 131.036  0.00  0.00    +0.005 C 
ATOM     12  C   LIG A   1      -5.403   0.724 131.811  0.00  0.00    +0.012 C 
ATOM     13  C   LIG A   1      -4.423   1.286 132.936  0.00  0.00    +0.083 C 
ATOM     14  C   LIG A   1      -4.269   2.826 132.842  0.00  0.00    +0.230 C 
ATOM     15  C   LIG A   1      -5.641   3.572 132.650  0.00  0.00    +0.218 C 
ATOM     16  C   LIG A   1      -6.801   2.741 131.980  0.00  0.00    +0.055 C 
ATOM     17  C   LIG A   1      -6.272   1.727 130.918  0.00  0.00    -0.021 C 
ATOM     18  C   LIG A   1      -7.425   0.813 130.191  0.00  0.00    +0.006 C 
ATOM     19  C   LIG A   1      -8.385   1.467 129.155  0.00  0.00    +0.031 C 
ATOM     20  C   LIG A   1      -8.321   0.965 127.706  0.00  0.00    -0.026 C 
ATOM     21  C   LIG A   1      -7.497   0.029 127.162  0.00  0.00    -0.061 C 
ATOM     22  C   LIG A   1      -7.423  -0.397 125.651  0.00  0.00    +0.053 C 
ATOM     23  C   LIG A   1      -8.735  -0.388 124.757  0.00  0.00    +0.073 C 
ATOM     24  C   LIG A   1      -9.493   0.955 124.757  0.00  0.00    +0.042 C 
ATOM     25  C   LIG A   1      -5.571   2.618 129.877  0.00  0.00    +0.012 C 
ATOM     26  C   LIG A   1      -8.242  -1.520 129.555  0.00  0.00    +0.012 C 
ATOM     27  C   LIG A   1      -5.259   0.595 127.778  0.00  0.00    +0.016 C 
ATOM     28  C   LIG A   1      -7.484  -3.044 125.658  0.00  0.00    +0.012 C 
ENDROOT
BRANCH  23  29
ATOM     29  O   LIG A   1      -9.667  -1.347 125.277  0.00  0.00    -0.388 OA
ATOM     30  H   LIG A   1      -9.145  -2.056 125.696  0.00  0.00    +0.210 HD
ENDBRANCH  23  29
BRANCH  13  31
ATOM     31  C   LIG A   1      -5.065   0.984 134.336  0.00  0.00    +0.246 C 
BRANCH  31  32
ATOM     32  O   LIG A   1      -6.236   0.152 134.211  0.00  0.00    -0.464 OA
BRANCH  32  33
ATOM     33  C   LIG A   1      -6.143  -1.075 134.802  0.00  0.00    +0.304 C 
ATOM     34  C   LIG A   1      -6.908  -2.121 134.046  0.00  0.00    +0.136 C 
ATOM     35  O   LIG A   1      -5.543  -1.310 135.844  0.00  0.00    -0.251 OA
ENDBRANCH  32  33
ENDBRANCH  31  32
ENDBRANCH  13  31
BRANCH  15  36
ATOM     36  O   LIG A   1      -6.168   4.153 133.857  0.00  0.00    -0.458 OA
BRANCH  36  37
ATOM     37  C   LIG A   1      -5.892   5.492 133.940  0.00  0.00    +0.304 C 
ATOM     38  C   LIG A   1      -6.022   6.140 132.592  0.00  0.00    +0.136 C 
ATOM     39  O   LIG A   1      -5.417   6.041 134.911  0.00  0.00    -0.251 OA
ENDBRANCH  36  37
ENDBRANCH  15  36
BRANCH  14  40
ATOM     40  O   LIG A   1      -3.454   3.219 131.698  0.00  0.00    -0.457 OA
BRANCH  40  41
ATOM     41  C   LIG A   1      -2.870   4.448 131.708  0.00  0.00    +0.304 C 
ATOM     42  C   LIG A   1      -2.079   4.659 132.961  0.00  0.00    +0.136 C 
ATOM     43  O   LIG A   1      -2.957   5.289 130.828  0.00  0.00    -0.251 OA
ENDBRANCH  40  41
ENDBRANCH  14  40
BRANCH  13  44
ATOM     44  C   LIG A   1      -3.039   0.555 132.941  0.00  0.00    +0.246 C 
BRANCH  44  45
ATOM     45  O   LIG A   1      -2.836  -0.365 134.030  0.00  0.00    -0.464 OA
BRANCH  45  46
ATOM     46  C   LIG A   1      -2.186  -1.517 133.710  0.00  0.00    +0.304 C 
ATOM     47  C   LIG A   1      -3.139  -2.650 133.487  0.00  0.00    +0.136 C 
ATOM     48  O   LIG A   1      -0.971  -1.668 133.708  0.00  0.00    -0.251 OA
ENDBRANCH  45  46
ENDBRANCH  44  45
ENDBRANCH  13  44
TORSDOF 11
ENDMDL
MODEL 8
REMARK VINA RESULT:      -7.8      4.034      6.792
REMARK  Name = NuBBE_431
REMARK  21 active torsions:
REMARK  status: ('A' for Active; 'I' for Inactive)
REMARK    1  A    between atoms: C_1  and  C_2
REMARK    2  A    between atoms: C_6  and  C_53
REMARK    3  A    between atoms: C_9  and  C_52
REMARK    4  A    between atoms: C_10  and  C_51
REMARK    5  A    between atoms: C_15  and  C_16
REMARK    6  A    between atoms: C_15  and  C_46
REMARK    7  A    between atoms: C_16  and  O_17
REMARK    8  A    between atoms: O_17  and  C_18
REMARK    9  A    between atoms: C_18  and  C_19
REMARK   10  A    between atoms: C_21  and  O_42
REMARK   11  A    between atoms: C_23  and  O_38
REMARK   12  A    between atoms: C_26  and  C_37
REMARK   13  A    between atoms: C_34  and  C_35
REMARK   14  A    between atoms: C_34  and  O_36
REMARK   15  A    between atoms: O_38  and  C_39
REMARK   16  A    between atoms: C_39  and  C_40
REMARK   17  A    between atoms: O_42  and  C_43
REMARK   18  A    between atoms: C_43  and  C_44
REMARK   19  A    between atoms: C_46  and  O_47
REMARK   20  A    between atoms: O_47  and  C_48
REMARK   21  A    between atoms: C_48  and  C_49
REMARK                            x       y       z     vdW  Elec       q    Type
REMARK                         _______ _______ _______ _____ _____    ______ ____
ROOT
ATOM      1  C   LIG A   1      -6.548  -5.817 135.319  0.00  0.00    +0.010 C 
ATOM      2  C   LIG A   1      -6.372  -5.083 133.975  0.00  0.00    +0.018 C 
ATOM      3  C   LIG A   1      -5.034  -5.576 133.393  0.00  0.00    +0.006 C 
ATOM      4  C   LIG A   1      -4.426  -4.677 132.346  0.00  0.00    +0.007 C 
ATOM      5  C   LIG A   1      -4.396  -3.203 132.789  0.00  0.00    -0.023 C 
ATOM      6  C   LIG A   1      -3.602  -2.468 131.701  0.00  0.00    +0.008 C 
ATOM      7  C   LIG A   1      -3.651  -0.978 131.929  0.00  0.00    +0.012 C 
ATOM      8  C   LIG A   1      -5.086  -0.405 131.958  0.00  0.00    -0.005 C 
ATOM      9  C   LIG A   1      -5.023   1.112 132.540  0.00  0.00    -0.019 C 
ATOM     10  C   LIG A   1      -3.838   1.926 132.003  0.00  0.00    +0.008 C 
ATOM     11  C   LIG A   1      -4.025   2.426 130.596  0.00  0.00    +0.005 C 
ATOM     12  C   LIG A   1      -5.221   3.374 130.557  0.00  0.00    +0.012 C 
ATOM     13  C   LIG A   1      -5.156   4.492 129.422  0.00  0.00    +0.083 C 
ATOM     14  C   LIG A   1      -6.484   4.577 128.626  0.00  0.00    +0.230 C 
ATOM     15  C   LIG A   1      -7.758   4.568 129.551  0.00  0.00    +0.218 C 
ATOM     16  C   LIG A   1      -7.594   3.880 130.960  0.00  0.00    +0.055 C 
ATOM     17  C   LIG A   1      -6.610   2.670 130.922  0.00  0.00    -0.021 C 
ATOM     18  C   LIG A   1      -6.377   1.915 132.361  0.00  0.00    +0.006 C 
ATOM     19  C   LIG A   1      -7.511   1.032 132.958  0.00  0.00    +0.031 C 
ATOM     20  C   LIG A   1      -7.234  -0.469 133.126  0.00  0.00    -0.026 C 
ATOM     21  C   LIG A   1      -6.122  -1.176 132.785  0.00  0.00    -0.061 C 
ATOM     22  C   LIG A   1      -5.919  -2.729 132.912  0.00  0.00    +0.053 C 
ATOM     23  C   LIG A   1      -6.603  -3.526 134.102  0.00  0.00    +0.073 C 
ATOM     24  C   LIG A   1      -8.126  -3.312 134.215  0.00  0.00    +0.042 C 
ATOM     25  C   LIG A   1      -7.257   1.700 129.917  0.00  0.00    +0.012 C 
ATOM     26  C   LIG A   1      -4.718   1.055 134.100  0.00  0.00    +0.012 C 
ATOM     27  C   LIG A   1      -5.602  -0.645 130.514  0.00  0.00    +0.016 C 
ATOM     28  C   LIG A   1      -3.572  -3.040 134.095  0.00  0.00    +0.012 C 
ENDROOT
BRANCH  23  29
ATOM     29  O   LIG A   1      -6.065  -3.066 135.349  0.00  0.00    -0.388 OA
ATOM     30  H   LIG A   1      -5.290  -2.512 135.140  0.00  0.00    +0.210 HD
ENDBRANCH  23  29
BRANCH  13  31
ATOM     31  C   LIG A   1      -4.962   5.885 130.120  0.00  0.00    +0.246 C 
BRANCH  31  32
ATOM     32  O   LIG A   1      -4.494   5.734 131.476  0.00  0.00    -0.464 OA
BRANCH  32  33
ATOM     33  C   LIG A   1      -3.342   6.404 131.771  0.00  0.00    +0.304 C 
ATOM     34  C   LIG A   1      -2.132   5.529 131.621  0.00  0.00    +0.136 C 
ATOM     35  O   LIG A   1      -3.282   7.567 132.149  0.00  0.00    -0.251 OA
ENDBRANCH  32  33
ENDBRANCH  31  32
ENDBRANCH  13  31
BRANCH  15  36
ATOM     36  O   LIG A   1      -8.333   5.869 129.770  0.00  0.00    -0.458 OA
BRANCH  36  37
ATOM     37  C   LIG A   1      -9.680   5.878 129.519  0.00  0.00    +0.304 C 
ATOM     38  C   LIG A   1     -10.201   7.286 129.498  0.00  0.00    +0.136 C 
ATOM     39  O   LIG A   1     -10.388   4.894 129.513  0.00  0.00    -0.251 OA
ENDBRANCH  36  37
ENDBRANCH  15  36
BRANCH  14  40
ATOM     40  O   LIG A   1      -6.651   3.437 127.731  0.00  0.00    -0.457 OA
BRANCH  40  41
ATOM     41  C   LIG A   1      -7.659   3.472 126.818  0.00  0.00    +0.304 C 
ATOM     42  C   LIG A   1      -7.553   4.681 125.943  0.00  0.00    +0.136 C 
ATOM     43  O   LIG A   1      -8.546   2.641 126.698  0.00  0.00    -0.251 OA
ENDBRANCH  40  41
ENDBRANCH  14  40
BRANCH  13  44
ATOM     44  C   LIG A   1      -3.917   4.317 128.481  0.00  0.00    +0.246 C 
BRANCH  44  45
ATOM     45  O   LIG A   1      -4.078   4.843 127.151  0.00  0.00    -0.464 OA
BRANCH  45  46
ATOM     46  C   LIG A   1      -3.680   4.020 126.143  0.00  0.00    +0.304 C 
ATOM     47  C   LIG A   1      -2.316   3.454 126.393  0.00  0.00    +0.136 C 
ATOM     48  O   LIG A   1      -4.288   3.835 125.097  0.00  0.00    -0.251 OA
ENDBRANCH  45  46
ENDBRANCH  44  45
ENDBRANCH  13  44
TORSDOF 11
ENDMDL
MODEL 9
REMARK VINA RESULT:      -7.8      4.097      7.389
REMARK  Name = NuBBE_431
REMARK  21 active torsions:
REMARK  status: ('A' for Active; 'I' for Inactive)
REMARK    1  A    between atoms: C_1  and  C_2
REMARK    2  A    between atoms: C_6  and  C_53
REMARK    3  A    between atoms: C_9  and  C_52
REMARK    4  A    between atoms: C_10  and  C_51
REMARK    5  A    between atoms: C_15  and  C_16
REMARK    6  A    between atoms: C_15  and  C_46
REMARK    7  A    between atoms: C_16  and  O_17
REMARK    8  A    between atoms: O_17  and  C_18
REMARK    9  A    between atoms: C_18  and  C_19
REMARK   10  A    between atoms: C_21  and  O_42
REMARK   11  A    between atoms: C_23  and  O_38
REMARK   12  A    between atoms: C_26  and  C_37
REMARK   13  A    between atoms: C_34  and  C_35
REMARK   14  A    between atoms: C_34  and  O_36
REMARK   15  A    between atoms: O_38  and  C_39
REMARK   16  A    between atoms: C_39  and  C_40
REMARK   17  A    between atoms: O_42  and  C_43
REMARK   18  A    between atoms: C_43  and  C_44
REMARK   19  A    between atoms: C_46  and  O_47
REMARK   20  A    between atoms: O_47  and  C_48
REMARK   21  A    between atoms: C_48  and  C_49
REMARK                            x       y       z     vdW  Elec       q    Type
REMARK                         _______ _______ _______ _____ _____    ______ ____
ROOT
ATOM      1  C   LIG A   1      -4.080  -6.421 134.173  0.00  0.00    +0.010 C 
ATOM      2  C   LIG A   1      -3.628  -5.191 133.363  0.00  0.00    +0.018 C 
ATOM      3  C   LIG A   1      -2.645  -4.424 134.266  0.00  0.00    +0.006 C 
ATOM      4  C   LIG A   1      -2.438  -2.976 133.897  0.00  0.00    +0.007 C 
ATOM      5  C   LIG A   1      -3.769  -2.236 133.673  0.00  0.00    -0.023 C 
ATOM      6  C   LIG A   1      -3.387  -0.763 133.481  0.00  0.00    +0.008 C 
ATOM      7  C   LIG A   1      -4.593   0.046 133.075  0.00  0.00    +0.012 C 
ATOM      8  C   LIG A   1      -5.266  -0.457 131.777  0.00  0.00    -0.005 C 
ATOM      9  C   LIG A   1      -6.717   0.262 131.638  0.00  0.00    -0.019 C 
ATOM     10  C   LIG A   1      -6.704   1.749 132.018  0.00  0.00    +0.008 C 
ATOM     11  C   LIG A   1      -6.108   2.646 130.966  0.00  0.00    +0.005 C 
ATOM     12  C   LIG A   1      -6.954   2.558 129.697  0.00  0.00    +0.012 C 
ATOM     13  C   LIG A   1      -6.934   3.864 128.783  0.00  0.00    +0.083 C 
ATOM     14  C   LIG A   1      -6.674   3.517 127.295  0.00  0.00    +0.230 C 
ATOM     15  C   LIG A   1      -7.534   2.301 126.786  0.00  0.00    +0.218 C 
ATOM     16  C   LIG A   1      -8.004   1.270 127.883  0.00  0.00    +0.055 C 
ATOM     17  C   LIG A   1      -6.960   1.103 129.031  0.00  0.00    -0.021 C 
ATOM     18  C   LIG A   1      -7.391   0.056 130.219  0.00  0.00    +0.006 C 
ATOM     19  C   LIG A   1      -7.389  -1.474 129.934  0.00  0.00    +0.031 C 
ATOM     20  C   LIG A   1      -6.410  -2.348 130.730  0.00  0.00    -0.026 C 
ATOM     21  C   LIG A   1      -5.484  -1.970 131.653  0.00  0.00    -0.061 C 
ATOM     22  C   LIG A   1      -4.453  -2.901 132.388  0.00  0.00    +0.053 C 
ATOM     23  C   LIG A   1      -4.843  -4.399 132.739  0.00  0.00    +0.073 C 
ATOM     24  C   LIG A   1      -5.339  -5.224 131.535  0.00  0.00    +0.042 C 
ATOM     25  C   LIG A   1      -5.699   0.593 128.310  0.00  0.00    +0.012 C 
ATOM     26  C   LIG A   1      -7.707  -0.357 132.719  0.00  0.00    +0.012 C 
ATOM     27  C   LIG A   1      -4.186  -0.210 130.690  0.00  0.00    +0.016 C 
ATOM     28  C   LIG A   1      -4.645  -2.282 134.954  0.00  0.00    +0.012 C 
ENDROOT
BRANCH  23  29
ATOM     29  O   LIG A   1      -5.936  -4.396 133.669  0.00  0.00    -0.388 OA
ATOM     30  H   LIG A   1      -5.580  -4.104 134.529  0.00  0.00    +0.210 HD
ENDBRANCH  23  29
BRANCH  13  31
ATOM     31  C   LIG A   1      -8.357   4.525 128.848  0.00  0.00    +0.246 C 
BRANCH  31  32
ATOM     32  O   LIG A   1      -9.141   3.984 129.931  0.00  0.00    -0.464 OA
BRANCH  32  33
ATOM     33  C   LIG A   1     -10.211   4.742 130.309  0.00  0.00    +0.304 C 
ATOM     34  C   LIG A   1      -9.813   5.844 131.246  0.00  0.00    +0.136 C 
ATOM     35  O   LIG A   1     -11.370   4.543 129.966  0.00  0.00    -0.251 OA
ENDBRANCH  32  33
ENDBRANCH  31  32
ENDBRANCH  13  31
BRANCH  15  36
ATOM     36  O   LIG A   1      -8.695   2.680 126.025  0.00  0.00    -0.458 OA
BRANCH  36  37
ATOM     37  C   LIG A   1      -8.723   2.066 124.801  0.00  0.00    +0.304 C 
ATOM     38  C   LIG A   1      -7.353   1.582 124.423  0.00  0.00    +0.136 C 
ATOM     39  O   LIG A   1      -9.667   2.086 124.040  0.00  0.00    -0.251 OA
ENDBRANCH  36  37
ENDBRANCH  15  36
BRANCH  14  40
ATOM     40  O   LIG A   1      -5.287   3.130 127.065  0.00  0.00    -0.457 OA
BRANCH  40  41
ATOM     41  C   LIG A   1      -4.595   3.753 126.072  0.00  0.00    +0.304 C 
ATOM     42  C   LIG A   1      -3.134   3.815 126.389  0.00  0.00    +0.136 C 
ATOM     43  O   LIG A   1      -5.072   4.209 125.045  0.00  0.00    -0.251 OA
ENDBRANCH  40  41
ENDBRANCH  14  40
BRANCH  13  44
ATOM     44  C   LIG A   1      -5.941   4.950 129.317  0.00  0.00    +0.246 C 
BRANCH  44  45
ATOM     45  O   LIG A   1      -6.557   6.074 129.973  0.00  0.00    -0.464 OA
BRANCH  45  46
ATOM     46  C   LIG A   1      -6.004   6.433 131.164  0.00  0.00    +0.304 C 
ATOM     47  C   LIG A   1      -4.736   7.208 130.977  0.00  0.00    +0.136 C 
ATOM     48  O   LIG A   1      -6.406   6.083 132.266  0.00  0.00    -0.251 OA
ENDBRANCH  45  46
ENDBRANCH  44  45
ENDBRANCH  13  44
TORSDOF 11
ENDMDL
