MODEL 1
REMARK VINA RESULT:      -8.1      0.000      0.000
REMARK  Name = NuBBE_1144
REMARK  7 active torsions:
REMARK  status: ('A' for Active; 'I' for Inactive)
REMARK    1  A    between atoms: C_5  and  C_6
REMARK    2  A    between atoms: C_10  and  C_11
REMARK    3  A    between atoms: C_17  and  C_18
REMARK    4  A    between atoms: C_18  and  C_19
REMARK    5  A    between atoms: C_19  and  O_20
REMARK    6  A    between atoms: O_20  and  C_21
REMARK    7  A    between atoms: C_26  and  C_28
REMARK                            x       y       z     vdW  Elec       q    Type
REMARK                         _______ _______ _______ _____ _____    ______ ____
ROOT
ATOM      1  O   LIG A   1      -8.176   3.987 127.074  0.00  0.00    -0.251 OA
ATOM      2  C   LIG A   1      -8.453   4.697 128.036  0.00  0.00    +0.311 C 
ATOM      3  C   LIG A   1      -7.625   4.662 129.286  0.00  0.00    +0.161 C 
ATOM      4  C   LIG A   1      -8.357   5.019 130.592  0.00  0.00    +0.110 C 
ATOM      5  C   LIG A   1      -9.803   5.606 130.382  0.00  0.00    +0.043 C 
ATOM      6  C   LIG A   1     -10.835   4.450 130.269  0.00  0.00    +0.018 C 
ATOM      7  C   LIG A   1     -10.197   6.517 131.600  0.00  0.00    +0.014 C 
ATOM      8  C   LIG A   1      -9.587   6.049 132.935  0.00  0.00    +0.009 C 
ATOM      9  C   LIG A   1      -8.025   5.882 132.920  0.00  0.00    +0.026 C 
ATOM     10  C   LIG A   1      -7.476   4.493 133.457  0.00  0.00    +0.005 C 
ATOM     11  C   LIG A   1      -8.456   3.957 134.548  0.00  0.00    +0.014 C 
ATOM     12  C   LIG A   1      -7.367   3.542 132.232  0.00  0.00    +0.133 C 
ATOM     13  O   LIG A   1      -8.475   3.768 131.358  0.00  0.00    -0.364 OA
ATOM     14  C   LIG A   1      -7.216   2.094 132.651  0.00  0.00    +0.106 C 
ATOM     15  C   LIG A   1      -5.942   1.967 133.459  0.00  0.00    +0.136 C 
ATOM     16  C   LIG A   1      -5.577   3.060 134.463  0.00  0.00    +0.079 C 
ATOM     17  C   LIG A   1      -6.030   4.511 134.111  0.00  0.00    +0.016 C 
ATOM     18  O   LIG A   1      -5.274   0.931 133.410  0.00  0.00    -0.297 OA
ATOM     19  C   LIG A   1      -7.613   6.050 131.468  0.00  0.00    -0.040 C 
ATOM     20  C   LIG A   1      -6.825   7.058 131.056  0.00  0.00    +0.011 C 
ATOM     21  C   LIG A   1      -9.757   6.451 129.078  0.00  0.00    +0.218 C 
ATOM     22  O   LIG A   1      -9.448   5.599 127.960  0.00  0.00    -0.456 OA
ENDROOT
BRANCH  21  23
ATOM     23  C   LIG A   1     -11.008   7.239 128.768  0.00  0.00    +0.031 A 
ATOM     24  C   LIG A   1     -11.124   8.605 128.574  0.00  0.00    +0.202 A 
ATOM     25  O   LIG A   1     -12.404   8.954 128.289  0.00  0.00    -0.471 OA
ATOM     26  C   LIG A   1     -13.130   7.809 128.275  0.00  0.00    +0.195 A 
ATOM     27  C   LIG A   1     -12.325   6.731 128.552  0.00  0.00    +0.048 A 
ENDBRANCH  21  23
BRANCH  17  28
ATOM     28  C   LIG A   1      -4.938   5.240 133.289  0.00  0.00    +0.125 C 
BRANCH  28  29
ATOM     29  C   LIG A   1      -4.211   6.329 134.065  0.00  0.00    +0.307 C 
ATOM     30  O   LIG A   1      -4.591   6.788 135.127  0.00  0.00    -0.251 OA
BRANCH  29  31
ATOM     31  O   LIG A   1      -3.073   6.682 133.401  0.00  0.00    -0.468 OA
ATOM     32  C   LIG A   1      -3.269   7.479 132.230  0.00  0.00    +0.280 C 
ENDBRANCH  29  31
ENDBRANCH  28  29
ENDBRANCH  17  28
TORSDOF 4
ENDMDL
MODEL 2
REMARK VINA RESULT:      -8.1      5.638      8.668
REMARK  Name = NuBBE_1144
REMARK  7 active torsions:
REMARK  status: ('A' for Active; 'I' for Inactive)
REMARK    1  A    between atoms: C_5  and  C_6
REMARK    2  A    between atoms: C_10  and  C_11
REMARK    3  A    between atoms: C_17  and  C_18
REMARK    4  A    between atoms: C_18  and  C_19
REMARK    5  A    between atoms: C_19  and  O_20
REMARK    6  A    between atoms: O_20  and  C_21
REMARK    7  A    between atoms: C_26  and  C_28
REMARK                            x       y       z     vdW  Elec       q    Type
REMARK                         _______ _______ _______ _____ _____    ______ ____
ROOT
ATOM      1  O   LIG A   1      -8.645   4.661 125.478  0.00  0.00    -0.251 OA
ATOM      2  C   LIG A   1      -7.936   3.984 126.216  0.00  0.00    +0.311 C 
ATOM      3  C   LIG A   1      -7.530   2.591 125.833  0.00  0.00    +0.161 C 
ATOM      4  C   LIG A   1      -7.248   1.625 126.997  0.00  0.00    +0.110 C 
ATOM      5  C   LIG A   1      -7.190   2.315 128.411  0.00  0.00    +0.043 C 
ATOM      6  C   LIG A   1      -8.619   2.420 129.010  0.00  0.00    +0.018 C 
ATOM      7  C   LIG A   1      -6.293   1.472 129.387  0.00  0.00    +0.014 C 
ATOM      8  C   LIG A   1      -6.352  -0.042 129.114  0.00  0.00    +0.009 C 
ATOM      9  C   LIG A   1      -6.011  -0.457 127.637  0.00  0.00    +0.026 C 
ATOM     10  C   LIG A   1      -7.062  -1.412 126.929  0.00  0.00    +0.005 C 
ATOM     11  C   LIG A   1      -7.727  -2.315 128.016  0.00  0.00    +0.014 C 
ATOM     12  C   LIG A   1      -8.088  -0.499 126.200  0.00  0.00    +0.133 C 
ATOM     13  O   LIG A   1      -8.353   0.652 127.006  0.00  0.00    -0.364 OA
ATOM     14  C   LIG A   1      -9.340  -1.257 125.805  0.00  0.00    +0.106 C 
ATOM     15  C   LIG A   1      -8.938  -2.366 124.854  0.00  0.00    +0.136 C 
ATOM     16  C   LIG A   1      -7.658  -3.156 125.119  0.00  0.00    +0.079 C 
ATOM     17  C   LIG A   1      -6.492  -2.386 125.813  0.00  0.00    +0.016 C 
ATOM     18  O   LIG A   1      -9.703  -2.718 123.952  0.00  0.00    -0.297 OA
ATOM     19  C   LIG A   1      -5.923   0.846 126.861  0.00  0.00    -0.040 C 
ATOM     20  C   LIG A   1      -4.783   1.262 126.284  0.00  0.00    +0.011 C 
ATOM     21  C   LIG A   1      -6.564   3.722 128.194  0.00  0.00    +0.218 C 
ATOM     22  O   LIG A   1      -7.420   4.507 127.343  0.00  0.00    -0.456 OA
ENDROOT
BRANCH  21  23
ATOM     23  C   LIG A   1      -6.270   4.504 129.453  0.00  0.00    +0.031 A 
ATOM     24  C   LIG A   1      -5.031   4.810 129.991  0.00  0.00    +0.202 A 
ATOM     25  O   LIG A   1      -5.156   5.552 131.120  0.00  0.00    -0.471 OA
ATOM     26  C   LIG A   1      -6.482   5.753 131.316  0.00  0.00    +0.195 A 
ATOM     27  C   LIG A   1      -7.207   5.142 130.321  0.00  0.00    +0.048 A 
ENDBRANCH  21  23
BRANCH  17  28
ATOM     28  C   LIG A   1      -5.574  -1.721 124.758  0.00  0.00    +0.125 C 
BRANCH  28  29
ATOM     29  C   LIG A   1      -5.189  -2.644 123.610  0.00  0.00    +0.307 C 
ATOM     30  O   LIG A   1      -5.595  -2.528 122.468  0.00  0.00    -0.251 OA
BRANCH  29  31
ATOM     31  O   LIG A   1      -4.312  -3.588 124.057  0.00  0.00    -0.468 OA
ATOM     32  C   LIG A   1      -4.464  -4.887 123.480  0.00  0.00    +0.280 C 
ENDBRANCH  29  31
ENDBRANCH  28  29
ENDBRANCH  17  28
TORSDOF 4
ENDMDL
MODEL 3
REMARK VINA RESULT:      -8.1      5.530      8.035
REMARK  Name = NuBBE_1144
REMARK  7 active torsions:
REMARK  status: ('A' for Active; 'I' for Inactive)
REMARK    1  A    between atoms: C_5  and  C_6
REMARK    2  A    between atoms: C_10  and  C_11
REMARK    3  A    between atoms: C_17  and  C_18
REMARK    4  A    between atoms: C_18  and  C_19
REMARK    5  A    between atoms: C_19  and  O_20
REMARK    6  A    between atoms: O_20  and  C_21
REMARK    7  A    between atoms: C_26  and  C_28
REMARK                            x       y       z     vdW  Elec       q    Type
REMARK                         _______ _______ _______ _____ _____    ______ ____
ROOT
ATOM      1  O   LIG A   1     -11.377   1.214 124.136  0.00  0.00    -0.251 OA
ATOM      2  C   LIG A   1     -10.154   1.313 124.163  0.00  0.00    +0.311 C 
ATOM      3  C   LIG A   1      -9.351   0.666 125.253  0.00  0.00    +0.161 C 
ATOM      4  C   LIG A   1      -8.013   1.342 125.599  0.00  0.00    +0.110 C 
ATOM      5  C   LIG A   1      -7.576   2.466 124.587  0.00  0.00    +0.043 C 
ATOM      6  C   LIG A   1      -8.220   3.822 124.989  0.00  0.00    +0.018 C 
ATOM      7  C   LIG A   1      -6.014   2.626 124.599  0.00  0.00    +0.014 C 
ATOM      8  C   LIG A   1      -5.382   2.342 125.974  0.00  0.00    +0.009 C 
ATOM      9  C   LIG A   1      -5.746   0.942 126.588  0.00  0.00    +0.026 C 
ATOM     10  C   LIG A   1      -6.289   0.964 128.079  0.00  0.00    +0.005 C 
ATOM     11  C   LIG A   1      -5.633   2.164 128.832  0.00  0.00    +0.014 C 
ATOM     12  C   LIG A   1      -7.838   1.083 127.998  0.00  0.00    +0.133 C 
ATOM     13  O   LIG A   1      -8.189   1.959 126.924  0.00  0.00    -0.364 OA
ATOM     14  C   LIG A   1      -8.445   1.487 129.326  0.00  0.00    +0.106 C 
ATOM     15  C   LIG A   1      -8.109   0.416 130.343  0.00  0.00    +0.136 C 
ATOM     16  C   LIG A   1      -6.717  -0.216 130.337  0.00  0.00    +0.079 C 
ATOM     17  C   LIG A   1      -6.009  -0.332 128.952  0.00  0.00    +0.016 C 
ATOM     18  O   LIG A   1      -8.900   0.150 131.252  0.00  0.00    -0.297 OA
ATOM     19  C   LIG A   1      -6.818   0.368 125.678  0.00  0.00    -0.040 C 
ATOM     20  C   LIG A   1      -6.629  -0.756 124.966  0.00  0.00    +0.011 C 
ATOM     21  C   LIG A   1      -8.054   2.010 123.180  0.00  0.00    +0.218 C 
ATOM     22  O   LIG A   1      -9.491   1.919 123.162  0.00  0.00    -0.456 OA
ENDROOT
BRANCH  21  23
ATOM     23  C   LIG A   1      -7.601   2.874 122.026  0.00  0.00    +0.031 A 
ATOM     24  C   LIG A   1      -8.390   3.594 121.145  0.00  0.00    +0.202 A 
ATOM     25  O   LIG A   1      -7.631   4.275 120.250  0.00  0.00    -0.471 OA
ATOM     26  C   LIG A   1      -6.335   4.018 120.556  0.00  0.00    +0.195 A 
ATOM     27  C   LIG A   1      -6.261   3.175 121.638  0.00  0.00    +0.048 A 
ENDBRANCH  21  23
BRANCH  17  28
ATOM     28  C   LIG A   1      -6.357  -1.679 128.272  0.00  0.00    +0.125 C 
BRANCH  28  29
ATOM     29  C   LIG A   1      -6.041  -2.897 129.127  0.00  0.00    +0.307 C 
ATOM     30  O   LIG A   1      -4.917  -3.252 129.433  0.00  0.00    -0.251 OA
BRANCH  29  31
ATOM     31  O   LIG A   1      -7.203  -3.501 129.510  0.00  0.00    -0.468 OA
ATOM     32  C   LIG A   1      -8.319  -3.288 128.641  0.00  0.00    +0.280 C 
ENDBRANCH  29  31
ENDBRANCH  28  29
ENDBRANCH  17  28
TORSDOF 4
ENDMDL
MODEL 4
REMARK VINA RESULT:      -8.0      6.576      8.432
REMARK  Name = NuBBE_1144
REMARK  7 active torsions:
REMARK  status: ('A' for Active; 'I' for Inactive)
REMARK    1  A    between atoms: C_5  and  C_6
REMARK    2  A    between atoms: C_10  and  C_11
REMARK    3  A    between atoms: C_17  and  C_18
REMARK    4  A    between atoms: C_18  and  C_19
REMARK    5  A    between atoms: C_19  and  O_20
REMARK    6  A    between atoms: O_20  and  C_21
REMARK    7  A    between atoms: C_26  and  C_28
REMARK                            x       y       z     vdW  Elec       q    Type
REMARK                         _______ _______ _______ _____ _____    ______ ____
ROOT
ATOM      1  O   LIG A   1      -4.524   1.922 128.301  0.00  0.00    -0.251 OA
ATOM      2  C   LIG A   1      -5.411   1.074 128.332  0.00  0.00    +0.311 C 
ATOM      3  C   LIG A   1      -5.588   0.185 129.527  0.00  0.00    +0.161 C 
ATOM      4  C   LIG A   1      -6.208  -1.197 129.256  0.00  0.00    +0.110 C 
ATOM      5  C   LIG A   1      -6.789  -1.370 127.802  0.00  0.00    +0.043 C 
ATOM      6  C   LIG A   1      -5.664  -1.825 126.831  0.00  0.00    +0.018 C 
ATOM      7  C   LIG A   1      -7.926  -2.454 127.801  0.00  0.00    +0.014 C 
ATOM      8  C   LIG A   1      -7.700  -3.576 128.832  0.00  0.00    +0.009 C 
ATOM      9  C   LIG A   1      -7.485  -3.078 130.308  0.00  0.00    +0.026 C 
ATOM     10  C   LIG A   1      -6.208  -3.655 131.050  0.00  0.00    +0.005 C 
ATOM     11  C   LIG A   1      -5.918  -5.089 130.504  0.00  0.00    +0.014 C 
ATOM     12  C   LIG A   1      -5.039  -2.665 130.782  0.00  0.00    +0.133 C 
ATOM     13  O   LIG A   1      -5.129  -2.181 129.440  0.00  0.00    -0.364 OA
ATOM     14  C   LIG A   1      -3.692  -3.276 131.111  0.00  0.00    +0.106 C 
ATOM     15  C   LIG A   1      -3.682  -3.627 132.585  0.00  0.00    +0.136 C 
ATOM     16  C   LIG A   1      -4.933  -4.228 133.223  0.00  0.00    +0.079 C 
ATOM     17  C   LIG A   1      -6.304  -3.779 132.629  0.00  0.00    +0.016 C 
ATOM     18  O   LIG A   1      -2.635  -3.556 133.234  0.00  0.00    -0.297 OA
ATOM     19  C   LIG A   1      -7.363  -1.567 130.210  0.00  0.00    -0.040 C 
ATOM     20  C   LIG A   1      -8.250  -0.736 130.784  0.00  0.00    +0.011 C 
ATOM     21  C   LIG A   1      -7.370   0.011 127.386  0.00  0.00    +0.218 C 
ATOM     22  O   LIG A   1      -6.312   0.986 127.337  0.00  0.00    -0.456 OA
ENDROOT
BRANCH  21  23
ATOM     23  C   LIG A   1      -8.122   0.033 126.076  0.00  0.00    +0.031 A 
ATOM     24  C   LIG A   1      -9.486   0.175 125.884  0.00  0.00    +0.202 A 
ATOM     25  O   LIG A   1      -9.799   0.174 124.564  0.00  0.00    -0.471 OA
ATOM     26  C   LIG A   1      -8.633   0.050 123.883  0.00  0.00    +0.195 A 
ATOM     27  C   LIG A   1      -7.578  -0.032 124.758  0.00  0.00    +0.048 A 
ENDBRANCH  21  23
BRANCH  17  28
ATOM     28  C   LIG A   1      -6.831  -2.520 133.363  0.00  0.00    +0.125 C 
BRANCH  28  29
ATOM     29  C   LIG A   1      -7.607  -2.831 134.635  0.00  0.00    +0.307 C 
ATOM     30  O   LIG A   1      -7.517  -2.195 135.669  0.00  0.00    -0.251 OA
BRANCH  29  31
ATOM     31  O   LIG A   1      -8.424  -3.903 134.422  0.00  0.00    -0.468 OA
ATOM     32  C   LIG A   1      -8.631  -4.749 135.555  0.00  0.00    +0.280 C 
ENDBRANCH  29  31
ENDBRANCH  28  29
ENDBRANCH  17  28
TORSDOF 4
ENDMDL
MODEL 5
REMARK VINA RESULT:      -7.9      6.204     10.555
REMARK  Name = NuBBE_1144
REMARK  7 active torsions:
REMARK  status: ('A' for Active; 'I' for Inactive)
REMARK    1  A    between atoms: C_5  and  C_6
REMARK    2  A    between atoms: C_10  and  C_11
REMARK    3  A    between atoms: C_17  and  C_18
REMARK    4  A    between atoms: C_18  and  C_19
REMARK    5  A    between atoms: C_19  and  O_20
REMARK    6  A    between atoms: O_20  and  C_21
REMARK    7  A    between atoms: C_26  and  C_28
REMARK                            x       y       z     vdW  Elec       q    Type
REMARK                         _______ _______ _______ _____ _____    ______ ____
ROOT
ATOM      1  O   LIG A   1      -5.196   1.446 130.923  0.00  0.00    -0.251 OA
ATOM      2  C   LIG A   1      -5.582   0.338 130.565  0.00  0.00    +0.311 C 
ATOM      3  C   LIG A   1      -5.734   0.005 129.109  0.00  0.00    +0.161 C 
ATOM      4  C   LIG A   1      -6.788  -1.061 128.765  0.00  0.00    +0.110 C 
ATOM      5  C   LIG A   1      -7.374  -1.818 130.016  0.00  0.00    +0.043 C 
ATOM      6  C   LIG A   1      -8.563  -1.017 130.614  0.00  0.00    +0.018 C 
ATOM      7  C   LIG A   1      -7.885  -3.242 129.594  0.00  0.00    +0.014 C 
ATOM      8  C   LIG A   1      -8.439  -3.290 128.158  0.00  0.00    +0.009 C 
ATOM      9  C   LIG A   1      -7.450  -2.767 127.054  0.00  0.00    +0.026 C 
ATOM     10  C   LIG A   1      -8.040  -1.680 126.061  0.00  0.00    +0.005 C 
ATOM     11  C   LIG A   1      -9.569  -1.939 125.887  0.00  0.00    +0.014 C 
ATOM     12  C   LIG A   1      -7.736  -0.285 126.679  0.00  0.00    +0.133 C 
ATOM     13  O   LIG A   1      -7.893  -0.354 128.098  0.00  0.00    -0.364 OA
ATOM     14  C   LIG A   1      -8.559   0.812 126.035  0.00  0.00    +0.106 C 
ATOM     15  C   LIG A   1      -8.205   0.863 124.563  0.00  0.00    +0.136 C 
ATOM     16  C   LIG A   1      -7.995  -0.441 123.794  0.00  0.00    +0.079 C 
ATOM     17  C   LIG A   1      -7.414  -1.642 124.603  0.00  0.00    +0.016 C 
ATOM     18  O   LIG A   1      -8.218   1.937 123.957  0.00  0.00    -0.297 OA
ATOM     19  C   LIG A   1      -6.280  -2.164 127.813  0.00  0.00    -0.040 C 
ATOM     20  C   LIG A   1      -5.035  -2.661 127.726  0.00  0.00    +0.011 C 
ATOM     21  C   LIG A   1      -6.211  -1.952 131.040  0.00  0.00    +0.218 C 
ATOM     22  O   LIG A   1      -5.785  -0.643 131.463  0.00  0.00    -0.456 OA
ENDROOT
BRANCH  21  23
ATOM     23  C   LIG A   1      -6.512  -2.790 132.261  0.00  0.00    +0.031 A 
ATOM     24  C   LIG A   1      -5.989  -4.030 132.587  0.00  0.00    +0.202 A 
ATOM     25  O   LIG A   1      -6.473  -4.469 133.777  0.00  0.00    -0.471 OA
ATOM     26  C   LIG A   1      -7.303  -3.505 134.245  0.00  0.00    +0.195 A 
ATOM     27  C   LIG A   1      -7.356  -2.454 133.362  0.00  0.00    +0.048 A 
ENDBRANCH  21  23
BRANCH  17  28
ATOM     28  C   LIG A   1      -5.866  -1.643 124.544  0.00  0.00    +0.125 C 
BRANCH  28  29
ATOM     29  C   LIG A   1      -5.288  -2.700 123.615  0.00  0.00    +0.307 C 
ATOM     30  O   LIG A   1      -5.263  -2.610 122.400  0.00  0.00    -0.251 OA
BRANCH  29  31
ATOM     31  O   LIG A   1      -4.788  -3.734 124.352  0.00  0.00    -0.468 OA
ATOM     32  C   LIG A   1      -4.185  -4.788 123.597  0.00  0.00    +0.280 C 
ENDBRANCH  29  31
ENDBRANCH  28  29
ENDBRANCH  17  28
TORSDOF 4
ENDMDL
MODEL 6
REMARK VINA RESULT:      -7.8      6.364     10.069
REMARK  Name = NuBBE_1144
REMARK  7 active torsions:
REMARK  status: ('A' for Active; 'I' for Inactive)
REMARK    1  A    between atoms: C_5  and  C_6
REMARK    2  A    between atoms: C_10  and  C_11
REMARK    3  A    between atoms: C_17  and  C_18
REMARK    4  A    between atoms: C_18  and  C_19
REMARK    5  A    between atoms: C_19  and  O_20
REMARK    6  A    between atoms: O_20  and  C_21
REMARK    7  A    between atoms: C_26  and  C_28
REMARK                            x       y       z     vdW  Elec       q    Type
REMARK                         _______ _______ _______ _____ _____    ______ ____
ROOT
ATOM      1  O   LIG A   1      -9.011  -0.288 131.426  0.00  0.00    -0.251 OA
ATOM      2  C   LIG A   1      -8.041  -0.590 130.737  0.00  0.00    +0.311 C 
ATOM      3  C   LIG A   1      -7.820   0.041 129.394  0.00  0.00    +0.161 C 
ATOM      4  C   LIG A   1      -7.046  -0.805 128.368  0.00  0.00    +0.110 C 
ATOM      5  C   LIG A   1      -6.390  -2.105 128.968  0.00  0.00    +0.043 C 
ATOM      6  C   LIG A   1      -7.417  -3.270 128.964  0.00  0.00    +0.018 C 
ATOM      7  C   LIG A   1      -5.144  -2.527 128.107  0.00  0.00    +0.014 C 
ATOM      8  C   LIG A   1      -5.293  -2.186 126.613  0.00  0.00    +0.009 C 
ATOM      9  C   LIG A   1      -5.621  -0.679 126.312  0.00  0.00    +0.026 C 
ATOM     10  C   LIG A   1      -6.860  -0.422 125.355  0.00  0.00    +0.005 C 
ATOM     11  C   LIG A   1      -6.972  -1.614 124.352  0.00  0.00    +0.014 C 
ATOM     12  C   LIG A   1      -8.116  -0.284 126.262  0.00  0.00    +0.133 C 
ATOM     13  O   LIG A   1      -8.021  -1.214 127.344  0.00  0.00    -0.364 OA
ATOM     14  C   LIG A   1      -9.403  -0.410 125.472  0.00  0.00    +0.106 C 
ATOM     15  C   LIG A   1      -9.437   0.706 124.448  0.00  0.00    +0.136 C 
ATOM     16  C   LIG A   1      -8.157   1.085 123.706  0.00  0.00    +0.079 C 
ATOM     17  C   LIG A   1      -6.818   0.905 124.485  0.00  0.00    +0.016 C 
ATOM     18  O   LIG A   1     -10.512   1.213 124.118  0.00  0.00    -0.297 OA
ATOM     19  C   LIG A   1      -5.900  -0.048 127.665  0.00  0.00    -0.040 C 
ATOM     20  C   LIG A   1      -5.131   0.930 128.174  0.00  0.00    +0.011 C 
ATOM     21  C   LIG A   1      -5.942  -1.752 130.415  0.00  0.00    +0.218 C 
ATOM     22  O   LIG A   1      -7.095  -1.420 131.210  0.00  0.00    -0.456 OA
ENDROOT
BRANCH  21  23
ATOM     23  C   LIG A   1      -5.141  -2.818 131.126  0.00  0.00    +0.031 A 
ATOM     24  C   LIG A   1      -3.772  -2.853 131.334  0.00  0.00    +0.202 A 
ATOM     25  O   LIG A   1      -3.411  -3.956 132.037  0.00  0.00    -0.471 OA
ATOM     26  C   LIG A   1      -4.549  -4.640 132.311  0.00  0.00    +0.195 A 
ATOM     27  C   LIG A   1      -5.636  -3.984 131.785  0.00  0.00    +0.048 A 
ENDBRANCH  21  23
BRANCH  17  28
ATOM     28  C   LIG A   1      -6.460   2.196 125.261  0.00  0.00    +0.125 C 
BRANCH  28  29
ATOM     29  C   LIG A   1      -6.793   3.476 124.508  0.00  0.00    +0.307 C 
ATOM     30  O   LIG A   1      -7.837   4.093 124.626  0.00  0.00    -0.251 OA
BRANCH  29  31
ATOM     31  O   LIG A   1      -5.741   3.827 123.714  0.00  0.00    -0.468 OA
ATOM     32  C   LIG A   1      -6.011   3.838 122.310  0.00  0.00    +0.280 C 
ENDBRANCH  29  31
ENDBRANCH  28  29
ENDBRANCH  17  28
TORSDOF 4
ENDMDL
MODEL 7
REMARK VINA RESULT:      -7.7      6.040      9.421
REMARK  Name = NuBBE_1144
REMARK  7 active torsions:
REMARK  status: ('A' for Active; 'I' for Inactive)
REMARK    1  A    between atoms: C_5  and  C_6
REMARK    2  A    between atoms: C_10  and  C_11
REMARK    3  A    between atoms: C_17  and  C_18
REMARK    4  A    between atoms: C_18  and  C_19
REMARK    5  A    between atoms: C_19  and  O_20
REMARK    6  A    between atoms: O_20  and  C_21
REMARK    7  A    between atoms: C_26  and  C_28
REMARK                            x       y       z     vdW  Elec       q    Type
REMARK                         _______ _______ _______ _____ _____    ______ ____
ROOT
ATOM      1  O   LIG A   1      -9.514   0.030 131.893  0.00  0.00    -0.251 OA
ATOM      2  C   LIG A   1      -8.508  -0.382 131.324  0.00  0.00    +0.311 C 
ATOM      3  C   LIG A   1      -7.970   0.311 130.107  0.00  0.00    +0.161 C 
ATOM      4  C   LIG A   1      -7.189  -0.569 129.116  0.00  0.00    +0.110 C 
ATOM      5  C   LIG A   1      -6.863  -2.013 129.654  0.00  0.00    +0.043 C 
ATOM      6  C   LIG A   1      -8.054  -2.968 129.368  0.00  0.00    +0.018 C 
ATOM      7  C   LIG A   1      -5.581  -2.576 128.942  0.00  0.00    +0.014 C 
ATOM      8  C   LIG A   1      -5.425  -2.088 127.490  0.00  0.00    +0.009 C 
ATOM      9  C   LIG A   1      -5.447  -0.526 127.316  0.00  0.00    +0.026 C 
ATOM     10  C   LIG A   1      -6.454   0.032 126.224  0.00  0.00    +0.005 C 
ATOM     11  C   LIG A   1      -6.596  -1.029 125.088  0.00  0.00    +0.014 C 
ATOM     12  C   LIG A   1      -7.800   0.316 126.950  0.00  0.00    +0.133 C 
ATOM     13  O   LIG A   1      -8.038  -0.705 127.922  0.00  0.00    -0.364 OA
ATOM     14  C   LIG A   1      -8.944   0.493 125.971  0.00  0.00    +0.106 C 
ATOM     15  C   LIG A   1      -8.627   1.681 125.086  0.00  0.00    +0.136 C 
ATOM     16  C   LIG A   1      -7.198   1.885 124.585  0.00  0.00    +0.079 C 
ATOM     17  C   LIG A   1      -6.052   1.399 125.526  0.00  0.00    +0.016 C 
ATOM     18  O   LIG A   1      -9.535   2.401 124.663  0.00  0.00    -0.297 OA
ATOM     19  C   LIG A   1      -5.835   0.026 128.678  0.00  0.00    -0.040 C 
ATOM     20  C   LIG A   1      -5.008   0.802 129.400  0.00  0.00    +0.011 C 
ATOM     21  C   LIG A   1      -6.605  -1.872 131.181  0.00  0.00    +0.218 C 
ATOM     22  O   LIG A   1      -7.801  -1.407 131.833  0.00  0.00    -0.456 OA
ENDROOT
BRANCH  21  23
ATOM     23  C   LIG A   1      -6.118  -3.122 131.876  0.00  0.00    +0.031 A 
ATOM     24  C   LIG A   1      -6.750  -3.832 132.884  0.00  0.00    +0.202 A 
ATOM     25  O   LIG A   1      -6.024  -4.920 133.247  0.00  0.00    -0.471 OA
ATOM     26  C   LIG A   1      -4.919  -4.936 132.462  0.00  0.00    +0.195 A 
ATOM     27  C   LIG A   1      -4.931  -3.866 131.601  0.00  0.00    +0.048 A 
ENDBRANCH  21  23
BRANCH  17  28
ATOM     28  C   LIG A   1      -5.618   2.533 126.487  0.00  0.00    +0.125 C 
BRANCH  28  29
ATOM     29  C   LIG A   1      -4.296   3.186 126.107  0.00  0.00    +0.307 C 
ATOM     30  O   LIG A   1      -4.187   4.120 125.333  0.00  0.00    -0.251 OA
BRANCH  29  31
ATOM     31  O   LIG A   1      -3.276   2.583 126.783  0.00  0.00    -0.468 OA
ATOM     32  C   LIG A   1      -1.965   3.050 126.457  0.00  0.00    +0.280 C 
ENDBRANCH  29  31
ENDBRANCH  28  29
ENDBRANCH  17  28
TORSDOF 4
ENDMDL
MODEL 8
REMARK VINA RESULT:      -7.7      2.306      3.894
REMARK  Name = NuBBE_1144
REMARK  7 active torsions:
REMARK  status: ('A' for Active; 'I' for Inactive)
REMARK    1  A    between atoms: C_5  and  C_6
REMARK    2  A    between atoms: C_10  and  C_11
REMARK    3  A    between atoms: C_17  and  C_18
REMARK    4  A    between atoms: C_18  and  C_19
REMARK    5  A    between atoms: C_19  and  O_20
REMARK    6  A    between atoms: O_20  and  C_21
REMARK    7  A    between atoms: C_26  and  C_28
REMARK                            x       y       z     vdW  Elec       q    Type
REMARK                         _______ _______ _______ _____ _____    ______ ____
ROOT
ATOM      1  O   LIG A   1      -6.366   7.411 130.731  0.00  0.00    -0.251 OA
ATOM      2  C   LIG A   1      -7.254   6.639 131.079  0.00  0.00    +0.311 C 
ATOM      3  C   LIG A   1      -6.928   5.311 131.695  0.00  0.00    +0.161 C 
ATOM      4  C   LIG A   1      -7.967   4.196 131.489  0.00  0.00    +0.110 C 
ATOM      5  C   LIG A   1      -9.330   4.689 130.872  0.00  0.00    +0.043 C 
ATOM      6  C   LIG A   1      -9.234   4.712 129.322  0.00  0.00    +0.018 C 
ATOM      7  C   LIG A   1     -10.494   3.720 131.292  0.00  0.00    +0.014 C 
ATOM      8  C   LIG A   1     -10.041   2.257 131.452  0.00  0.00    +0.009 C 
ATOM      9  C   LIG A   1      -8.835   2.046 132.437  0.00  0.00    +0.026 C 
ATOM     10  C   LIG A   1      -7.622   1.196 131.868  0.00  0.00    +0.005 C 
ATOM     11  C   LIG A   1      -8.178   0.155 130.846  0.00  0.00    +0.014 C 
ATOM     12  C   LIG A   1      -6.628   2.200 131.219  0.00  0.00    +0.133 C 
ATOM     13  O   LIG A   1      -7.363   3.231 130.556  0.00  0.00    -0.364 OA
ATOM     14  C   LIG A   1      -5.625   1.504 130.321  0.00  0.00    +0.106 C 
ATOM     15  C   LIG A   1      -4.828   0.534 131.168  0.00  0.00    +0.136 C 
ATOM     16  C   LIG A   1      -5.540  -0.286 132.243  0.00  0.00    +0.079 C 
ATOM     17  C   LIG A   1      -6.770   0.383 132.932  0.00  0.00    +0.016 C 
ATOM     18  O   LIG A   1      -3.644   0.307 130.906  0.00  0.00    -0.297 OA
ATOM     19  C   LIG A   1      -8.345   3.442 132.781  0.00  0.00    -0.040 C 
ATOM     20  C   LIG A   1      -8.395   3.932 134.032  0.00  0.00    +0.011 C 
ATOM     21  C   LIG A   1      -9.589   6.112 131.444  0.00  0.00    +0.218 C 
ATOM     22  O   LIG A   1      -8.547   7.005 131.009  0.00  0.00    -0.456 OA
ENDROOT
BRANCH  21  23
ATOM     23  C   LIG A   1     -10.931   6.716 131.102  0.00  0.00    +0.031 A 
ATOM     24  C   LIG A   1     -12.089   6.694 131.861  0.00  0.00    +0.202 A 
ATOM     25  O   LIG A   1     -13.094   7.364 131.243  0.00  0.00    -0.471 OA
ATOM     26  C   LIG A   1     -12.591   7.844 130.080  0.00  0.00    +0.195 A 
ATOM     27  C   LIG A   1     -11.271   7.485 129.948  0.00  0.00    +0.048 A 
ENDBRANCH  21  23
BRANCH  17  28
ATOM     28  C   LIG A   1      -6.327   1.184 134.181  0.00  0.00    +0.125 C 
BRANCH  28  29
ATOM     29  C   LIG A   1      -5.603   0.344 135.224  0.00  0.00    +0.307 C 
ATOM     30  O   LIG A   1      -6.120  -0.556 135.862  0.00  0.00    -0.251 OA
BRANCH  29  31
ATOM     31  O   LIG A   1      -4.300   0.739 135.306  0.00  0.00    -0.468 OA
ATOM     32  C   LIG A   1      -4.035   2.071 134.858  0.00  0.00    +0.280 C 
ENDBRANCH  29  31
ENDBRANCH  28  29
ENDBRANCH  17  28
TORSDOF 4
ENDMDL
MODEL 9
REMARK VINA RESULT:      -7.5      5.859     10.415
REMARK  Name = NuBBE_1144
REMARK  7 active torsions:
REMARK  status: ('A' for Active; 'I' for Inactive)
REMARK    1  A    between atoms: C_5  and  C_6
REMARK    2  A    between atoms: C_10  and  C_11
REMARK    3  A    between atoms: C_17  and  C_18
REMARK    4  A    between atoms: C_18  and  C_19
REMARK    5  A    between atoms: C_19  and  O_20
REMARK    6  A    between atoms: O_20  and  C_21
REMARK    7  A    between atoms: C_26  and  C_28
REMARK                            x       y       z     vdW  Elec       q    Type
REMARK                         _______ _______ _______ _____ _____    ______ ____
ROOT
ATOM      1  O   LIG A   1      -2.364  -3.673 129.174  0.00  0.00    -0.251 OA
ATOM      2  C   LIG A   1      -3.481  -3.471 129.641  0.00  0.00    +0.311 C 
ATOM      3  C   LIG A   1      -4.505  -2.682 128.881  0.00  0.00    +0.161 C 
ATOM      4  C   LIG A   1      -5.549  -1.935 129.729  0.00  0.00    +0.110 C 
ATOM      5  C   LIG A   1      -5.530  -2.314 131.258  0.00  0.00    +0.043 C 
ATOM      6  C   LIG A   1      -4.484  -1.444 132.008  0.00  0.00    +0.018 C 
ATOM      7  C   LIG A   1      -6.945  -2.063 131.893  0.00  0.00    +0.014 C 
ATOM      8  C   LIG A   1      -7.699  -0.880 131.256  0.00  0.00    +0.009 C 
ATOM      9  C   LIG A   1      -7.860  -0.968 129.695  0.00  0.00    +0.026 C 
ATOM     10  C   LIG A   1      -7.412   0.319 128.883  0.00  0.00    +0.005 C 
ATOM     11  C   LIG A   1      -7.655   1.580 129.771  0.00  0.00    +0.014 C 
ATOM     12  C   LIG A   1      -5.912   0.126 128.516  0.00  0.00    +0.133 C 
ATOM     13  O   LIG A   1      -5.236  -0.502 129.608  0.00  0.00    -0.364 OA
ATOM     14  C   LIG A   1      -5.266   1.423 128.074  0.00  0.00    +0.106 C 
ATOM     15  C   LIG A   1      -5.993   1.915 126.839  0.00  0.00    +0.136 C 
ATOM     16  C   LIG A   1      -7.515   1.793 126.764  0.00  0.00    +0.079 C 
ATOM     17  C   LIG A   1      -8.155   0.579 127.505  0.00  0.00    +0.016 C 
ATOM     18  O   LIG A   1      -5.382   2.529 125.961  0.00  0.00    -0.297 OA
ATOM     19  C   LIG A   1      -7.006  -2.149 129.266  0.00  0.00    -0.040 C 
ATOM     20  C   LIG A   1      -7.532  -3.247 128.698  0.00  0.00    +0.011 C 
ATOM     21  C   LIG A   1      -5.171  -3.825 131.338  0.00  0.00    +0.218 C 
ATOM     22  O   LIG A   1      -3.851  -4.037 130.804  0.00  0.00    -0.456 OA
ENDROOT
BRANCH  21  23
ATOM     23  C   LIG A   1      -5.250  -4.440 132.716  0.00  0.00    +0.031 A 
ATOM     24  C   LIG A   1      -4.204  -4.738 133.572  0.00  0.00    +0.202 A 
ATOM     25  O   LIG A   1      -4.659  -5.261 134.739  0.00  0.00    -0.471 OA
ATOM     26  C   LIG A   1      -6.012  -5.288 134.658  0.00  0.00    +0.195 A 
ATOM     27  C   LIG A   1      -6.425  -4.790 133.447  0.00  0.00    +0.048 A 
ENDBRANCH  21  23
BRANCH  17  28
ATOM     28  C   LIG A   1      -8.254  -0.646 126.562  0.00  0.00    +0.125 C 
BRANCH  28  29
ATOM     29  C   LIG A   1      -9.391  -0.554 125.554  0.00  0.00    +0.307 C 
ATOM     30  O   LIG A   1     -10.164   0.384 125.472  0.00  0.00    -0.251 OA
BRANCH  29  31
ATOM     31  O   LIG A   1      -9.387  -1.661 124.757  0.00  0.00    -0.468 OA
ATOM     32  C   LIG A   1      -9.386  -2.913 125.449  0.00  0.00    +0.280 C 
ENDBRANCH  29  31
ENDBRANCH  28  29
ENDBRANCH  17  28
TORSDOF 4
ENDMDL
