MODEL 1
REMARK VINA RESULT:      -5.7      0.000      0.000
REMARK  Name = NuBBE_134
REMARK  5 active torsions:
REMARK  status: ('A' for Active; 'I' for Inactive)
REMARK    1  A    between atoms: O_1  and  C_2
REMARK    2  A    between atoms: C_2  and  C_3
REMARK    3  A    between atoms: C_4  and  C_5
REMARK    4  A    between atoms: C_7  and  O_8
REMARK    5  A    between atoms: C_9  and  O_12
REMARK                            x       y       z     vdW  Elec       q    Type
REMARK                         _______ _______ _______ _____ _____    ______ ____
ROOT
ATOM      1  C   LIG A   1      -6.726   3.594 121.536  0.00  0.00    -0.021 A 
ATOM      2  C   LIG A   1      -5.574   4.365 121.760  0.00  0.00    +0.057 A 
ATOM      3  C   LIG A   1      -5.098   5.204 120.755  0.00  0.00    +0.159 A 
ATOM      4  C   LIG A   1      -5.763   5.290 119.536  0.00  0.00    +0.158 A 
ATOM      5  C   LIG A   1      -6.909   4.550 119.300  0.00  0.00    +0.050 A 
ATOM      6  C   LIG A   1      -7.395   3.708 120.304  0.00  0.00    +0.012 A 
ENDROOT
BRANCH   1   8
ATOM      7  C   LIG A   1      -8.512   2.646 122.980  0.00  0.00    +0.092 C 
ATOM      8  C   LIG A   1      -7.222   2.727 122.617  0.00  0.00    +0.015 C 
BRANCH   7   9
ATOM      9  C   LIG A   1      -8.908   1.736 124.072  0.00  0.00    +0.330 C 
ATOM     10  O   LIG A   1      -8.254   0.784 124.454  0.00  0.00    -0.246 OA
BRANCH   9  11
ATOM     11  O   LIG A   1     -10.102   2.078 124.599  0.00  0.00    -0.477 OA
ATOM     12  H   LIG A   1     -10.708   1.339 124.778  0.00  0.00    +0.295 HD
ENDBRANCH   9  11
ENDBRANCH   7   9
ENDBRANCH   1   8
BRANCH   3  13
ATOM     13  O   LIG A   1      -3.974   5.967 120.919  0.00  0.00    -0.503 OA
ATOM     14  H   LIG A   1      -3.375   5.792 120.173  0.00  0.00    +0.292 HD
ENDBRANCH   3  13
BRANCH   4  15
ATOM     15  O   LIG A   1      -5.292   6.116 118.556  0.00  0.00    -0.503 OA
ATOM     16  H   LIG A   1      -4.427   6.426 118.891  0.00  0.00    +0.292 HD
ENDBRANCH   4  15
TORSDOF 5
ENDMDL
MODEL 2
REMARK VINA RESULT:      -5.6      1.293      2.152
REMARK  Name = NuBBE_134
REMARK  5 active torsions:
REMARK  status: ('A' for Active; 'I' for Inactive)
REMARK    1  A    between atoms: O_1  and  C_2
REMARK    2  A    between atoms: C_2  and  C_3
REMARK    3  A    between atoms: C_4  and  C_5
REMARK    4  A    between atoms: C_7  and  O_8
REMARK    5  A    between atoms: C_9  and  O_12
REMARK                            x       y       z     vdW  Elec       q    Type
REMARK                         _______ _______ _______ _____ _____    ______ ____
ROOT
ATOM      1  C   LIG A   1      -7.405   3.289 122.138  0.00  0.00    -0.021 A 
ATOM      2  C   LIG A   1      -7.997   3.563 120.894  0.00  0.00    +0.057 A 
ATOM      3  C   LIG A   1      -7.261   4.212 119.906  0.00  0.00    +0.159 A 
ATOM      4  C   LIG A   1      -5.940   4.581 120.141  0.00  0.00    +0.158 A 
ATOM      5  C   LIG A   1      -5.332   4.307 121.354  0.00  0.00    +0.050 A 
ATOM      6  C   LIG A   1      -6.063   3.654 122.350  0.00  0.00    +0.012 A 
ENDROOT
BRANCH   1   8
ATOM      7  C   LIG A   1      -9.418   2.076 122.945  0.00  0.00    +0.092 C 
ATOM      8  C   LIG A   1      -8.196   2.587 123.162  0.00  0.00    +0.015 C 
BRANCH   7   9
ATOM      9  C   LIG A   1     -10.124   1.380 124.038  0.00  0.00    +0.330 C 
ATOM     10  O   LIG A   1      -9.584   0.896 125.016  0.00  0.00    -0.246 OA
BRANCH   9  11
ATOM     11  O   LIG A   1     -11.454   1.331 123.821  0.00  0.00    -0.477 OA
ATOM     12  H   LIG A   1     -12.009   1.681 124.540  0.00  0.00    +0.295 HD
ENDBRANCH   9  11
ENDBRANCH   7   9
ENDBRANCH   1   8
BRANCH   3  13
ATOM     13  O   LIG A   1      -7.794   4.512 118.683  0.00  0.00    -0.503 OA
ATOM     14  H   LIG A   1      -8.185   5.401 118.729  0.00  0.00    +0.292 HD
ENDBRANCH   3  13
BRANCH   4  15
ATOM     15  O   LIG A   1      -5.223   5.216 119.167  0.00  0.00    -0.503 OA
ATOM     16  H   LIG A   1      -5.643   6.095 119.087  0.00  0.00    +0.292 HD
ENDBRANCH   4  15
TORSDOF 5
ENDMDL
MODEL 3
REMARK VINA RESULT:      -5.6      9.645     10.870
REMARK  Name = NuBBE_134
REMARK  5 active torsions:
REMARK  status: ('A' for Active; 'I' for Inactive)
REMARK    1  A    between atoms: O_1  and  C_2
REMARK    2  A    between atoms: C_2  and  C_3
REMARK    3  A    between atoms: C_4  and  C_5
REMARK    4  A    between atoms: C_7  and  O_8
REMARK    5  A    between atoms: C_9  and  O_12
REMARK                            x       y       z     vdW  Elec       q    Type
REMARK                         _______ _______ _______ _____ _____    ______ ____
ROOT
ATOM      1  C   LIG A   1     -11.021   6.735 130.649  0.00  0.00    -0.021 A 
ATOM      2  C   LIG A   1     -10.458   7.293 129.490  0.00  0.00    +0.057 A 
ATOM      3  C   LIG A   1     -11.134   8.305 128.812  0.00  0.00    +0.159 A 
ATOM      4  C   LIG A   1     -12.357   8.773 129.283  0.00  0.00    +0.158 A 
ATOM      5  C   LIG A   1     -12.921   8.248 130.432  0.00  0.00    +0.050 A 
ATOM      6  C   LIG A   1     -12.249   7.234 131.120  0.00  0.00    +0.012 A 
ENDROOT
BRANCH   1   8
ATOM      7  C   LIG A   1      -9.801   5.810 132.606  0.00  0.00    +0.092 C 
ATOM      8  C   LIG A   1     -10.282   5.678 131.359  0.00  0.00    +0.015 C 
BRANCH   7   9
ATOM      9  C   LIG A   1      -9.082   4.684 133.233  0.00  0.00    +0.330 C 
ATOM     10  O   LIG A   1      -7.927   4.381 133.000  0.00  0.00    -0.246 OA
BRANCH   9  11
ATOM     11  O   LIG A   1      -9.867   4.013 134.100  0.00  0.00    -0.477 OA
ATOM     12  H   LIG A   1      -9.683   4.171 135.043  0.00  0.00    +0.295 HD
ENDBRANCH   9  11
ENDBRANCH   7   9
ENDBRANCH   1   8
BRANCH   3  13
ATOM     13  O   LIG A   1     -10.635   8.874 127.672  0.00  0.00    -0.503 OA
ATOM     14  H   LIG A   1     -10.981   9.780 127.606  0.00  0.00    +0.292 HD
ENDBRANCH   3  13
BRANCH   4  15
ATOM     15  O   LIG A   1     -13.013   9.767 128.615  0.00  0.00    -0.503 OA
ATOM     16  H   LIG A   1     -12.302  10.349 128.281  0.00  0.00    +0.292 HD
ENDBRANCH   4  15
TORSDOF 5
ENDMDL
MODEL 4
REMARK VINA RESULT:      -5.5     10.322     11.417
REMARK  Name = NuBBE_134
REMARK  5 active torsions:
REMARK  status: ('A' for Active; 'I' for Inactive)
REMARK    1  A    between atoms: O_1  and  C_2
REMARK    2  A    between atoms: C_2  and  C_3
REMARK    3  A    between atoms: C_4  and  C_5
REMARK    4  A    between atoms: C_7  and  O_8
REMARK    5  A    between atoms: C_9  and  O_12
REMARK                            x       y       z     vdW  Elec       q    Type
REMARK                         _______ _______ _______ _____ _____    ______ ____
ROOT
ATOM      1  C   LIG A   1     -10.729   6.963 130.662  0.00  0.00    -0.021 A 
ATOM      2  C   LIG A   1     -10.901   6.166 131.806  0.00  0.00    +0.057 A 
ATOM      3  C   LIG A   1      -9.786   5.689 132.489  0.00  0.00    +0.159 A 
ATOM      4  C   LIG A   1      -8.503   6.007 132.053  0.00  0.00    +0.158 A 
ATOM      5  C   LIG A   1      -8.312   6.803 130.937  0.00  0.00    +0.050 A 
ATOM      6  C   LIG A   1      -9.426   7.288 130.246  0.00  0.00    +0.012 A 
ENDROOT
BRANCH   1   8
ATOM      7  C   LIG A   1     -11.913   8.533 129.143  0.00  0.00    +0.092 C 
ATOM      8  C   LIG A   1     -11.922   7.471 129.964  0.00  0.00    +0.015 C 
BRANCH   7   9
ATOM      9  C   LIG A   1     -13.164   8.956 128.482  0.00  0.00    +0.330 C 
ATOM     10  O   LIG A   1     -13.886   8.225 127.832  0.00  0.00    -0.246 OA
BRANCH   9  11
ATOM     11  O   LIG A   1     -13.411  10.267 128.676  0.00  0.00    -0.477 OA
ATOM     12  H   LIG A   1     -13.564  10.789 127.868  0.00  0.00    +0.295 HD
ENDBRANCH   9  11
ENDBRANCH   7   9
ENDBRANCH   1   8
BRANCH   3  13
ATOM     13  O   LIG A   1      -9.898   4.901 133.602  0.00  0.00    -0.503 OA
ATOM     14  H   LIG A   1      -9.369   4.098 133.462  0.00  0.00    +0.292 HD
ENDBRANCH   3  13
BRANCH   4  15
ATOM     15  O   LIG A   1      -7.414   5.537 132.729  0.00  0.00    -0.503 OA
ATOM     16  H   LIG A   1      -7.632   4.606 132.929  0.00  0.00    +0.292 HD
ENDBRANCH   4  15
TORSDOF 5
ENDMDL
MODEL 5
REMARK VINA RESULT:      -5.4     10.019     11.106
REMARK  Name = NuBBE_134
REMARK  5 active torsions:
REMARK  status: ('A' for Active; 'I' for Inactive)
REMARK    1  A    between atoms: O_1  and  C_2
REMARK    2  A    between atoms: C_2  and  C_3
REMARK    3  A    between atoms: C_4  and  C_5
REMARK    4  A    between atoms: C_7  and  O_8
REMARK    5  A    between atoms: C_9  and  O_12
REMARK                            x       y       z     vdW  Elec       q    Type
REMARK                         _______ _______ _______ _____ _____    ______ ____
ROOT
ATOM      1  C   LIG A   1     -10.695   6.973 130.775  0.00  0.00    -0.021 A 
ATOM      2  C   LIG A   1      -9.417   7.260 130.269  0.00  0.00    +0.057 A 
ATOM      3  C   LIG A   1      -8.288   6.843 130.968  0.00  0.00    +0.159 A 
ATOM      4  C   LIG A   1      -8.418   6.135 132.159  0.00  0.00    +0.158 A 
ATOM      5  C   LIG A   1      -9.669   5.828 132.667  0.00  0.00    +0.050 A 
ATOM      6  C   LIG A   1     -10.807   6.241 131.970  0.00  0.00    +0.012 A 
ENDROOT
BRANCH   1   8
ATOM      7  C   LIG A   1     -11.898   8.492 129.218  0.00  0.00    +0.092 C 
ATOM      8  C   LIG A   1     -11.877   7.409 130.012  0.00  0.00    +0.015 C 
BRANCH   7   9
ATOM      9  C   LIG A   1     -13.132   8.837 128.487  0.00  0.00    +0.330 C 
ATOM     10  O   LIG A   1     -13.799   8.051 127.840  0.00  0.00    -0.246 OA
BRANCH   9  11
ATOM     11  O   LIG A   1     -13.435  10.145 128.610  0.00  0.00    -0.477 OA
ATOM     12  H   LIG A   1     -14.359  10.382 128.416  0.00  0.00    +0.295 HD
ENDBRANCH   9  11
ENDBRANCH   7   9
ENDBRANCH   1   8
BRANCH   3  13
ATOM     13  O   LIG A   1      -7.021   7.108 130.524  0.00  0.00    -0.503 OA
ATOM     14  H   LIG A   1      -7.051   7.908 129.973  0.00  0.00    +0.292 HD
ENDBRANCH   3  13
BRANCH   4  15
ATOM     15  O   LIG A   1      -7.306   5.727 132.838  0.00  0.00    -0.503 OA
ATOM     16  H   LIG A   1      -7.655   5.271 133.629  0.00  0.00    +0.292 HD
ENDBRANCH   4  15
TORSDOF 5
ENDMDL
MODEL 6
REMARK VINA RESULT:      -5.1      1.465      6.285
REMARK  Name = NuBBE_134
REMARK  5 active torsions:
REMARK  status: ('A' for Active; 'I' for Inactive)
REMARK    1  A    between atoms: O_1  and  C_2
REMARK    2  A    between atoms: C_2  and  C_3
REMARK    3  A    between atoms: C_4  and  C_5
REMARK    4  A    between atoms: C_7  and  O_8
REMARK    5  A    between atoms: C_9  and  O_12
REMARK                            x       y       z     vdW  Elec       q    Type
REMARK                         _______ _______ _______ _____ _____    ______ ____
ROOT
ATOM      1  C   LIG A   1      -8.583   2.916 122.262  0.00  0.00    -0.021 A 
ATOM      2  C   LIG A   1      -9.513   1.923 121.915  0.00  0.00    +0.057 A 
ATOM      3  C   LIG A   1     -10.086   1.135 122.910  0.00  0.00    +0.159 A 
ATOM      4  C   LIG A   1      -9.751   1.333 124.246  0.00  0.00    +0.158 A 
ATOM      5  C   LIG A   1      -8.847   2.317 124.611  0.00  0.00    +0.050 A 
ATOM      6  C   LIG A   1      -8.270   3.114 123.619  0.00  0.00    +0.012 A 
ENDROOT
BRANCH   1   8
ATOM      7  C   LIG A   1      -6.683   3.851 120.961  0.00  0.00    +0.092 C 
ATOM      8  C   LIG A   1      -8.001   3.748 121.196  0.00  0.00    +0.015 C 
BRANCH   7   9
ATOM      9  C   LIG A   1      -6.202   4.707 119.859  0.00  0.00    +0.330 C 
ATOM     10  O   LIG A   1      -6.697   4.753 118.749  0.00  0.00    -0.246 OA
BRANCH   9  11
ATOM     11  O   LIG A   1      -5.128   5.435 120.226  0.00  0.00    -0.477 OA
ATOM     12  H   LIG A   1      -4.269   4.983 120.148  0.00  0.00    +0.295 HD
ENDBRANCH   9  11
ENDBRANCH   7   9
ENDBRANCH   1   8
BRANCH   3  13
ATOM     13  O   LIG A   1     -10.988   0.147 122.624  0.00  0.00    -0.503 OA
ATOM     14  H   LIG A   1     -10.935  -0.050 121.673  0.00  0.00    +0.292 HD
ENDBRANCH   3  13
BRANCH   4  15
ATOM     15  O   LIG A   1     -10.318   0.559 125.216  0.00  0.00    -0.503 OA
ATOM     16  H   LIG A   1      -9.741   0.681 125.996  0.00  0.00    +0.292 HD
ENDBRANCH   4  15
TORSDOF 5
ENDMDL
MODEL 7
REMARK VINA RESULT:      -5.1      9.989     11.633
REMARK  Name = NuBBE_134
REMARK  5 active torsions:
REMARK  status: ('A' for Active; 'I' for Inactive)
REMARK    1  A    between atoms: O_1  and  C_2
REMARK    2  A    between atoms: C_2  and  C_3
REMARK    3  A    between atoms: C_4  and  C_5
REMARK    4  A    between atoms: C_7  and  O_8
REMARK    5  A    between atoms: C_9  and  O_12
REMARK                            x       y       z     vdW  Elec       q    Type
REMARK                         _______ _______ _______ _____ _____    ______ ____
ROOT
ATOM      1  C   LIG A   1      -7.973   6.732 131.235  0.00  0.00    -0.021 A 
ATOM      2  C   LIG A   1      -8.331   5.902 132.310  0.00  0.00    +0.057 A 
ATOM      3  C   LIG A   1      -9.675   5.624 132.549  0.00  0.00    +0.159 A 
ATOM      4  C   LIG A   1     -10.662   6.154 131.724  0.00  0.00    +0.158 A 
ATOM      5  C   LIG A   1     -10.329   6.962 130.650  0.00  0.00    +0.050 A 
ATOM      6  C   LIG A   1      -8.983   7.244 130.401  0.00  0.00    +0.012 A 
ENDROOT
BRANCH   1   8
ATOM      7  C   LIG A   1      -5.555   6.571 131.787  0.00  0.00    +0.092 C 
ATOM      8  C   LIG A   1      -6.546   7.000 130.989  0.00  0.00    +0.015 C 
BRANCH   7   9
ATOM      9  C   LIG A   1      -4.154   6.885 131.445  0.00  0.00    +0.330 C 
ATOM     10  O   LIG A   1      -3.385   7.496 132.162  0.00  0.00    -0.246 OA
BRANCH   9  11
ATOM     11  O   LIG A   1      -3.824   6.421 130.222  0.00  0.00    -0.477 OA
ATOM     12  H   LIG A   1      -2.879   6.474 129.995  0.00  0.00    +0.295 HD
ENDBRANCH   9  11
ENDBRANCH   7   9
ENDBRANCH   1   8
BRANCH   3  13
ATOM     13  O   LIG A   1     -10.077   4.831 133.590  0.00  0.00    -0.503 OA
ATOM     14  H   LIG A   1      -9.602   3.985 133.531  0.00  0.00    +0.292 HD
ENDBRANCH   3  13
BRANCH   4  15
ATOM     15  O   LIG A   1     -11.977   5.876 131.964  0.00  0.00    -0.503 OA
ATOM     16  H   LIG A   1     -12.211   6.437 132.729  0.00  0.00    +0.292 HD
ENDBRANCH   4  15
TORSDOF 5
ENDMDL
MODEL 8
REMARK VINA RESULT:      -5.1      7.462      9.553
REMARK  Name = NuBBE_134
REMARK  5 active torsions:
REMARK  status: ('A' for Active; 'I' for Inactive)
REMARK    1  A    between atoms: O_1  and  C_2
REMARK    2  A    between atoms: C_2  and  C_3
REMARK    3  A    between atoms: C_4  and  C_5
REMARK    4  A    between atoms: C_7  and  O_8
REMARK    5  A    between atoms: C_9  and  O_12
REMARK                            x       y       z     vdW  Elec       q    Type
REMARK                         _______ _______ _______ _____ _____    ______ ____
ROOT
ATOM      1  C   LIG A   1      -8.085  -2.659 127.159  0.00  0.00    -0.021 A 
ATOM      2  C   LIG A   1      -6.784  -2.131 127.140  0.00  0.00    +0.057 A 
ATOM      3  C   LIG A   1      -5.953  -2.298 128.245  0.00  0.00    +0.159 A 
ATOM      4  C   LIG A   1      -6.401  -2.995 129.363  0.00  0.00    +0.158 A 
ATOM      5  C   LIG A   1      -7.675  -3.537 129.397  0.00  0.00    +0.050 A 
ATOM      6  C   LIG A   1      -8.514  -3.375 128.291  0.00  0.00    +0.012 A 
ENDROOT
BRANCH   1   8
ATOM      7  C   LIG A   1      -8.553  -2.773 124.722  0.00  0.00    +0.092 C 
ATOM      8  C   LIG A   1      -8.941  -2.485 125.974  0.00  0.00    +0.015 C 
BRANCH   7   9
ATOM      9  C   LIG A   1      -9.492  -2.572 123.601  0.00  0.00    +0.330 C 
ATOM     10  O   LIG A   1      -9.606  -1.541 122.967  0.00  0.00    -0.246 OA
BRANCH   9  11
ATOM     11  O   LIG A   1     -10.230  -3.677 123.366  0.00  0.00    -0.477 OA
ATOM     12  H   LIG A   1      -9.729  -4.508 123.296  0.00  0.00    +0.295 HD
ENDBRANCH   9  11
ENDBRANCH   7   9
ENDBRANCH   1   8
BRANCH   3  13
ATOM     13  O   LIG A   1      -4.682  -1.794 128.281  0.00  0.00    -0.503 OA
ATOM     14  H   LIG A   1      -4.739  -0.826 128.353  0.00  0.00    +0.292 HD
ENDBRANCH   3  13
BRANCH   4  15
ATOM     15  O   LIG A   1      -5.581  -3.157 130.443  0.00  0.00    -0.503 OA
ATOM     16  H   LIG A   1      -6.179  -3.106 131.215  0.00  0.00    +0.292 HD
ENDBRANCH   4  15
TORSDOF 5
ENDMDL
MODEL 9
REMARK VINA RESULT:      -5.0      9.803     11.270
REMARK  Name = NuBBE_134
REMARK  5 active torsions:
REMARK  status: ('A' for Active; 'I' for Inactive)
REMARK    1  A    between atoms: O_1  and  C_2
REMARK    2  A    between atoms: C_2  and  C_3
REMARK    3  A    between atoms: C_4  and  C_5
REMARK    4  A    between atoms: C_7  and  O_8
REMARK    5  A    between atoms: C_9  and  O_12
REMARK                            x       y       z     vdW  Elec       q    Type
REMARK                         _______ _______ _______ _____ _____    ______ ____
ROOT
ATOM      1  C   LIG A   1      -9.168   6.847 130.795  0.00  0.00    -0.021 A 
ATOM      2  C   LIG A   1     -10.013   7.436 129.841  0.00  0.00    +0.057 A 
ATOM      3  C   LIG A   1     -11.388   7.462 130.059  0.00  0.00    +0.159 A 
ATOM      4  C   LIG A   1     -11.928   6.918 131.221  0.00  0.00    +0.158 A 
ATOM      5  C   LIG A   1     -11.110   6.347 132.182  0.00  0.00    +0.050 A 
ATOM      6  C   LIG A   1      -9.729   6.319 131.972  0.00  0.00    +0.012 A 
ENDROOT
BRANCH   1   8
ATOM      7  C   LIG A   1      -6.796   6.688 131.519  0.00  0.00    +0.092 C 
ATOM      8  C   LIG A   1      -7.715   6.845 130.553  0.00  0.00    +0.015 C 
BRANCH   7   9
ATOM      9  C   LIG A   1      -5.362   6.691 131.169  0.00  0.00    +0.330 C 
ATOM     10  O   LIG A   1      -4.512   6.016 131.718  0.00  0.00    -0.246 OA
BRANCH   9  11
ATOM     11  O   LIG A   1      -5.096   7.549 130.163  0.00  0.00    -0.477 OA
ATOM     12  H   LIG A   1      -4.188   7.518 129.814  0.00  0.00    +0.295 HD
ENDBRANCH   9  11
ENDBRANCH   7   9
ENDBRANCH   1   8
BRANCH   3  13
ATOM     13  O   LIG A   1     -12.256   8.012 129.156  0.00  0.00    -0.503 OA
ATOM     14  H   LIG A   1     -11.822   8.778 128.743  0.00  0.00    +0.292 HD
ENDBRANCH   3  13
BRANCH   4  15
ATOM     15  O   LIG A   1     -13.276   6.949 131.429  0.00  0.00    -0.503 OA
ATOM     16  H   LIG A   1     -13.614   7.576 130.760  0.00  0.00    +0.292 HD
ENDBRANCH   4  15
TORSDOF 5
ENDMDL
