MODEL 1
REMARK VINA RESULT:      -7.7      0.000      0.000
REMARK  Name = NuBBE_2079
REMARK  2 active torsions:
REMARK  status: ('A' for Active; 'I' for Inactive)
REMARK    1  A    between atoms: C_3  and  C_5
REMARK    2  A    between atoms: C_23  and  O_25
REMARK                            x       y       z     vdW  Elec       q    Type
REMARK                         _______ _______ _______ _____ _____    ______ ____
ROOT
ATOM      1  O   LIG A   1      -8.738   2.189 127.085  0.00  0.00    -0.251 OA
ATOM      2  C   LIG A   1      -8.425   0.993 127.023  0.00  0.00    +0.311 C 
ATOM      3  C   LIG A   1      -6.950   0.422 126.985  0.00  0.00    +0.102 C 
ATOM      4  C   LIG A   1      -6.005  -0.803 127.144  0.00  0.00    +0.020 C 
ATOM      5  O   LIG A   1      -9.258   0.200 126.333  0.00  0.00    -0.461 OA
ATOM      6  C   LIG A   1      -8.432  -0.003 125.238  0.00  0.00    +0.181 C 
ATOM      7  C   LIG A   1      -7.029   0.566 125.459  0.00  0.00    +0.053 C 
ATOM      8  C   LIG A   1      -6.265   1.406 124.415  0.00  0.00    +0.015 C 
ATOM      9  C   LIG A   1      -6.225   2.576 125.808  0.00  0.00    +0.022 C 
ATOM     10  C   LIG A   1      -5.483   3.922 126.074  0.00  0.00    +0.121 C 
ATOM     11  C   LIG A   1      -5.923   4.660 124.948  0.00  0.00    +0.307 C 
ATOM     12  O   LIG A   1      -5.712   3.970 123.814  0.00  0.00    -0.464 OA
ATOM     13  C   LIG A   1      -6.630   2.769 123.527  0.00  0.00    +0.239 C 
ATOM     14  O   LIG A   1      -6.611   5.763 125.029  0.00  0.00    -0.251 OA
ATOM     15  C   LIG A   1      -6.716  -0.258 123.423  0.00  0.00    +0.005 C 
ATOM     16  C   LIG A   1      -5.966  -1.781 123.642  0.00  0.00    +0.004 C 
ATOM     17  C   LIG A   1      -6.576  -3.113 124.359  0.00  0.00    +0.003 C 
ATOM     18  C   LIG A   1      -8.013  -3.566 124.142  0.00  0.00    +0.031 C 
ATOM     19  C   LIG A   1      -8.927  -2.389 124.027  0.00  0.00    +0.118 C 
ATOM     20  C   LIG A   1      -8.308  -0.992 123.248  0.00  0.00    +0.025 C 
ATOM     21  C   LIG A   1      -9.122   0.067 123.878  0.00  0.00    +0.051 C 
ENDROOT
BRANCH  19  22
ATOM     22  O   LIG A   1     -10.185  -2.824 123.481  0.00  0.00    -0.392 OA
ATOM     23  H   LIG A   1      -9.987  -3.287 122.636  0.00  0.00    +0.210 HD
ENDBRANCH  19  22
TORSDOF 1
ENDMDL
MODEL 2
REMARK VINA RESULT:      -7.5      2.691      4.794
REMARK  Name = NuBBE_2079
REMARK  2 active torsions:
REMARK  status: ('A' for Active; 'I' for Inactive)
REMARK    1  A    between atoms: C_3  and  C_5
REMARK    2  A    between atoms: C_23  and  O_25
REMARK                            x       y       z     vdW  Elec       q    Type
REMARK                         _______ _______ _______ _____ _____    ______ ____
ROOT
ATOM      1  O   LIG A   1      -6.909  -1.193 123.573  0.00  0.00    -0.251 OA
ATOM      2  C   LIG A   1      -7.016  -2.004 124.502  0.00  0.00    +0.311 C 
ATOM      3  C   LIG A   1      -8.316  -2.251 125.371  0.00  0.00    +0.102 C 
ATOM      4  C   LIG A   1      -9.082  -3.166 126.368  0.00  0.00    +0.020 C 
ATOM      5  O   LIG A   1      -5.912  -2.214 125.234  0.00  0.00    -0.461 OA
ATOM      6  C   LIG A   1      -6.334  -1.550 126.375  0.00  0.00    +0.181 C 
ATOM      7  C   LIG A   1      -7.804  -1.136 126.292  0.00  0.00    +0.053 C 
ATOM      8  C   LIG A   1      -8.331   0.258 126.691  0.00  0.00    +0.015 C 
ATOM      9  C   LIG A   1      -8.952   0.198 124.982  0.00  0.00    +0.022 C 
ATOM     10  C   LIG A   1      -9.922   1.089 124.148  0.00  0.00    +0.121 C 
ATOM     11  C   LIG A   1      -9.274   2.340 124.291  0.00  0.00    +0.307 C 
ATOM     12  O   LIG A   1      -9.035   2.608 125.585  0.00  0.00    -0.464 OA
ATOM     13  C   LIG A   1      -7.913   1.820 126.284  0.00  0.00    +0.239 C 
ATOM     14  O   LIG A   1      -8.805   3.031 123.290  0.00  0.00    -0.251 OA
ATOM     15  C   LIG A   1      -7.372  -0.354 128.323  0.00  0.00    +0.005 C 
ATOM     16  C   LIG A   1      -7.931  -1.549 129.415  0.00  0.00    +0.004 C 
ATOM     17  C   LIG A   1      -7.382  -3.072 129.612  0.00  0.00    +0.003 C 
ATOM     18  C   LIG A   1      -5.897  -3.407 129.604  0.00  0.00    +0.031 C 
ATOM     19  C   LIG A   1      -5.166  -2.554 128.618  0.00  0.00    +0.118 C 
ATOM     20  C   LIG A   1      -5.714  -0.941 128.424  0.00  0.00    +0.025 C 
ATOM     21  C   LIG A   1      -5.285  -0.661 127.039  0.00  0.00    +0.051 C 
ENDROOT
BRANCH  19  22
ATOM     22  O   LIG A   1      -3.755  -2.639 128.881  0.00  0.00    -0.392 OA
ATOM     23  H   LIG A   1      -3.404  -1.720 128.867  0.00  0.00    +0.210 HD
ENDBRANCH  19  22
TORSDOF 1
ENDMDL
MODEL 3
REMARK VINA RESULT:      -7.5      1.868      5.805
REMARK  Name = NuBBE_2079
REMARK  2 active torsions:
REMARK  status: ('A' for Active; 'I' for Inactive)
REMARK    1  A    between atoms: C_3  and  C_5
REMARK    2  A    between atoms: C_23  and  O_25
REMARK                            x       y       z     vdW  Elec       q    Type
REMARK                         _______ _______ _______ _____ _____    ______ ____
ROOT
ATOM      1  O   LIG A   1     -10.319   1.144 123.726  0.00  0.00    -0.251 OA
ATOM      2  C   LIG A   1      -9.422   1.991 123.821  0.00  0.00    +0.311 C 
ATOM      3  C   LIG A   1      -7.967   1.872 123.210  0.00  0.00    +0.102 C 
ATOM      4  C   LIG A   1      -6.644   2.582 122.806  0.00  0.00    +0.020 C 
ATOM      5  O   LIG A   1      -9.401   2.705 124.956  0.00  0.00    -0.461 OA
ATOM      6  C   LIG A   1      -8.272   2.118 125.507  0.00  0.00    +0.181 C 
ATOM      7  C   LIG A   1      -7.569   1.182 124.521  0.00  0.00    +0.053 C 
ATOM      8  C   LIG A   1      -7.059  -0.227 124.886  0.00  0.00    +0.015 C 
ATOM      9  C   LIG A   1      -8.137  -0.667 123.487  0.00  0.00    +0.022 C 
ATOM     10  C   LIG A   1      -8.372  -1.971 122.666  0.00  0.00    +0.121 C 
ATOM     11  C   LIG A   1      -8.708  -2.856 123.720  0.00  0.00    +0.307 C 
ATOM     12  O   LIG A   1      -7.782  -2.812 124.693  0.00  0.00    -0.464 OA
ATOM     13  C   LIG A   1      -7.752  -1.567 125.596  0.00  0.00    +0.239 C 
ATOM     14  O   LIG A   1      -9.853  -3.471 123.812  0.00  0.00    -0.251 OA
ATOM     15  C   LIG A   1      -6.177   0.941 126.232  0.00  0.00    +0.005 C 
ATOM     16  C   LIG A   1      -4.866   1.999 125.924  0.00  0.00    +0.004 C 
ATOM     17  C   LIG A   1      -4.881   3.628 125.842  0.00  0.00    +0.003 C 
ATOM     18  C   LIG A   1      -5.674   4.482 126.821  0.00  0.00    +0.031 C 
ATOM     19  C   LIG A   1      -6.963   3.817 127.181  0.00  0.00    +0.118 C 
ATOM     20  C   LIG A   1      -6.953   2.107 127.300  0.00  0.00    +0.025 C 
ATOM     21  C   LIG A   1      -8.365   1.794 126.996  0.00  0.00    +0.051 C 
ENDROOT
BRANCH  19  22
ATOM     22  O   LIG A   1      -7.511   4.457 128.347  0.00  0.00    -0.392 OA
ATOM     23  H   LIG A   1      -8.191   5.095 128.033  0.00  0.00    +0.210 HD
ENDBRANCH  19  22
TORSDOF 1
ENDMDL
MODEL 4
REMARK VINA RESULT:      -7.4      2.983      5.262
REMARK  Name = NuBBE_2079
REMARK  2 active torsions:
REMARK  status: ('A' for Active; 'I' for Inactive)
REMARK    1  A    between atoms: C_3  and  C_5
REMARK    2  A    between atoms: C_23  and  O_25
REMARK                            x       y       z     vdW  Elec       q    Type
REMARK                         _______ _______ _______ _____ _____    ______ ____
ROOT
ATOM      1  O   LIG A   1      -5.762   0.629 127.980  0.00  0.00    -0.251 OA
ATOM      2  C   LIG A   1      -6.452   0.580 126.954  0.00  0.00    +0.311 C 
ATOM      3  C   LIG A   1      -8.015   0.339 126.900  0.00  0.00    +0.102 C 
ATOM      4  C   LIG A   1      -9.333   0.409 126.077  0.00  0.00    +0.020 C 
ATOM      5  O   LIG A   1      -5.857   0.070 125.866  0.00  0.00    -0.461 OA
ATOM      6  C   LIG A   1      -6.551  -1.129 125.837  0.00  0.00    +0.181 C 
ATOM      7  C   LIG A   1      -7.693  -1.160 126.855  0.00  0.00    +0.053 C 
ATOM      8  C   LIG A   1      -7.980  -2.353 127.791  0.00  0.00    +0.015 C 
ATOM      9  C   LIG A   1      -7.802  -1.044 129.043  0.00  0.00    +0.022 C 
ATOM     10  C   LIG A   1      -8.069  -0.966 130.577  0.00  0.00    +0.121 C 
ATOM     11  C   LIG A   1      -7.261  -2.045 131.012  0.00  0.00    +0.307 C 
ATOM     12  O   LIG A   1      -7.543  -3.162 130.320  0.00  0.00    -0.464 OA
ATOM     13  C   LIG A   1      -7.061  -3.240 128.861  0.00  0.00    +0.239 C 
ATOM     14  O   LIG A   1      -6.255  -1.912 131.830  0.00  0.00    -0.251 OA
ATOM     15  C   LIG A   1      -7.997  -3.176 125.981  0.00  0.00    +0.005 C 
ATOM     16  C   LIG A   1      -9.244  -3.001 124.820  0.00  0.00    +0.004 C 
ATOM     17  C   LIG A   1      -9.224  -2.132 123.441  0.00  0.00    +0.003 C 
ATOM     18  C   LIG A   1      -8.011  -2.097 122.521  0.00  0.00    +0.031 C 
ATOM     19  C   LIG A   1      -6.744  -2.126 123.313  0.00  0.00    +0.118 C 
ATOM     20  C   LIG A   1      -6.743  -3.062 124.750  0.00  0.00    +0.025 C 
ATOM     21  C   LIG A   1      -5.706  -2.366 125.539  0.00  0.00    +0.051 C 
ENDROOT
BRANCH  19  22
ATOM     22  O   LIG A   1      -5.651  -2.445 122.435  0.00  0.00    -0.392 OA
ATOM     23  H   LIG A   1      -4.831  -2.114 122.865  0.00  0.00    +0.210 HD
ENDBRANCH  19  22
TORSDOF 1
ENDMDL
MODEL 5
REMARK VINA RESULT:      -7.3      1.567      1.960
REMARK  Name = NuBBE_2079
REMARK  2 active torsions:
REMARK  status: ('A' for Active; 'I' for Inactive)
REMARK    1  A    between atoms: C_3  and  C_5
REMARK    2  A    between atoms: C_23  and  O_25
REMARK                            x       y       z     vdW  Elec       q    Type
REMARK                         _______ _______ _______ _____ _____    ______ ____
ROOT
ATOM      1  O   LIG A   1      -8.453   2.590 127.928  0.00  0.00    -0.251 OA
ATOM      2  C   LIG A   1      -8.567   1.495 127.361  0.00  0.00    +0.311 C 
ATOM      3  C   LIG A   1      -7.392   0.476 127.072  0.00  0.00    +0.102 C 
ATOM      4  C   LIG A   1      -6.963  -0.969 126.688  0.00  0.00    +0.020 C 
ATOM      5  O   LIG A   1      -9.505   1.419 126.407  0.00  0.00    -0.461 OA
ATOM      6  C   LIG A   1      -8.643   1.371 125.322  0.00  0.00    +0.181 C 
ATOM      7  C   LIG A   1      -7.182   1.230 125.752  0.00  0.00    +0.053 C 
ATOM      8  C   LIG A   1      -6.024   2.059 125.158  0.00  0.00    +0.015 C 
ATOM      9  C   LIG A   1      -5.796   2.472 126.915  0.00  0.00    +0.022 C 
ATOM     10  C   LIG A   1      -4.687   3.213 127.721  0.00  0.00    +0.121 C 
ATOM     11  C   LIG A   1      -4.667   4.442 127.019  0.00  0.00    +0.307 C 
ATOM     12  O   LIG A   1      -4.536   4.235 125.698  0.00  0.00    -0.464 OA
ATOM     13  C   LIG A   1      -5.756   3.689 124.935  0.00  0.00    +0.239 C 
ATOM     14  O   LIG A   1      -4.936   5.594 127.567  0.00  0.00    -0.251 OA
ATOM     15  C   LIG A   1      -6.864   1.230 123.557  0.00  0.00    +0.005 C 
ATOM     16  C   LIG A   1      -6.728  -0.415 123.102  0.00  0.00    +0.004 C 
ATOM     17  C   LIG A   1      -7.862  -1.584 123.189  0.00  0.00    +0.003 C 
ATOM     18  C   LIG A   1      -9.316  -1.334 122.814  0.00  0.00    +0.031 C 
ATOM     19  C   LIG A   1      -9.739   0.041 123.217  0.00  0.00    +0.118 C 
ATOM     20  C   LIG A   1      -8.564   1.285 123.099  0.00  0.00    +0.025 C 
ATOM     21  C   LIG A   1      -9.050   2.230 124.127  0.00  0.00    +0.051 C 
ENDROOT
BRANCH  19  22
ATOM     22  O   LIG A   1     -10.970   0.367 122.548  0.00  0.00    -0.392 OA
ATOM     23  H   LIG A   1     -11.308  -0.464 122.146  0.00  0.00    +0.210 HD
ENDBRANCH  19  22
TORSDOF 1
ENDMDL
MODEL 6
REMARK VINA RESULT:      -7.1      4.151      6.478
REMARK  Name = NuBBE_2079
REMARK  2 active torsions:
REMARK  status: ('A' for Active; 'I' for Inactive)
REMARK    1  A    between atoms: C_3  and  C_5
REMARK    2  A    between atoms: C_23  and  O_25
REMARK                            x       y       z     vdW  Elec       q    Type
REMARK                         _______ _______ _______ _____ _____    ______ ____
ROOT
ATOM      1  O   LIG A   1      -7.341  -1.494 131.465  0.00  0.00    -0.251 OA
ATOM      2  C   LIG A   1      -7.909  -1.598 130.370  0.00  0.00    +0.311 C 
ATOM      3  C   LIG A   1      -7.956  -2.899 129.471  0.00  0.00    +0.102 C 
ATOM      4  C   LIG A   1      -8.616  -3.661 128.287  0.00  0.00    +0.020 C 
ATOM      5  O   LIG A   1      -7.929  -0.495 129.608  0.00  0.00    -0.461 OA
ATOM      6  C   LIG A   1      -7.018  -0.928 128.657  0.00  0.00    +0.181 C 
ATOM      7  C   LIG A   1      -6.650  -2.401 128.839  0.00  0.00    +0.053 C 
ATOM      8  C   LIG A   1      -5.206  -2.942 128.782  0.00  0.00    +0.015 C 
ATOM      9  C   LIG A   1      -5.675  -3.556 130.430  0.00  0.00    +0.022 C 
ATOM     10  C   LIG A   1      -5.017  -4.530 131.453  0.00  0.00    +0.121 C 
ATOM     11  C   LIG A   1      -3.761  -3.893 131.609  0.00  0.00    +0.307 C 
ATOM     12  O   LIG A   1      -3.192  -3.663 130.414  0.00  0.00    -0.464 OA
ATOM     13  C   LIG A   1      -3.781  -2.537 129.547  0.00  0.00    +0.239 C 
ATOM     14  O   LIG A   1      -3.322  -3.427 132.744  0.00  0.00    -0.251 OA
ATOM     15  C   LIG A   1      -5.405  -1.985 127.050  0.00  0.00    +0.005 C 
ATOM     16  C   LIG A   1      -6.313  -2.537 125.707  0.00  0.00    +0.004 C 
ATOM     17  C   LIG A   1      -7.741  -1.976 125.154  0.00  0.00    +0.003 C 
ATOM     18  C   LIG A   1      -8.054  -0.488 125.079  0.00  0.00    +0.031 C 
ATOM     19  C   LIG A   1      -7.451   0.239 126.237  0.00  0.00    +0.118 C 
ATOM     20  C   LIG A   1      -5.935  -0.322 126.809  0.00  0.00    +0.025 C 
ATOM     21  C   LIG A   1      -5.987   0.110 128.221  0.00  0.00    +0.051 C 
ENDROOT
BRANCH  19  22
ATOM     22  O   LIG A   1      -7.457   1.650 125.959  0.00  0.00    -0.392 OA
ATOM     23  H   LIG A   1      -8.332   1.861 125.561  0.00  0.00    +0.210 HD
ENDBRANCH  19  22
TORSDOF 1
ENDMDL
MODEL 7
REMARK VINA RESULT:      -7.0      2.609      5.091
REMARK  Name = NuBBE_2079
REMARK  2 active torsions:
REMARK  status: ('A' for Active; 'I' for Inactive)
REMARK    1  A    between atoms: C_3  and  C_5
REMARK    2  A    between atoms: C_23  and  O_25
REMARK                            x       y       z     vdW  Elec       q    Type
REMARK                         _______ _______ _______ _____ _____    ______ ____
ROOT
ATOM      1  O   LIG A   1      -8.332  -3.618 125.955  0.00  0.00    -0.251 OA
ATOM      2  C   LIG A   1      -8.294  -2.863 124.975  0.00  0.00    +0.311 C 
ATOM      3  C   LIG A   1      -7.001  -2.151 124.404  0.00  0.00    +0.102 C 
ATOM      4  C   LIG A   1      -6.322  -1.397 123.226  0.00  0.00    +0.020 C 
ATOM      5  O   LIG A   1      -9.381  -2.105 124.770  0.00  0.00    -0.461 OA
ATOM      6  C   LIG A   1      -8.819  -0.894 125.144  0.00  0.00    +0.181 C 
ATOM      7  C   LIG A   1      -7.310  -1.007 125.378  0.00  0.00    +0.053 C 
ATOM      8  C   LIG A   1      -6.579  -0.397 126.592  0.00  0.00    +0.015 C 
ATOM      9  C   LIG A   1      -6.053  -2.129 126.782  0.00  0.00    +0.022 C 
ATOM     10  C   LIG A   1      -5.011  -2.854 127.686  0.00  0.00    +0.121 C 
ATOM     11  C   LIG A   1      -5.473  -2.437 128.959  0.00  0.00    +0.307 C 
ATOM     12  O   LIG A   1      -5.611  -1.102 129.002  0.00  0.00    -0.464 OA
ATOM     13  C   LIG A   1      -6.796  -0.480 128.242  0.00  0.00    +0.239 C 
ATOM     14  O   LIG A   1      -5.889  -3.258 129.882  0.00  0.00    -0.251 OA
ATOM     15  C   LIG A   1      -7.534   1.159 125.804  0.00  0.00    +0.005 C 
ATOM     16  C   LIG A   1      -7.094   1.970 124.361  0.00  0.00    +0.004 C 
ATOM     17  C   LIG A   1      -7.838   1.923 122.911  0.00  0.00    +0.003 C 
ATOM     18  C   LIG A   1      -9.354   1.962 122.773  0.00  0.00    +0.031 C 
ATOM     19  C   LIG A   1     -10.005   1.205 123.885  0.00  0.00    +0.118 C 
ATOM     20  C   LIG A   1      -9.250   1.271 125.423  0.00  0.00    +0.025 C 
ATOM     21  C   LIG A   1      -9.702  -0.005 126.015  0.00  0.00    +0.051 C 
ENDROOT
BRANCH  19  22
ATOM     22  O   LIG A   1     -11.401   1.549 123.930  0.00  0.00    -0.392 OA
ATOM     23  H   LIG A   1     -11.872   0.919 123.341  0.00  0.00    +0.210 HD
ENDBRANCH  19  22
TORSDOF 1
ENDMDL
MODEL 8
REMARK VINA RESULT:      -6.8      6.369      9.016
REMARK  Name = NuBBE_2079
REMARK  2 active torsions:
REMARK  status: ('A' for Active; 'I' for Inactive)
REMARK    1  A    between atoms: C_3  and  C_5
REMARK    2  A    between atoms: C_23  and  O_25
REMARK                            x       y       z     vdW  Elec       q    Type
REMARK                         _______ _______ _______ _____ _____    ______ ____
ROOT
ATOM      1  O   LIG A   1      -9.051   3.156 128.957  0.00  0.00    -0.251 OA
ATOM      2  C   LIG A   1      -8.634   2.838 130.079  0.00  0.00    +0.311 C 
ATOM      3  C   LIG A   1      -9.411   3.028 131.444  0.00  0.00    +0.102 C 
ATOM      4  C   LIG A   1      -9.541   2.661 132.950  0.00  0.00    +0.020 C 
ATOM      5  O   LIG A   1      -7.310   2.943 130.269  0.00  0.00    -0.461 OA
ATOM      6  C   LIG A   1      -7.345   4.050 131.103  0.00  0.00    +0.181 C 
ATOM      7  C   LIG A   1      -8.772   4.421 131.510  0.00  0.00    +0.053 C 
ATOM      8  C   LIG A   1      -9.325   5.862 131.498  0.00  0.00    +0.015 C 
ATOM      9  C   LIG A   1     -10.561   5.073 130.420  0.00  0.00    +0.022 C 
ATOM     10  C   LIG A   1     -11.921   5.531 129.813  0.00  0.00    +0.121 C 
ATOM     11  C   LIG A   1     -11.497   6.702 129.140  0.00  0.00    +0.307 C 
ATOM     12  O   LIG A   1     -10.807   7.505 129.968  0.00  0.00    -0.464 OA
ATOM     13  C   LIG A   1      -9.382   7.076 130.358  0.00  0.00    +0.239 C 
ATOM     14  O   LIG A   1     -11.596   6.873 127.852  0.00  0.00    -0.251 OA
ATOM     15  C   LIG A   1      -7.702   6.003 132.639  0.00  0.00    +0.005 C 
ATOM     16  C   LIG A   1      -7.559   5.422 134.243  0.00  0.00    +0.004 C 
ATOM     17  C   LIG A   1      -6.724   4.127 134.777  0.00  0.00    +0.003 C 
ATOM     18  C   LIG A   1      -5.334   3.786 134.257  0.00  0.00    +0.031 C 
ATOM     19  C   LIG A   1      -5.220   4.104 132.801  0.00  0.00    +0.118 C 
ATOM     20  C   LIG A   1      -6.069   5.481 132.233  0.00  0.00    +0.025 C 
ATOM     21  C   LIG A   1      -6.288   5.115 130.819  0.00  0.00    +0.051 C 
ENDROOT
BRANCH  19  22
ATOM     22  O   LIG A   1      -3.831   4.108 132.430  0.00  0.00    -0.392 OA
ATOM     23  H   LIG A   1      -3.674   3.301 131.891  0.00  0.00    +0.210 HD
ENDBRANCH  19  22
TORSDOF 1
ENDMDL
MODEL 9
REMARK VINA RESULT:      -6.7      6.545      7.914
REMARK  Name = NuBBE_2079
REMARK  2 active torsions:
REMARK  status: ('A' for Active; 'I' for Inactive)
REMARK    1  A    between atoms: C_3  and  C_5
REMARK    2  A    between atoms: C_23  and  O_25
REMARK                            x       y       z     vdW  Elec       q    Type
REMARK                         _______ _______ _______ _____ _____    ______ ____
ROOT
ATOM      1  O   LIG A   1      -6.100   7.647 130.296  0.00  0.00    -0.251 OA
ATOM      2  C   LIG A   1      -6.628   7.016 131.220  0.00  0.00    +0.311 C 
ATOM      3  C   LIG A   1      -5.862   6.195 132.336  0.00  0.00    +0.102 C 
ATOM      4  C   LIG A   1      -5.909   5.494 133.724  0.00  0.00    +0.020 C 
ATOM      5  O   LIG A   1      -7.815   6.454 130.950  0.00  0.00    -0.461 OA
ATOM      6  C   LIG A   1      -7.378   5.139 130.916  0.00  0.00    +0.181 C 
ATOM      7  C   LIG A   1      -5.924   5.001 131.375  0.00  0.00    +0.053 C 
ATOM      8  C   LIG A   1      -4.865   4.153 130.640  0.00  0.00    +0.015 C 
ATOM      9  C   LIG A   1      -4.002   5.756 130.634  0.00  0.00    +0.022 C 
ATOM     10  C   LIG A   1      -2.558   6.209 130.260  0.00  0.00    +0.121 C 
ATOM     11  C   LIG A   1      -2.493   5.717 128.933  0.00  0.00    +0.307 C 
ATOM     12  O   LIG A   1      -2.841   4.420 128.888  0.00  0.00    -0.464 OA
ATOM     13  C   LIG A   1      -4.329   4.072 129.064  0.00  0.00    +0.239 C 
ATOM     14  O   LIG A   1      -2.312   6.475 127.888  0.00  0.00    -0.251 OA
ATOM     15  C   LIG A   1      -6.333   2.857 130.983  0.00  0.00    +0.005 C 
ATOM     16  C   LIG A   1      -6.717   2.166 132.502  0.00  0.00    +0.004 C 
ATOM     17  C   LIG A   1      -7.991   2.491 133.466  0.00  0.00    +0.003 C 
ATOM     18  C   LIG A   1      -9.396   2.690 132.915  0.00  0.00    +0.031 C 
ATOM     19  C   LIG A   1      -9.353   3.398 131.599  0.00  0.00    +0.118 C 
ATOM     20  C   LIG A   1      -8.034   3.041 130.563  0.00  0.00    +0.025 C 
ATOM     21  C   LIG A   1      -7.945   4.291 129.780  0.00  0.00    +0.051 C 
ENDROOT
BRANCH  19  22
ATOM     22  O   LIG A   1     -10.630   3.258 130.951  0.00  0.00    -0.392 OA
ATOM     23  H   LIG A   1     -11.081   4.129 131.012  0.00  0.00    +0.210 HD
ENDBRANCH  19  22
TORSDOF 1
ENDMDL
