MODEL 1
REMARK VINA RESULT:      -7.5      0.000      0.000
REMARK  Name = NuBBE_2286
REMARK  6 active torsions:
REMARK  status: ('A' for Active; 'I' for Inactive)
REMARK    1  A    between atoms: C_5  and  C_6
REMARK    2  A    between atoms: C_7  and  C_11
REMARK    3  A    between atoms: C_11  and  O_13
REMARK    4  A    between atoms: O_13  and  C_14
REMARK    5  A    between atoms: C_17  and  C_18
REMARK    6  A    between atoms: C_20  and  C_22
REMARK                            x       y       z     vdW  Elec       q    Type
REMARK                         _______ _______ _______ _____ _____    ______ ____
ROOT
ATOM      1  O   LIG A   1      -8.040  -0.322 128.117  0.00  0.00    -0.250 OA
ATOM      2  C   LIG A   1      -7.011  -0.982 128.094  0.00  0.00    +0.315 C 
ATOM      3  C   LIG A   1      -6.692  -2.116 127.130  0.00  0.00    +0.078 C 
ATOM      4  C   LIG A   1      -6.361  -1.674 125.643  0.00  0.00    +0.017 C 
ATOM      5  C   LIG A   1      -7.601  -1.238 124.764  0.00  0.00    +0.003 C 
ATOM      6  C   LIG A   1      -7.214  -1.234 123.256  0.00  0.00    +0.016 C 
ATOM      7  C   LIG A   1      -7.996   0.206 125.096  0.00  0.00    +0.039 C 
ATOM      8  C   LIG A   1      -7.084   1.091 125.562  0.00  0.00    -0.016 C 
ATOM      9  C   LIG A   1      -5.650   0.788 125.856  0.00  0.00    +0.028 C 
ATOM     10  C   LIG A   1      -5.227  -0.633 125.507  0.00  0.00    +0.009 C 
ATOM     11  C   LIG A   1      -8.686  -2.339 124.906  0.00  0.00    +0.012 C 
ATOM     12  C   LIG A   1      -9.074  -2.669 126.334  0.00  0.00    +0.005 C 
ATOM     13  C   LIG A   1      -7.863  -3.152 127.144  0.00  0.00    +0.003 C 
ATOM     14  C   LIG A   1      -8.353  -3.571 128.543  0.00  0.00    +0.009 C 
ATOM     15  C   LIG A   1      -5.437  -2.728 127.785  0.00  0.00    +0.068 C 
ATOM     16  C   LIG A   1      -4.932  -1.686 128.766  0.00  0.00    +0.211 C 
ATOM     17  O   LIG A   1      -6.021  -0.798 129.003  0.00  0.00    -0.456 OA
ENDROOT
BRANCH  16  18
ATOM     18  C   LIG A   1      -4.424  -2.278 130.038  0.00  0.00    +0.030 A 
ATOM     19  C   LIG A   1      -4.914  -3.427 130.726  0.00  0.00    +0.048 A 
ATOM     20  C   LIG A   1      -4.130  -3.581 131.844  0.00  0.00    +0.195 A 
ATOM     21  O   LIG A   1      -3.187  -2.608 131.896  0.00  0.00    -0.471 OA
ATOM     22  C   LIG A   1      -3.369  -1.822 130.806  0.00  0.00    +0.202 A 
ENDBRANCH  16  18
BRANCH   7  23
ATOM     23  C   LIG A   1      -9.376   0.707 124.792  0.00  0.00    +0.335 C 
ATOM     24  O   LIG A   1     -10.347   0.514 125.508  0.00  0.00    -0.245 OA
BRANCH  23  25
ATOM     25  O   LIG A   1      -9.411   1.356 123.599  0.00  0.00    -0.465 OA
ATOM     26  C   LIG A   1     -10.189   0.719 122.586  0.00  0.00    +0.280 C 
ENDBRANCH  23  25
ENDBRANCH   7  23
TORSDOF 3
ENDMDL
MODEL 2
REMARK VINA RESULT:      -7.4      3.139      7.368
REMARK  Name = NuBBE_2286
REMARK  6 active torsions:
REMARK  status: ('A' for Active; 'I' for Inactive)
REMARK    1  A    between atoms: C_5  and  C_6
REMARK    2  A    between atoms: C_7  and  C_11
REMARK    3  A    between atoms: C_11  and  O_13
REMARK    4  A    between atoms: O_13  and  C_14
REMARK    5  A    between atoms: C_17  and  C_18
REMARK    6  A    between atoms: C_20  and  C_22
REMARK                            x       y       z     vdW  Elec       q    Type
REMARK                         _______ _______ _______ _____ _____    ______ ____
ROOT
ATOM      1  O   LIG A   1      -7.175  -0.087 123.403  0.00  0.00    -0.250 OA
ATOM      2  C   LIG A   1      -7.087   1.131 123.357  0.00  0.00    +0.315 C 
ATOM      3  C   LIG A   1      -7.912   2.124 124.165  0.00  0.00    +0.078 C 
ATOM      4  C   LIG A   1      -7.544   2.222 125.704  0.00  0.00    +0.017 C 
ATOM      5  C   LIG A   1      -8.045   1.026 126.609  0.00  0.00    +0.003 C 
ATOM      6  C   LIG A   1      -7.993   1.432 128.111  0.00  0.00    +0.016 C 
ATOM      7  C   LIG A   1      -7.096  -0.171 126.468  0.00  0.00    +0.039 C 
ATOM      8  C   LIG A   1      -5.793   0.004 126.145  0.00  0.00    -0.016 C 
ATOM      9  C   LIG A   1      -5.141   1.315 125.842  0.00  0.00    +0.028 C 
ATOM     10  C   LIG A   1      -6.057   2.521 126.003  0.00  0.00    +0.009 C 
ATOM     11  C   LIG A   1      -9.548   0.801 126.296  0.00  0.00    +0.012 C 
ATOM     12  C   LIG A   1      -9.869   0.594 124.830  0.00  0.00    +0.005 C 
ATOM     13  C   LIG A   1      -9.431   1.800 123.986  0.00  0.00    +0.003 C 
ATOM     14  C   LIG A   1      -9.886   1.565 122.534  0.00  0.00    +0.009 C 
ATOM     15  C   LIG A   1      -7.567   3.451 123.459  0.00  0.00    +0.068 C 
ATOM     16  C   LIG A   1      -6.321   3.173 122.639  0.00  0.00    +0.211 C 
ATOM     17  O   LIG A   1      -6.240   1.757 122.502  0.00  0.00    -0.456 OA
ENDROOT
BRANCH  16  18
ATOM     18  C   LIG A   1      -6.333   3.849 121.309  0.00  0.00    +0.030 A 
ATOM     19  C   LIG A   1      -7.402   3.907 120.366  0.00  0.00    +0.048 A 
ATOM     20  C   LIG A   1      -6.944   4.638 119.296  0.00  0.00    +0.195 A 
ATOM     21  O   LIG A   1      -5.665   5.038 119.511  0.00  0.00    -0.471 OA
ATOM     22  C   LIG A   1      -5.300   4.558 120.725  0.00  0.00    +0.202 A 
ENDBRANCH  16  18
BRANCH   7  23
ATOM     23  C   LIG A   1      -7.561  -1.555 126.809  0.00  0.00    +0.335 C 
ATOM     24  O   LIG A   1      -7.659  -1.982 127.949  0.00  0.00    -0.245 OA
BRANCH  23  25
ATOM     25  O   LIG A   1      -7.809  -2.279 125.687  0.00  0.00    -0.465 OA
ATOM     26  C   LIG A   1      -9.072  -2.945 125.665  0.00  0.00    +0.280 C 
ENDBRANCH  23  25
ENDBRANCH   7  23
TORSDOF 3
ENDMDL
MODEL 3
REMARK VINA RESULT:      -7.4      3.104      5.481
REMARK  Name = NuBBE_2286
REMARK  6 active torsions:
REMARK  status: ('A' for Active; 'I' for Inactive)
REMARK    1  A    between atoms: C_5  and  C_6
REMARK    2  A    between atoms: C_7  and  C_11
REMARK    3  A    between atoms: C_11  and  O_13
REMARK    4  A    between atoms: O_13  and  C_14
REMARK    5  A    between atoms: C_17  and  C_18
REMARK    6  A    between atoms: C_20  and  C_22
REMARK                            x       y       z     vdW  Elec       q    Type
REMARK                         _______ _______ _______ _____ _____    ______ ____
ROOT
ATOM      1  O   LIG A   1      -6.086   0.544 125.062  0.00  0.00    -0.250 OA
ATOM      2  C   LIG A   1      -6.919   0.724 125.938  0.00  0.00    +0.315 C 
ATOM      3  C   LIG A   1      -8.326   0.143 125.975  0.00  0.00    +0.078 C 
ATOM      4  C   LIG A   1      -8.415  -1.406 126.304  0.00  0.00    +0.017 C 
ATOM      5  C   LIG A   1      -8.012  -2.383 125.128  0.00  0.00    +0.003 C 
ATOM      6  C   LIG A   1      -8.528  -3.821 125.425  0.00  0.00    +0.016 C 
ATOM      7  C   LIG A   1      -6.485  -2.497 125.043  0.00  0.00    +0.039 C 
ATOM      8  C   LIG A   1      -5.707  -2.310 126.135  0.00  0.00    -0.016 C 
ATOM      9  C   LIG A   1      -6.196  -1.930 127.496  0.00  0.00    +0.028 C 
ATOM     10  C   LIG A   1      -7.713  -1.838 127.612  0.00  0.00    +0.009 C 
ATOM     11  C   LIG A   1      -8.777  -1.926 123.858  0.00  0.00    +0.012 C 
ATOM     12  C   LIG A   1      -8.590  -0.468 123.491  0.00  0.00    +0.005 C 
ATOM     13  C   LIG A   1      -9.051   0.458 124.626  0.00  0.00    +0.003 C 
ATOM     14  C   LIG A   1      -8.934   1.914 124.141  0.00  0.00    +0.009 C 
ATOM     15  C   LIG A   1      -8.961   0.959 127.120  0.00  0.00    +0.068 C 
ATOM     16  C   LIG A   1      -7.804   1.589 127.872  0.00  0.00    +0.211 C 
ATOM     17  O   LIG A   1      -6.684   1.544 126.993  0.00  0.00    -0.456 OA
ENDROOT
BRANCH  16  18
ATOM     18  C   LIG A   1      -8.089   2.983 128.323  0.00  0.00    +0.030 A 
ATOM     19  C   LIG A   1      -8.692   3.401 129.546  0.00  0.00    +0.048 A 
ATOM     20  C   LIG A   1      -8.743   4.773 129.510  0.00  0.00    +0.195 A 
ATOM     21  O   LIG A   1      -8.212   5.236 128.351  0.00  0.00    -0.471 OA
ATOM     22  C   LIG A   1      -7.821   4.151 127.635  0.00  0.00    +0.202 A 
ENDBRANCH  16  18
BRANCH   7  23
ATOM     23  C   LIG A   1      -5.825  -2.945 123.774  0.00  0.00    +0.335 C 
ATOM     24  O   LIG A   1      -5.676  -2.233 122.792  0.00  0.00    -0.245 OA
BRANCH  23  25
ATOM     25  O   LIG A   1      -5.462  -4.253 123.844  0.00  0.00    -0.465 OA
ATOM     26  C   LIG A   1      -4.091  -4.516 123.548  0.00  0.00    +0.280 C 
ENDBRANCH  23  25
ENDBRANCH   7  23
TORSDOF 3
ENDMDL
MODEL 4
REMARK VINA RESULT:      -7.3      1.966      2.288
REMARK  Name = NuBBE_2286
REMARK  6 active torsions:
REMARK  status: ('A' for Active; 'I' for Inactive)
REMARK    1  A    between atoms: C_5  and  C_6
REMARK    2  A    between atoms: C_7  and  C_11
REMARK    3  A    between atoms: C_11  and  O_13
REMARK    4  A    between atoms: O_13  and  C_14
REMARK    5  A    between atoms: C_17  and  C_18
REMARK    6  A    between atoms: C_20  and  C_22
REMARK                            x       y       z     vdW  Elec       q    Type
REMARK                         _______ _______ _______ _____ _____    ______ ____
ROOT
ATOM      1  O   LIG A   1      -8.997  -0.780 126.587  0.00  0.00    -0.250 OA
ATOM      2  C   LIG A   1      -8.024  -1.000 127.294  0.00  0.00    +0.315 C 
ATOM      3  C   LIG A   1      -7.055  -2.166 127.155  0.00  0.00    +0.078 C 
ATOM      4  C   LIG A   1      -6.057  -2.079 125.925  0.00  0.00    +0.017 C 
ATOM      5  C   LIG A   1      -6.684  -2.393 124.507  0.00  0.00    +0.003 C 
ATOM      6  C   LIG A   1      -5.555  -2.680 123.474  0.00  0.00    +0.016 C 
ATOM      7  C   LIG A   1      -7.428  -1.160 123.979  0.00  0.00    +0.039 C 
ATOM      8  C   LIG A   1      -7.069   0.089 124.358  0.00  0.00    -0.016 C 
ATOM      9  C   LIG A   1      -5.990   0.424 125.337  0.00  0.00    +0.028 C 
ATOM     10  C   LIG A   1      -5.218  -0.783 125.854  0.00  0.00    +0.009 C 
ATOM     11  C   LIG A   1      -7.476  -3.722 124.630  0.00  0.00    +0.012 C 
ATOM     12  C   LIG A   1      -8.508  -3.747 125.740  0.00  0.00    +0.005 C 
ATOM     13  C   LIG A   1      -7.861  -3.505 127.111  0.00  0.00    +0.003 C 
ATOM     14  C   LIG A   1      -8.947  -3.654 128.192  0.00  0.00    +0.009 C 
ATOM     15  C   LIG A   1      -6.267  -2.066 128.476  0.00  0.00    +0.068 C 
ATOM     16  C   LIG A   1      -6.548  -0.678 129.022  0.00  0.00    +0.211 C 
ATOM     17  O   LIG A   1      -7.723  -0.218 128.361  0.00  0.00    -0.456 OA
ENDROOT
BRANCH  16  18
ATOM     18  C   LIG A   1      -6.712  -0.655 130.505  0.00  0.00    +0.030 A 
ATOM     19  C   LIG A   1      -7.824  -1.117 131.270  0.00  0.00    +0.048 A 
ATOM     20  C   LIG A   1      -7.517  -0.888 132.589  0.00  0.00    +0.195 A 
ATOM     21  O   LIG A   1      -6.291  -0.317 132.696  0.00  0.00    -0.471 OA
ATOM     22  C   LIG A   1      -5.810  -0.175 131.436  0.00  0.00    +0.202 A 
ENDBRANCH  16  18
BRANCH   7  23
ATOM     23  C   LIG A   1      -8.489  -1.304 122.930  0.00  0.00    +0.335 C 
ATOM     24  O   LIG A   1      -8.322  -1.870 121.861  0.00  0.00    -0.245 OA
BRANCH  23  25
ATOM     25  O   LIG A   1      -9.638  -0.682 123.306  0.00  0.00    -0.465 OA
ATOM     26  C   LIG A   1     -10.140   0.275 122.374  0.00  0.00    +0.280 C 
ENDBRANCH  23  25
ENDBRANCH   7  23
TORSDOF 3
ENDMDL
MODEL 5
REMARK VINA RESULT:      -7.3      2.590      4.113
REMARK  Name = NuBBE_2286
REMARK  6 active torsions:
REMARK  status: ('A' for Active; 'I' for Inactive)
REMARK    1  A    between atoms: C_5  and  C_6
REMARK    2  A    between atoms: C_7  and  C_11
REMARK    3  A    between atoms: C_11  and  O_13
REMARK    4  A    between atoms: O_13  and  C_14
REMARK    5  A    between atoms: C_17  and  C_18
REMARK    6  A    between atoms: C_20  and  C_22
REMARK                            x       y       z     vdW  Elec       q    Type
REMARK                         _______ _______ _______ _____ _____    ______ ____
ROOT
ATOM      1  O   LIG A   1      -5.417  -2.517 127.011  0.00  0.00    -0.250 OA
ATOM      2  C   LIG A   1      -6.369  -2.113 127.663  0.00  0.00    +0.315 C 
ATOM      3  C   LIG A   1      -7.204  -0.877 127.362  0.00  0.00    +0.078 C 
ATOM      4  C   LIG A   1      -8.190  -1.004 126.126  0.00  0.00    +0.017 C 
ATOM      5  C   LIG A   1      -7.515  -0.930 124.698  0.00  0.00    +0.003 C 
ATOM      6  C   LIG A   1      -8.593  -0.652 123.609  0.00  0.00    +0.016 C 
ATOM      7  C   LIG A   1      -6.902  -2.289 124.338  0.00  0.00    +0.039 C 
ATOM      8  C   LIG A   1      -7.398  -3.439 124.852  0.00  0.00    -0.016 C 
ATOM      9  C   LIG A   1      -8.520  -3.539 125.836  0.00  0.00    +0.028 C 
ATOM     10  C   LIG A   1      -9.164  -2.204 126.187  0.00  0.00    +0.009 C 
ATOM     11  C   LIG A   1      -6.586   0.312 124.683  0.00  0.00    +0.012 C 
ATOM     12  C   LIG A   1      -5.571   0.361 125.808  0.00  0.00    +0.005 C 
ATOM     13  C   LIG A   1      -6.258   0.355 127.181  0.00  0.00    +0.003 C 
ATOM     14  C   LIG A   1      -5.176   0.517 128.264  0.00  0.00    +0.009 C 
ATOM     15  C   LIG A   1      -8.016  -0.733 128.665  0.00  0.00    +0.068 C 
ATOM     16  C   LIG A   1      -7.894  -2.067 129.378  0.00  0.00    +0.211 C 
ATOM     17  O   LIG A   1      -6.766  -2.725 128.807  0.00  0.00    -0.456 OA
ENDROOT
BRANCH  16  18
ATOM     18  C   LIG A   1      -7.752  -1.930 130.857  0.00  0.00    +0.030 A 
ATOM     19  C   LIG A   1      -7.264  -2.898 131.784  0.00  0.00    +0.048 A 
ATOM     20  C   LIG A   1      -7.320  -2.317 133.027  0.00  0.00    +0.195 A 
ATOM     21  O   LIG A   1      -7.808  -1.055 132.937  0.00  0.00    -0.471 OA
ATOM     22  C   LIG A   1      -8.070  -0.826 131.626  0.00  0.00    +0.202 A 
ENDBRANCH  16  18
BRANCH   7  23
ATOM     23  C   LIG A   1      -5.818  -2.386 123.307  0.00  0.00    +0.335 C 
ATOM     24  O   LIG A   1      -5.977  -2.137 122.121  0.00  0.00    -0.245 OA
BRANCH  23  25
ATOM     25  O   LIG A   1      -4.657  -2.830 123.855  0.00  0.00    -0.465 OA
ATOM     26  C   LIG A   1      -4.279  -4.154 123.480  0.00  0.00    +0.280 C 
ENDBRANCH  23  25
ENDBRANCH   7  23
TORSDOF 3
ENDMDL
MODEL 6
REMARK VINA RESULT:      -7.1      6.955      9.793
REMARK  Name = NuBBE_2286
REMARK  6 active torsions:
REMARK  status: ('A' for Active; 'I' for Inactive)
REMARK    1  A    between atoms: C_5  and  C_6
REMARK    2  A    between atoms: C_7  and  C_11
REMARK    3  A    between atoms: C_11  and  O_13
REMARK    4  A    between atoms: O_13  and  C_14
REMARK    5  A    between atoms: C_17  and  C_18
REMARK    6  A    between atoms: C_20  and  C_22
REMARK                            x       y       z     vdW  Elec       q    Type
REMARK                         _______ _______ _______ _____ _____    ______ ____
ROOT
ATOM      1  O   LIG A   1      -7.839   4.021 129.591  0.00  0.00    -0.250 OA
ATOM      2  C   LIG A   1      -8.466   4.921 130.129  0.00  0.00    +0.315 C 
ATOM      3  C   LIG A   1      -9.105   4.870 131.510  0.00  0.00    +0.078 C 
ATOM      4  C   LIG A   1      -8.095   4.935 132.731  0.00  0.00    +0.017 C 
ATOM      5  C   LIG A   1      -7.287   3.607 133.026  0.00  0.00    +0.003 C 
ATOM      6  C   LIG A   1      -6.668   3.662 134.453  0.00  0.00    +0.016 C 
ATOM      7  C   LIG A   1      -6.100   3.493 132.061  0.00  0.00    +0.039 C 
ATOM      8  C   LIG A   1      -5.524   4.595 131.526  0.00  0.00    -0.016 C 
ATOM      9  C   LIG A   1      -5.974   6.004 131.745  0.00  0.00    +0.028 C 
ATOM     10  C   LIG A   1      -7.134   6.145 132.722  0.00  0.00    +0.009 C 
ATOM     11  C   LIG A   1      -8.306   2.438 133.065  0.00  0.00    +0.012 C 
ATOM     12  C   LIG A   1      -9.188   2.321 131.838  0.00  0.00    +0.005 C 
ATOM     13  C   LIG A   1     -10.010   3.599 131.616  0.00  0.00    +0.003 C 
ATOM     14  C   LIG A   1     -10.956   3.365 130.424  0.00  0.00    +0.009 C 
ATOM     15  C   LIG A   1      -9.980   6.140 131.487  0.00  0.00    +0.068 C 
ATOM     16  C   LIG A   1      -9.462   6.980 130.334  0.00  0.00    +0.211 C 
ATOM     17  O   LIG A   1      -8.716   6.097 129.500  0.00  0.00    -0.456 OA
ENDROOT
BRANCH  16  18
ATOM     18  C   LIG A   1     -10.549   7.661 129.571  0.00  0.00    +0.030 A 
ATOM     19  C   LIG A   1     -11.911   7.836 129.957  0.00  0.00    +0.048 A 
ATOM     20  C   LIG A   1     -12.524   8.520 128.935  0.00  0.00    +0.195 A 
ATOM     21  O   LIG A   1     -11.637   8.782 127.943  0.00  0.00    -0.471 OA
ATOM     22  C   LIG A   1     -10.446   8.259 128.330  0.00  0.00    +0.202 A 
ENDBRANCH  16  18
BRANCH   7  23
ATOM     23  C   LIG A   1      -5.469   2.161 131.787  0.00  0.00    +0.335 C 
ATOM     24  O   LIG A   1      -4.670   1.616 132.533  0.00  0.00    -0.245 OA
BRANCH  23  25
ATOM     25  O   LIG A   1      -5.864   1.668 130.584  0.00  0.00    -0.465 OA
ATOM     26  C   LIG A   1      -4.808   1.416 129.657  0.00  0.00    +0.280 C 
ENDBRANCH  23  25
ENDBRANCH   7  23
TORSDOF 3
ENDMDL
MODEL 7
REMARK VINA RESULT:      -7.0      2.044      6.613
REMARK  Name = NuBBE_2286
REMARK  6 active torsions:
REMARK  status: ('A' for Active; 'I' for Inactive)
REMARK    1  A    between atoms: C_5  and  C_6
REMARK    2  A    between atoms: C_7  and  C_11
REMARK    3  A    between atoms: C_11  and  O_13
REMARK    4  A    between atoms: O_13  and  C_14
REMARK    5  A    between atoms: C_17  and  C_18
REMARK    6  A    between atoms: C_20  and  C_22
REMARK                            x       y       z     vdW  Elec       q    Type
REMARK                         _______ _______ _______ _____ _____    ______ ____
ROOT
ATOM      1  O   LIG A   1      -5.710  -1.464 126.023  0.00  0.00    -0.250 OA
ATOM      2  C   LIG A   1      -6.524  -0.553 125.988  0.00  0.00    +0.315 C 
ATOM      3  C   LIG A   1      -7.894  -0.544 126.651  0.00  0.00    +0.078 C 
ATOM      4  C   LIG A   1      -7.887  -0.388 128.229  0.00  0.00    +0.017 C 
ATOM      5  C   LIG A   1      -7.469  -1.676 129.046  0.00  0.00    +0.003 C 
ATOM      6  C   LIG A   1      -7.895  -1.528 130.536  0.00  0.00    +0.016 C 
ATOM      7  C   LIG A   1      -5.941  -1.813 129.061  0.00  0.00    +0.039 C 
ATOM      8  C   LIG A   1      -5.141  -0.727 128.950  0.00  0.00    -0.016 C 
ATOM      9  C   LIG A   1      -5.606   0.680 128.752  0.00  0.00    +0.028 C 
ATOM     10  C   LIG A   1      -7.120   0.845 128.761  0.00  0.00    +0.009 C 
ATOM     11  C   LIG A   1      -8.298  -2.867 128.498  0.00  0.00    +0.012 C 
ATOM     12  C   LIG A   1      -8.204  -3.073 127.000  0.00  0.00    +0.005 C 
ATOM     13  C   LIG A   1      -8.679  -1.831 126.233  0.00  0.00    +0.003 C 
ATOM     14  C   LIG A   1      -8.657  -2.153 124.728  0.00  0.00    +0.009 C 
ATOM     15  C   LIG A   1      -8.537   0.700 126.005  0.00  0.00    +0.068 C 
ATOM     16  C   LIG A   1      -7.392   1.488 125.396  0.00  0.00    +0.211 C 
ATOM     17  O   LIG A   1      -6.300   0.581 125.277  0.00  0.00    -0.456 OA
ENDROOT
BRANCH  16  18
ATOM     18  C   LIG A   1      -7.739   2.099 124.079  0.00  0.00    +0.030 A 
ATOM     19  C   LIG A   1      -9.010   2.124 123.433  0.00  0.00    +0.048 A 
ATOM     20  C   LIG A   1      -8.836   2.796 122.247  0.00  0.00    +0.195 A 
ATOM     21  O   LIG A   1      -7.545   3.190 122.113  0.00  0.00    -0.471 OA
ATOM     22  C   LIG A   1      -6.885   2.764 123.219  0.00  0.00    +0.202 A 
ENDBRANCH  16  18
BRANCH   7  23
ATOM     23  C   LIG A   1      -5.299  -3.141 129.328  0.00  0.00    +0.335 C 
ATOM     24  O   LIG A   1      -5.682  -3.927 130.181  0.00  0.00    -0.245 OA
BRANCH  23  25
ATOM     25  O   LIG A   1      -4.213  -3.330 128.533  0.00  0.00    -0.465 OA
ATOM     26  C   LIG A   1      -3.025  -3.728 129.216  0.00  0.00    +0.280 C 
ENDBRANCH  23  25
ENDBRANCH   7  23
TORSDOF 3
ENDMDL
MODEL 8
REMARK VINA RESULT:      -7.0      5.902      8.847
REMARK  Name = NuBBE_2286
REMARK  6 active torsions:
REMARK  status: ('A' for Active; 'I' for Inactive)
REMARK    1  A    between atoms: C_5  and  C_6
REMARK    2  A    between atoms: C_7  and  C_11
REMARK    3  A    between atoms: C_11  and  O_13
REMARK    4  A    between atoms: O_13  and  C_14
REMARK    5  A    between atoms: C_17  and  C_18
REMARK    6  A    between atoms: C_20  and  C_22
REMARK                            x       y       z     vdW  Elec       q    Type
REMARK                         _______ _______ _______ _____ _____    ______ ____
ROOT
ATOM      1  O   LIG A   1      -9.975   1.612 132.068  0.00  0.00    -0.250 OA
ATOM      2  C   LIG A   1      -9.784   2.694 131.533  0.00  0.00    +0.315 C 
ATOM      3  C   LIG A   1      -8.512   3.526 131.615  0.00  0.00    +0.078 C 
ATOM      4  C   LIG A   1      -7.281   2.973 130.782  0.00  0.00    +0.017 C 
ATOM      5  C   LIG A   1      -6.537   1.723 131.401  0.00  0.00    +0.003 C 
ATOM      6  C   LIG A   1      -5.142   1.545 130.734  0.00  0.00    +0.016 C 
ATOM      7  C   LIG A   1      -7.316   0.441 131.084  0.00  0.00    +0.039 C 
ATOM      8  C   LIG A   1      -8.101   0.352 129.985  0.00  0.00    -0.016 C 
ATOM      9  C   LIG A   1      -8.350   1.453 129.003  0.00  0.00    +0.028 C 
ATOM     10  C   LIG A   1      -7.565   2.728 129.282  0.00  0.00    +0.009 C 
ATOM     11  C   LIG A   1      -6.243   2.044 132.890  0.00  0.00    +0.012 C 
ATOM     12  C   LIG A   1      -7.452   2.462 133.702  0.00  0.00    +0.005 C 
ATOM     13  C   LIG A   1      -8.114   3.716 133.116  0.00  0.00    +0.003 C 
ATOM     14  C   LIG A   1      -9.262   4.141 134.050  0.00  0.00    +0.009 C 
ATOM     15  C   LIG A   1      -8.987   4.867 131.020  0.00  0.00    +0.068 C 
ATOM     16  C   LIG A   1     -10.287   4.564 130.299  0.00  0.00    +0.211 C 
ATOM     17  O   LIG A   1     -10.753   3.322 130.819  0.00  0.00    -0.456 OA
ENDROOT
BRANCH  16  18
ATOM     18  C   LIG A   1     -11.309   5.639 130.458  0.00  0.00    +0.030 A 
ATOM     19  C   LIG A   1     -11.614   6.391 131.632  0.00  0.00    +0.048 A 
ATOM     20  C   LIG A   1     -12.621   7.260 131.292  0.00  0.00    +0.195 A 
ATOM     21  O   LIG A   1     -12.962   7.102 129.988  0.00  0.00    -0.471 OA
ATOM     22  C   LIG A   1     -12.170   6.120 129.490  0.00  0.00    +0.202 A 
ENDBRANCH  16  18
BRANCH   7  23
ATOM     23  C   LIG A   1      -7.127  -0.791 131.919  0.00  0.00    +0.335 C 
ATOM     24  O   LIG A   1      -7.729  -1.011 132.959  0.00  0.00    -0.245 OA
BRANCH  23  25
ATOM     25  O   LIG A   1      -6.171  -1.599 131.392  0.00  0.00    -0.465 OA
ATOM     26  C   LIG A   1      -5.079  -1.890 132.263  0.00  0.00    +0.280 C 
ENDBRANCH  23  25
ENDBRANCH   7  23
TORSDOF 3
ENDMDL
MODEL 9
REMARK VINA RESULT:      -6.8      2.079      3.354
REMARK  Name = NuBBE_2286
REMARK  6 active torsions:
REMARK  status: ('A' for Active; 'I' for Inactive)
REMARK    1  A    between atoms: C_5  and  C_6
REMARK    2  A    between atoms: C_7  and  C_11
REMARK    3  A    between atoms: C_11  and  O_13
REMARK    4  A    between atoms: O_13  and  C_14
REMARK    5  A    between atoms: C_17  and  C_18
REMARK    6  A    between atoms: C_20  and  C_22
REMARK                            x       y       z     vdW  Elec       q    Type
REMARK                         _______ _______ _______ _____ _____    ______ ____
ROOT
ATOM      1  O   LIG A   1      -5.176  -0.075 128.503  0.00  0.00    -0.250 OA
ATOM      2  C   LIG A   1      -5.853  -1.047 128.802  0.00  0.00    +0.315 C 
ATOM      3  C   LIG A   1      -7.368  -1.157 128.690  0.00  0.00    +0.078 C 
ATOM      4  C   LIG A   1      -7.934  -1.301 127.215  0.00  0.00    +0.017 C 
ATOM      5  C   LIG A   1      -7.937   0.022 126.348  0.00  0.00    +0.003 C 
ATOM      6  C   LIG A   1      -8.873  -0.148 125.116  0.00  0.00    +0.016 C 
ATOM      7  C   LIG A   1      -6.537   0.276 125.777  0.00  0.00    +0.039 C 
ATOM      8  C   LIG A   1      -5.679  -0.745 125.547  0.00  0.00    -0.016 C 
ATOM      9  C   LIG A   1      -5.939  -2.185 125.853  0.00  0.00    +0.028 C 
ATOM     10  C   LIG A   1      -7.334  -2.466 126.396  0.00  0.00    +0.009 C 
ATOM     11  C   LIG A   1      -8.586   1.141 127.205  0.00  0.00    +0.012 C 
ATOM     12  C   LIG A   1      -7.959   1.343 128.570  0.00  0.00    +0.005 C 
ATOM     13  C   LIG A   1      -8.029   0.062 129.413  0.00  0.00    +0.003 C 
ATOM     14  C   LIG A   1      -7.475   0.374 130.815  0.00  0.00    +0.009 C 
ATOM     15  C   LIG A   1      -7.638  -2.452 129.483  0.00  0.00    +0.068 C 
ATOM     16  C   LIG A   1      -6.297  -3.153 129.600  0.00  0.00    +0.211 C 
ATOM     17  O   LIG A   1      -5.304  -2.165 129.340  0.00  0.00    -0.456 OA
ENDROOT
BRANCH  16  18
ATOM     18  C   LIG A   1      -6.089  -3.799 130.930  0.00  0.00    +0.030 A 
ATOM     19  C   LIG A   1      -5.356  -4.987 131.220  0.00  0.00    +0.048 A 
ATOM     20  C   LIG A   1      -5.446  -5.183 132.577  0.00  0.00    +0.195 A 
ATOM     21  O   LIG A   1      -6.183  -4.198 133.148  0.00  0.00    -0.471 OA
ATOM     22  C   LIG A   1      -6.572  -3.366 132.150  0.00  0.00    +0.202 A 
ENDBRANCH  16  18
BRANCH   7  23
ATOM     23  C   LIG A   1      -6.132   1.652 125.340  0.00  0.00    +0.335 C 
ATOM     24  O   LIG A   1      -6.498   2.174 124.297  0.00  0.00    -0.245 OA
BRANCH  23  25
ATOM     25  O   LIG A   1      -5.274   2.217 126.228  0.00  0.00    -0.465 OA
ATOM     26  C   LIG A   1      -4.734   3.477 125.830  0.00  0.00    +0.280 C 
ENDBRANCH  23  25
ENDBRANCH   7  23
TORSDOF 3
ENDMDL
