MODEL 1
REMARK VINA RESULT:      -7.8      0.000      0.000
REMARK  Name = NuBBE_34
REMARK  11 active torsions:
REMARK  status: ('A' for Active; 'I' for Inactive)
REMARK    1  A    between atoms: C_1  and  C_2
REMARK    2  A    between atoms: C_3  and  C_4
REMARK    3  A    between atoms: C_4  and  C_5
REMARK    4  A    between atoms: C_6  and  C_7
REMARK    5  A    between atoms: C_6  and  C_8
REMARK    6  A    between atoms: C_9  and  O_10
REMARK    7  A    between atoms: C_14  and  C_15
REMARK    8  A    between atoms: C_14  and  C_21
REMARK    9  A    between atoms: C_16  and  C_17
REMARK   10  A    between atoms: C_18  and  C_19
REMARK   11  A    between atoms: C_18  and  C_20
REMARK                            x       y       z     vdW  Elec       q    Type
REMARK                         _______ _______ _______ _____ _____    ______ ____
ROOT
ATOM      1  C   LIG A   1      -8.269  -2.542 127.237  0.00  0.00    +0.044 C 
ATOM      2  C   LIG A   1      -8.304  -1.505 126.149  0.00  0.00    -0.040 A 
ATOM      3  C   LIG A   1      -8.371  -1.795 124.769  0.00  0.00    +0.001 A 
ATOM      4  C   LIG A   1      -8.424  -0.716 123.856  0.00  0.00    +0.127 A 
ATOM      5  C   LIG A   1      -8.384   0.627 124.273  0.00  0.00    +0.036 A 
ATOM      6  C   LIG A   1      -8.292   0.883 125.642  0.00  0.00    +0.129 A 
ATOM      7  O   LIG A   1      -8.202   2.135 126.189  0.00  0.00    -0.481 OA
ATOM      8  C   LIG A   1      -7.784   3.199 125.311  0.00  0.00    +0.127 C 
ATOM      9  C   LIG A   1      -8.202   4.493 126.032  0.00  0.00    +0.060 C 
ATOM     10  C   LIG A   1      -8.554   3.118 123.984  0.00  0.00    +0.057 C 
ATOM     11  C   LIG A   1      -8.368   1.771 123.299  0.00  0.00    +0.047 C 
ATOM     12  C   LIG A   1      -8.285  -0.163 126.562  0.00  0.00    +0.049 A 
ENDROOT
BRANCH   4  13
ATOM     13  O   LIG A   1      -8.510  -1.038 122.523  0.00  0.00    -0.506 OA
ATOM     14  H   LIG A   1      -8.994  -1.871 122.416  0.00  0.00    +0.292 HD
ENDBRANCH   4  13
BRANCH   8  15
ATOM     15  C   LIG A   1      -6.266   3.148 125.163  0.00  0.00    +0.020 C 
ATOM     16  C   LIG A   1      -5.381   3.248 126.165  0.00  0.00    -0.000 C 
BRANCH  16  17
ATOM     17  C   LIG A   1      -3.944   3.216 125.967  0.00  0.00    -0.002 C 
ATOM     18  C   LIG A   1      -3.007   3.050 126.918  0.00  0.00    -0.076 C 
ATOM     19  C   LIG A   1      -3.263   2.853 128.387  0.00  0.00    +0.038 C 
ATOM     20  C   LIG A   1      -1.540   3.048 126.558  0.00  0.00    +0.038 C 
ENDBRANCH  16  17
ENDBRANCH   8  15
BRANCH   3  21
ATOM     21  C   LIG A   1      -8.353  -3.221 124.242  0.00  0.00    +0.066 C 
BRANCH  21  22
ATOM     22  C   LIG A   1      -7.013  -3.896 124.412  0.00  0.00    -0.023 C 
ATOM     23  C   LIG A   1      -5.848  -3.584 123.808  0.00  0.00    -0.079 C 
ATOM     24  C   LIG A   1      -5.679  -2.469 122.814  0.00  0.00    +0.038 C 
ATOM     25  C   LIG A   1      -4.588  -4.359 124.092  0.00  0.00    +0.038 C 
ENDBRANCH  21  22
ENDBRANCH   3  21
TORSDOF 5
ENDMDL
MODEL 2
REMARK VINA RESULT:      -7.7      1.450      6.326
REMARK  Name = NuBBE_34
REMARK  11 active torsions:
REMARK  status: ('A' for Active; 'I' for Inactive)
REMARK    1  A    between atoms: C_1  and  C_2
REMARK    2  A    between atoms: C_3  and  C_4
REMARK    3  A    between atoms: C_4  and  C_5
REMARK    4  A    between atoms: C_6  and  C_7
REMARK    5  A    between atoms: C_6  and  C_8
REMARK    6  A    between atoms: C_9  and  O_10
REMARK    7  A    between atoms: C_14  and  C_15
REMARK    8  A    between atoms: C_14  and  C_21
REMARK    9  A    between atoms: C_16  and  C_17
REMARK   10  A    between atoms: C_18  and  C_19
REMARK   11  A    between atoms: C_18  and  C_20
REMARK                            x       y       z     vdW  Elec       q    Type
REMARK                         _______ _______ _______ _____ _____    ______ ____
ROOT
ATOM      1  C   LIG A   1      -5.137   4.719 122.888  0.00  0.00    +0.044 C 
ATOM      2  C   LIG A   1      -5.949   3.759 123.712  0.00  0.00    -0.040 A 
ATOM      3  C   LIG A   1      -5.854   3.629 125.114  0.00  0.00    +0.001 A 
ATOM      4  C   LIG A   1      -6.700   2.700 125.764  0.00  0.00    +0.127 A 
ATOM      5  C   LIG A   1      -7.607   1.886 125.059  0.00  0.00    +0.036 A 
ATOM      6  C   LIG A   1      -7.660   2.019 123.671  0.00  0.00    +0.129 A 
ATOM      7  O   LIG A   1      -8.461   1.267 122.853  0.00  0.00    -0.481 OA
ATOM      8  C   LIG A   1      -8.965   0.031 123.397  0.00  0.00    +0.127 C 
ATOM      9  C   LIG A   1     -10.145  -0.350 122.485  0.00  0.00    +0.060 C 
ATOM     10  C   LIG A   1      -9.510   0.263 124.814  0.00  0.00    +0.057 C 
ATOM     11  C   LIG A   1      -8.454   0.850 125.741  0.00  0.00    +0.047 C 
ATOM     12  C   LIG A   1      -6.870   2.960 123.015  0.00  0.00    +0.049 A 
ENDROOT
BRANCH   4  13
ATOM     13  O   LIG A   1      -6.593   2.617 127.131  0.00  0.00    -0.506 OA
ATOM     14  H   LIG A   1      -6.028   1.868 127.372  0.00  0.00    +0.292 HD
ENDBRANCH   4  13
BRANCH   8  15
ATOM     15  C   LIG A   1      -7.870  -1.028 123.308  0.00  0.00    +0.020 C 
ATOM     16  C   LIG A   1      -7.948  -2.274 123.796  0.00  0.00    -0.000 C 
BRANCH  16  17
ATOM     17  C   LIG A   1      -6.866  -3.237 123.704  0.00  0.00    -0.002 C 
ATOM     18  C   LIG A   1      -5.667  -3.157 124.306  0.00  0.00    -0.076 C 
ATOM     19  C   LIG A   1      -5.205  -2.049 125.214  0.00  0.00    +0.038 C 
ATOM     20  C   LIG A   1      -4.633  -4.240 124.107  0.00  0.00    +0.038 C 
ENDBRANCH  16  17
ENDBRANCH   8  15
BRANCH   3  21
ATOM     21  C   LIG A   1      -4.853   4.427 125.933  0.00  0.00    +0.066 C 
BRANCH  21  22
ATOM     22  C   LIG A   1      -3.459   3.846 125.892  0.00  0.00    -0.023 C 
ATOM     23  C   LIG A   1      -2.760   3.303 126.910  0.00  0.00    -0.079 C 
ATOM     24  C   LIG A   1      -3.266   3.185 128.320  0.00  0.00    +0.038 C 
ATOM     25  C   LIG A   1      -1.371   2.758 126.702  0.00  0.00    +0.038 C 
ENDBRANCH  21  22
ENDBRANCH   3  21
TORSDOF 5
ENDMDL
MODEL 3
REMARK VINA RESULT:      -7.4      6.991      9.363
REMARK  Name = NuBBE_34
REMARK  11 active torsions:
REMARK  status: ('A' for Active; 'I' for Inactive)
REMARK    1  A    between atoms: C_1  and  C_2
REMARK    2  A    between atoms: C_3  and  C_4
REMARK    3  A    between atoms: C_4  and  C_5
REMARK    4  A    between atoms: C_6  and  C_7
REMARK    5  A    between atoms: C_6  and  C_8
REMARK    6  A    between atoms: C_9  and  O_10
REMARK    7  A    between atoms: C_14  and  C_15
REMARK    8  A    between atoms: C_14  and  C_21
REMARK    9  A    between atoms: C_16  and  C_17
REMARK   10  A    between atoms: C_18  and  C_19
REMARK   11  A    between atoms: C_18  and  C_20
REMARK                            x       y       z     vdW  Elec       q    Type
REMARK                         _______ _______ _______ _____ _____    ______ ____
ROOT
ATOM      1  C   LIG A   1     -11.415   3.843 130.365  0.00  0.00    +0.044 C 
ATOM      2  C   LIG A   1     -10.180   4.672 130.582  0.00  0.00    -0.040 A 
ATOM      3  C   LIG A   1      -9.989   5.972 130.067  0.00  0.00    +0.001 A 
ATOM      4  C   LIG A   1      -8.783   6.647 130.372  0.00  0.00    +0.127 A 
ATOM      5  C   LIG A   1      -7.764   6.058 131.143  0.00  0.00    +0.036 A 
ATOM      6  C   LIG A   1      -7.972   4.761 131.617  0.00  0.00    +0.129 A 
ATOM      7  O   LIG A   1      -7.054   4.049 132.342  0.00  0.00    -0.481 OA
ATOM      8  C   LIG A   1      -5.684   4.492 132.270  0.00  0.00    +0.127 C 
ATOM      9  C   LIG A   1      -4.993   3.837 133.480  0.00  0.00    +0.060 C 
ATOM     10  C   LIG A   1      -5.615   6.016 132.445  0.00  0.00    +0.057 C 
ATOM     11  C   LIG A   1      -6.456   6.747 131.407  0.00  0.00    +0.047 C 
ATOM     12  C   LIG A   1      -9.169   4.095 131.368  0.00  0.00    +0.049 A 
ENDROOT
BRANCH   4  13
ATOM     13  O   LIG A   1      -8.643   7.918 129.871  0.00  0.00    -0.506 OA
ATOM     14  H   LIG A   1      -8.830   7.920 128.920  0.00  0.00    +0.292 HD
ENDBRANCH   4  13
BRANCH   8  15
ATOM     15  C   LIG A   1      -5.067   3.977 130.973  0.00  0.00    +0.020 C 
ATOM     16  C   LIG A   1      -3.838   4.266 130.525  0.00  0.00    -0.000 C 
BRANCH  16  17
ATOM     17  C   LIG A   1      -3.307   3.766 129.270  0.00  0.00    -0.002 C 
ATOM     18  C   LIG A   1      -2.728   4.493 128.298  0.00  0.00    -0.076 C 
ATOM     19  C   LIG A   1      -2.502   5.980 128.321  0.00  0.00    +0.038 C 
ATOM     20  C   LIG A   1      -2.228   3.830 127.036  0.00  0.00    +0.038 C 
ENDBRANCH  16  17
ENDBRANCH   8  15
BRANCH   3  21
ATOM     21  C   LIG A   1     -11.017   6.646 129.173  0.00  0.00    +0.066 C 
BRANCH  21  22
ATOM     22  C   LIG A   1     -11.623   7.881 129.798  0.00  0.00    -0.023 C 
ATOM     23  C   LIG A   1     -12.689   8.586 129.368  0.00  0.00    -0.079 C 
ATOM     24  C   LIG A   1     -13.486   8.255 128.138  0.00  0.00    +0.038 C 
ATOM     25  C   LIG A   1     -13.175   9.802 130.114  0.00  0.00    +0.038 C 
ENDBRANCH  21  22
ENDBRANCH   3  21
TORSDOF 5
ENDMDL
MODEL 4
REMARK VINA RESULT:      -7.4      5.016      7.723
REMARK  Name = NuBBE_34
REMARK  11 active torsions:
REMARK  status: ('A' for Active; 'I' for Inactive)
REMARK    1  A    between atoms: C_1  and  C_2
REMARK    2  A    between atoms: C_3  and  C_4
REMARK    3  A    between atoms: C_4  and  C_5
REMARK    4  A    between atoms: C_6  and  C_7
REMARK    5  A    between atoms: C_6  and  C_8
REMARK    6  A    between atoms: C_9  and  O_10
REMARK    7  A    between atoms: C_14  and  C_15
REMARK    8  A    between atoms: C_14  and  C_21
REMARK    9  A    between atoms: C_16  and  C_17
REMARK   10  A    between atoms: C_18  and  C_19
REMARK   11  A    between atoms: C_18  and  C_20
REMARK                            x       y       z     vdW  Elec       q    Type
REMARK                         _______ _______ _______ _____ _____    ______ ____
ROOT
ATOM      1  C   LIG A   1      -7.906   0.725 128.246  0.00  0.00    +0.044 C 
ATOM      2  C   LIG A   1      -7.749   1.485 129.533  0.00  0.00    -0.040 A 
ATOM      3  C   LIG A   1      -7.987   0.945 130.815  0.00  0.00    +0.001 A 
ATOM      4  C   LIG A   1      -7.773   1.771 131.944  0.00  0.00    +0.127 A 
ATOM      5  C   LIG A   1      -7.361   3.112 131.831  0.00  0.00    +0.036 A 
ATOM      6  C   LIG A   1      -7.159   3.625 130.548  0.00  0.00    +0.129 A 
ATOM      7  O   LIG A   1      -6.801   4.920 130.283  0.00  0.00    -0.481 OA
ATOM      8  C   LIG A   1      -7.031   5.885 131.330  0.00  0.00    +0.127 C 
ATOM      9  C   LIG A   1      -6.152   7.092 130.954  0.00  0.00    +0.060 C 
ATOM     10  C   LIG A   1      -6.535   5.331 132.674  0.00  0.00    +0.057 C 
ATOM     11  C   LIG A   1      -7.204   4.008 133.025  0.00  0.00    +0.047 C 
ATOM     12  C   LIG A   1      -7.319   2.818 129.425  0.00  0.00    +0.049 A 
ENDROOT
BRANCH   4  13
ATOM     13  O   LIG A   1      -7.995   1.204 133.176  0.00  0.00    -0.506 OA
ATOM     14  H   LIG A   1      -7.629   1.771 133.870  0.00  0.00    +0.292 HD
ENDBRANCH   4  13
BRANCH   8  15
ATOM     15  C   LIG A   1      -8.503   6.284 131.316  0.00  0.00    +0.020 C 
ATOM     16  C   LIG A   1      -9.154   6.829 130.279  0.00  0.00    -0.000 C 
BRANCH  16  17
ATOM     17  C   LIG A   1     -10.553   7.212 130.325  0.00  0.00    -0.002 C 
ATOM     18  C   LIG A   1     -11.207   7.969 129.427  0.00  0.00    -0.076 C 
ATOM     19  C   LIG A   1     -10.619   8.566 128.178  0.00  0.00    +0.038 C 
ATOM     20  C   LIG A   1     -12.671   8.293 129.616  0.00  0.00    +0.038 C 
ENDBRANCH  16  17
ENDBRANCH   8  15
BRANCH   3  21
ATOM     21  C   LIG A   1      -8.494  -0.474 131.013  0.00  0.00    +0.066 C 
BRANCH  21  22
ATOM     22  C   LIG A   1      -7.387  -1.501 131.021  0.00  0.00    -0.023 C 
ATOM     23  C   LIG A   1      -7.263  -2.588 130.233  0.00  0.00    -0.079 C 
ATOM     24  C   LIG A   1      -8.251  -2.986 129.173  0.00  0.00    +0.038 C 
ATOM     25  C   LIG A   1      -6.086  -3.519 130.364  0.00  0.00    +0.038 C 
ENDBRANCH  21  22
ENDBRANCH   3  21
TORSDOF 5
ENDMDL
MODEL 5
REMARK VINA RESULT:      -7.4      3.450      5.703
REMARK  Name = NuBBE_34
REMARK  11 active torsions:
REMARK  status: ('A' for Active; 'I' for Inactive)
REMARK    1  A    between atoms: C_1  and  C_2
REMARK    2  A    between atoms: C_3  and  C_4
REMARK    3  A    between atoms: C_4  and  C_5
REMARK    4  A    between atoms: C_6  and  C_7
REMARK    5  A    between atoms: C_6  and  C_8
REMARK    6  A    between atoms: C_9  and  O_10
REMARK    7  A    between atoms: C_14  and  C_15
REMARK    8  A    between atoms: C_14  and  C_21
REMARK    9  A    between atoms: C_16  and  C_17
REMARK   10  A    between atoms: C_18  and  C_19
REMARK   11  A    between atoms: C_18  and  C_20
REMARK                            x       y       z     vdW  Elec       q    Type
REMARK                         _______ _______ _______ _____ _____    ______ ____
ROOT
ATOM      1  C   LIG A   1      -6.195  -1.586 123.221  0.00  0.00    +0.044 C 
ATOM      2  C   LIG A   1      -6.918  -2.029 124.462  0.00  0.00    -0.040 A 
ATOM      3  C   LIG A   1      -8.299  -2.315 124.524  0.00  0.00    +0.001 A 
ATOM      4  C   LIG A   1      -8.843  -2.749 125.756  0.00  0.00    +0.127 A 
ATOM      5  C   LIG A   1      -8.063  -2.878 126.920  0.00  0.00    +0.036 A 
ATOM      6  C   LIG A   1      -6.706  -2.563 126.834  0.00  0.00    +0.129 A 
ATOM      7  O   LIG A   1      -5.836  -2.600 127.891  0.00  0.00    -0.481 OA
ATOM      8  C   LIG A   1      -6.417  -2.572 129.211  0.00  0.00    +0.127 C 
ATOM      9  C   LIG A   1      -5.299  -3.071 130.145  0.00  0.00    +0.060 C 
ATOM     10  C   LIG A   1      -7.588  -3.562 129.292  0.00  0.00    +0.057 C 
ATOM     11  C   LIG A   1      -8.654  -3.269 128.245  0.00  0.00    +0.047 C 
ATOM     12  C   LIG A   1      -6.140  -2.178 125.621  0.00  0.00    +0.049 A 
ENDROOT
BRANCH   4  13
ATOM     13  O   LIG A   1     -10.186  -3.038 125.772  0.00  0.00    -0.506 OA
ATOM     14  H   LIG A   1     -10.699  -2.216 125.749  0.00  0.00    +0.292 HD
ENDBRANCH   4  13
BRANCH   8  15
ATOM     15  C   LIG A   1      -6.783  -1.131 129.556  0.00  0.00    +0.020 C 
ATOM     16  C   LIG A   1      -7.838  -0.749 130.289  0.00  0.00    -0.000 C 
BRANCH  16  17
ATOM     17  C   LIG A   1      -8.155   0.639 130.570  0.00  0.00    -0.002 C 
ATOM     18  C   LIG A   1      -8.413   1.602 129.667  0.00  0.00    -0.076 C 
ATOM     19  C   LIG A   1      -8.436   1.429 128.172  0.00  0.00    +0.038 C 
ATOM     20  C   LIG A   1      -8.720   3.011 130.113  0.00  0.00    +0.038 C 
ENDBRANCH  16  17
ENDBRANCH   8  15
BRANCH   3  21
ATOM     21  C   LIG A   1      -9.216  -2.138 123.324  0.00  0.00    +0.066 C 
BRANCH  21  22
ATOM     22  C   LIG A   1      -9.219  -0.726 122.788  0.00  0.00    -0.023 C 
ATOM     23  C   LIG A   1      -9.458   0.415 123.467  0.00  0.00    -0.079 C 
ATOM     24  C   LIG A   1      -9.783   0.479 124.933  0.00  0.00    +0.038 C 
ATOM     25  C   LIG A   1      -9.419   1.756 122.781  0.00  0.00    +0.038 C 
ENDBRANCH  21  22
ENDBRANCH   3  21
TORSDOF 5
ENDMDL
MODEL 6
REMARK VINA RESULT:      -7.2      2.826      7.401
REMARK  Name = NuBBE_34
REMARK  11 active torsions:
REMARK  status: ('A' for Active; 'I' for Inactive)
REMARK    1  A    between atoms: C_1  and  C_2
REMARK    2  A    between atoms: C_3  and  C_4
REMARK    3  A    between atoms: C_4  and  C_5
REMARK    4  A    between atoms: C_6  and  C_7
REMARK    5  A    between atoms: C_6  and  C_8
REMARK    6  A    between atoms: C_9  and  O_10
REMARK    7  A    between atoms: C_14  and  C_15
REMARK    8  A    between atoms: C_14  and  C_21
REMARK    9  A    between atoms: C_16  and  C_17
REMARK   10  A    between atoms: C_18  and  C_19
REMARK   11  A    between atoms: C_18  and  C_20
REMARK                            x       y       z     vdW  Elec       q    Type
REMARK                         _______ _______ _______ _____ _____    ______ ____
ROOT
ATOM      1  C   LIG A   1      -7.647   4.100 128.714  0.00  0.00    +0.044 C 
ATOM      2  C   LIG A   1      -6.963   2.806 128.374  0.00  0.00    -0.040 A 
ATOM      3  C   LIG A   1      -5.860   2.689 127.501  0.00  0.00    +0.001 A 
ATOM      4  C   LIG A   1      -5.299   1.407 127.291  0.00  0.00    +0.127 A 
ATOM      5  C   LIG A   1      -5.818   0.249 127.898  0.00  0.00    +0.036 A 
ATOM      6  C   LIG A   1      -6.926   0.392 128.736  0.00  0.00    +0.129 A 
ATOM      7  O   LIG A   1      -7.562  -0.648 129.359  0.00  0.00    -0.481 OA
ATOM      8  C   LIG A   1      -7.335  -1.965 128.818  0.00  0.00    +0.127 C 
ATOM      9  C   LIG A   1      -7.770  -2.931 129.935  0.00  0.00    +0.060 C 
ATOM     10  C   LIG A   1      -5.837  -2.177 128.558  0.00  0.00    +0.057 C 
ATOM     11  C   LIG A   1      -5.268  -1.121 127.620  0.00  0.00    +0.047 C 
ATOM     12  C   LIG A   1      -7.466   1.650 128.993  0.00  0.00    +0.049 A 
ENDROOT
BRANCH   4  13
ATOM     13  O   LIG A   1      -4.214   1.337 126.452  0.00  0.00    -0.506 OA
ATOM     14  H   LIG A   1      -4.476   0.943 125.607  0.00  0.00    +0.292 HD
ENDBRANCH   4  13
BRANCH   8  15
ATOM     15  C   LIG A   1      -8.221  -2.152 127.590  0.00  0.00    +0.020 C 
ATOM     16  C   LIG A   1      -8.302  -3.264 126.847  0.00  0.00    -0.000 C 
BRANCH  16  17
ATOM     17  C   LIG A   1      -9.146  -3.382 125.673  0.00  0.00    -0.002 C 
ATOM     18  C   LIG A   1      -8.751  -3.299 124.390  0.00  0.00    -0.076 C 
ATOM     19  C   LIG A   1      -7.343  -3.077 123.910  0.00  0.00    +0.038 C 
ATOM     20  C   LIG A   1      -9.753  -3.434 123.268  0.00  0.00    +0.038 C 
ENDBRANCH  16  17
ENDBRANCH   8  15
BRANCH   3  21
ATOM     21  C   LIG A   1      -5.286   3.886 126.760  0.00  0.00    +0.066 C 
BRANCH  21  22
ATOM     22  C   LIG A   1      -4.436   4.772 127.640  0.00  0.00    -0.023 C 
ATOM     23  C   LIG A   1      -3.092   4.775 127.757  0.00  0.00    -0.079 C 
ATOM     24  C   LIG A   1      -2.172   3.854 127.006  0.00  0.00    +0.038 C 
ATOM     25  C   LIG A   1      -2.390   5.734 128.683  0.00  0.00    +0.038 C 
ENDBRANCH  21  22
ENDBRANCH   3  21
TORSDOF 5
ENDMDL
MODEL 7
REMARK VINA RESULT:      -7.1      4.536      7.287
REMARK  Name = NuBBE_34
REMARK  11 active torsions:
REMARK  status: ('A' for Active; 'I' for Inactive)
REMARK    1  A    between atoms: C_1  and  C_2
REMARK    2  A    between atoms: C_3  and  C_4
REMARK    3  A    between atoms: C_4  and  C_5
REMARK    4  A    between atoms: C_6  and  C_7
REMARK    5  A    between atoms: C_6  and  C_8
REMARK    6  A    between atoms: C_9  and  O_10
REMARK    7  A    between atoms: C_14  and  C_15
REMARK    8  A    between atoms: C_14  and  C_21
REMARK    9  A    between atoms: C_16  and  C_17
REMARK   10  A    between atoms: C_18  and  C_19
REMARK   11  A    between atoms: C_18  and  C_20
REMARK                            x       y       z     vdW  Elec       q    Type
REMARK                         _______ _______ _______ _____ _____    ______ ____
ROOT
ATOM      1  C   LIG A   1      -3.324  -4.009 129.005  0.00  0.00    +0.044 C 
ATOM      2  C   LIG A   1      -4.557  -3.229 129.367  0.00  0.00    -0.040 A 
ATOM      3  C   LIG A   1      -5.468  -3.598 130.381  0.00  0.00    +0.001 A 
ATOM      4  C   LIG A   1      -6.575  -2.753 130.632  0.00  0.00    +0.127 A 
ATOM      5  C   LIG A   1      -6.811  -1.580 129.890  0.00  0.00    +0.036 A 
ATOM      6  C   LIG A   1      -5.907  -1.255 128.878  0.00  0.00    +0.129 A 
ATOM      7  O   LIG A   1      -6.032  -0.172 128.050  0.00  0.00    -0.481 OA
ATOM      8  C   LIG A   1      -7.341   0.425 127.954  0.00  0.00    +0.127 C 
ATOM      9  C   LIG A   1      -7.095   1.824 127.359  0.00  0.00    +0.060 C 
ATOM     10  C   LIG A   1      -7.943   0.600 129.356  0.00  0.00    +0.057 C 
ATOM     11  C   LIG A   1      -8.024  -0.722 130.109  0.00  0.00    +0.047 C 
ATOM     12  C   LIG A   1      -4.785  -2.048 128.644  0.00  0.00    +0.049 A 
ENDROOT
BRANCH   4  13
ATOM     13  O   LIG A   1      -7.427  -3.133 131.639  0.00  0.00    -0.506 OA
ATOM     14  H   LIG A   1      -7.244  -4.049 131.898  0.00  0.00    +0.292 HD
ENDBRANCH   4  13
BRANCH   8  15
ATOM     15  C   LIG A   1      -8.192  -0.408 127.001  0.00  0.00    +0.020 C 
ATOM     16  C   LIG A   1      -7.947  -0.596 125.697  0.00  0.00    -0.000 C 
BRANCH  16  17
ATOM     17  C   LIG A   1      -8.803  -1.381 124.827  0.00  0.00    -0.002 C 
ATOM     18  C   LIG A   1      -8.539  -2.603 124.332  0.00  0.00    -0.076 C 
ATOM     19  C   LIG A   1      -7.298  -3.413 124.591  0.00  0.00    +0.038 C 
ATOM     20  C   LIG A   1      -9.530  -3.296 123.426  0.00  0.00    +0.038 C 
ENDBRANCH  16  17
ENDBRANCH   8  15
BRANCH   3  21
ATOM     21  C   LIG A   1      -5.313  -4.882 131.178  0.00  0.00    +0.066 C 
BRANCH  21  22
ATOM     22  C   LIG A   1      -4.465  -4.709 132.416  0.00  0.00    -0.023 C 
ATOM     23  C   LIG A   1      -4.824  -4.921 133.699  0.00  0.00    -0.079 C 
ATOM     24  C   LIG A   1      -6.188  -5.377 134.136  0.00  0.00    +0.038 C 
ATOM     25  C   LIG A   1      -3.850  -4.706 134.829  0.00  0.00    +0.038 C 
ENDBRANCH  21  22
ENDBRANCH   3  21
TORSDOF 5
ENDMDL
MODEL 8
REMARK VINA RESULT:      -7.0      5.283      7.608
REMARK  Name = NuBBE_34
REMARK  11 active torsions:
REMARK  status: ('A' for Active; 'I' for Inactive)
REMARK    1  A    between atoms: C_1  and  C_2
REMARK    2  A    between atoms: C_3  and  C_4
REMARK    3  A    between atoms: C_4  and  C_5
REMARK    4  A    between atoms: C_6  and  C_7
REMARK    5  A    between atoms: C_6  and  C_8
REMARK    6  A    between atoms: C_9  and  O_10
REMARK    7  A    between atoms: C_14  and  C_15
REMARK    8  A    between atoms: C_14  and  C_21
REMARK    9  A    between atoms: C_16  and  C_17
REMARK   10  A    between atoms: C_18  and  C_19
REMARK   11  A    between atoms: C_18  and  C_20
REMARK                            x       y       z     vdW  Elec       q    Type
REMARK                         _______ _______ _______ _____ _____    ______ ____
ROOT
ATOM      1  C   LIG A   1      -4.851   0.157 130.093  0.00  0.00    +0.044 C 
ATOM      2  C   LIG A   1      -6.041   0.693 130.839  0.00  0.00    -0.040 A 
ATOM      3  C   LIG A   1      -7.278   0.024 130.957  0.00  0.00    +0.001 A 
ATOM      4  C   LIG A   1      -8.306   0.636 131.713  0.00  0.00    +0.127 A 
ATOM      5  C   LIG A   1      -8.145   1.894 132.323  0.00  0.00    +0.036 A 
ATOM      6  C   LIG A   1      -6.919   2.543 132.167  0.00  0.00    +0.129 A 
ATOM      7  O   LIG A   1      -6.634   3.785 132.667  0.00  0.00    -0.481 OA
ATOM      8  C   LIG A   1      -7.758   4.618 133.017  0.00  0.00    +0.127 C 
ATOM      9  C   LIG A   1      -7.173   5.705 133.937  0.00  0.00    +0.060 C 
ATOM     10  C   LIG A   1      -8.782   3.807 133.824  0.00  0.00    +0.057 C 
ATOM     11  C   LIG A   1      -9.259   2.576 133.065  0.00  0.00    +0.047 C 
ATOM     12  C   LIG A   1      -5.878   1.939 131.466  0.00  0.00    +0.049 A 
ENDROOT
BRANCH   4  13
ATOM     13  O   LIG A   1      -9.488  -0.055 131.822  0.00  0.00    -0.506 OA
ATOM     14  H   LIG A   1     -10.046   0.353 132.501  0.00  0.00    +0.292 HD
ENDBRANCH   4  13
BRANCH   8  15
ATOM     15  C   LIG A   1      -8.316   5.251 131.745  0.00  0.00    +0.020 C 
ATOM     16  C   LIG A   1      -8.774   6.505 131.635  0.00  0.00    -0.000 C 
BRANCH  16  17
ATOM     17  C   LIG A   1      -9.316   7.053 130.405  0.00  0.00    -0.002 C 
ATOM     18  C   LIG A   1     -10.616   7.188 130.091  0.00  0.00    -0.076 C 
ATOM     19  C   LIG A   1     -11.781   6.806 130.964  0.00  0.00    +0.038 C 
ATOM     20  C   LIG A   1     -11.030   7.771 128.761  0.00  0.00    +0.038 C 
ENDBRANCH  16  17
ENDBRANCH   8  15
BRANCH   3  21
ATOM     21  C   LIG A   1      -7.546  -1.306 130.272  0.00  0.00    +0.066 C 
BRANCH  21  22
ATOM     22  C   LIG A   1      -7.700  -1.179 128.775  0.00  0.00    -0.023 C 
ATOM     23  C   LIG A   1      -8.104  -2.125 127.902  0.00  0.00    -0.079 C 
ATOM     24  C   LIG A   1      -8.478  -3.529 128.285  0.00  0.00    +0.038 C 
ATOM     25  C   LIG A   1      -8.211  -1.834 126.428  0.00  0.00    +0.038 C 
ENDBRANCH  21  22
ENDBRANCH   3  21
TORSDOF 5
ENDMDL
MODEL 9
REMARK VINA RESULT:      -7.0      5.149      7.344
REMARK  Name = NuBBE_34
REMARK  11 active torsions:
REMARK  status: ('A' for Active; 'I' for Inactive)
REMARK    1  A    between atoms: C_1  and  C_2
REMARK    2  A    between atoms: C_3  and  C_4
REMARK    3  A    between atoms: C_4  and  C_5
REMARK    4  A    between atoms: C_6  and  C_7
REMARK    5  A    between atoms: C_6  and  C_8
REMARK    6  A    between atoms: C_9  and  O_10
REMARK    7  A    between atoms: C_14  and  C_15
REMARK    8  A    between atoms: C_14  and  C_21
REMARK    9  A    between atoms: C_16  and  C_17
REMARK   10  A    between atoms: C_18  and  C_19
REMARK   11  A    between atoms: C_18  and  C_20
REMARK                            x       y       z     vdW  Elec       q    Type
REMARK                         _______ _______ _______ _____ _____    ______ ____
ROOT
ATOM      1  C   LIG A   1      -8.755  -3.658 126.595  0.00  0.00    +0.044 C 
ATOM      2  C   LIG A   1      -7.970  -2.854 127.594  0.00  0.00    -0.040 A 
ATOM      3  C   LIG A   1      -6.990  -1.897 127.256  0.00  0.00    +0.001 A 
ATOM      4  C   LIG A   1      -6.346  -1.194 128.302  0.00  0.00    +0.127 A 
ATOM      5  C   LIG A   1      -6.629  -1.436 129.659  0.00  0.00    +0.036 A 
ATOM      6  C   LIG A   1      -7.585  -2.407 129.962  0.00  0.00    +0.129 A 
ATOM      7  O   LIG A   1      -7.932  -2.778 131.234  0.00  0.00    -0.481 OA
ATOM      8  C   LIG A   1      -6.999  -2.449 132.283  0.00  0.00    +0.127 C 
ATOM      9  C   LIG A   1      -7.815  -2.556 133.585  0.00  0.00    +0.060 C 
ATOM     10  C   LIG A   1      -6.528  -0.995 132.131  0.00  0.00    +0.057 C 
ATOM     11  C   LIG A   1      -5.895  -0.742 130.770  0.00  0.00    +0.047 C 
ATOM     12  C   LIG A   1      -8.265  -3.079 128.948  0.00  0.00    +0.049 A 
ENDROOT
BRANCH   4  13
ATOM     13  O   LIG A   1      -5.413  -0.256 127.933  0.00  0.00    -0.506 OA
ATOM     14  H   LIG A   1      -4.675  -0.687 127.477  0.00  0.00    +0.292 HD
ENDBRANCH   4  13
BRANCH   8  15
ATOM     15  C   LIG A   1      -5.874  -3.480 132.283  0.00  0.00    +0.020 C 
ATOM     16  C   LIG A   1      -5.194  -3.892 133.361  0.00  0.00    -0.000 C 
BRANCH  16  17
ATOM     17  C   LIG A   1      -4.115  -4.860 133.303  0.00  0.00    -0.002 C 
ATOM     18  C   LIG A   1      -3.748  -5.712 134.277  0.00  0.00    -0.076 C 
ATOM     19  C   LIG A   1      -4.395  -5.841 135.629  0.00  0.00    +0.038 C 
ATOM     20  C   LIG A   1      -2.592  -6.662 134.072  0.00  0.00    +0.038 C 
ENDBRANCH  16  17
ENDBRANCH   8  15
BRANCH   3  21
ATOM     21  C   LIG A   1      -6.585  -1.628 125.816  0.00  0.00    +0.066 C 
BRANCH  21  22
ATOM     22  C   LIG A   1      -5.624  -2.658 125.271  0.00  0.00    -0.023 C 
ATOM     23  C   LIG A   1      -5.361  -2.940 123.978  0.00  0.00    -0.079 C 
ATOM     24  C   LIG A   1      -6.012  -2.254 122.810  0.00  0.00    +0.038 C 
ATOM     25  C   LIG A   1      -4.363  -4.001 123.597  0.00  0.00    +0.038 C 
ENDBRANCH  21  22
ENDBRANCH   3  21
TORSDOF 5
ENDMDL
