MODEL 1
REMARK VINA RESULT:      -8.1      0.000      0.000
REMARK  Name = NuBBE_1283
REMARK  11 active torsions:
REMARK  status: ('A' for Active; 'I' for Inactive)
REMARK    1  A    between atoms: O_1  and  C_2
REMARK    2  A    between atoms: C_4  and  O_5
REMARK    3  A    between atoms: C_8  and  O_9
REMARK    4  A    between atoms: O_9  and  C_10
REMARK    5  A    between atoms: C_11  and  O_13
REMARK    6  A    between atoms: C_14  and  O_16
REMARK    7  A    between atoms: C_17  and  O_19
REMARK    8  A    between atoms: C_20  and  C_22
REMARK    9  A    between atoms: C_24  and  C_28
REMARK   10  A    between atoms: C_31  and  O_35
REMARK   11  A    between atoms: C_32  and  O_33
REMARK                            x       y       z     vdW  Elec       q    Type
REMARK                         _______ _______ _______ _____ _____    ______ ____
ROOT
ATOM      1  C   LIG A   1      -2.731   6.166 128.636  0.00  0.00    +0.124 A 
ATOM      2  C   LIG A   1      -3.174   6.741 129.825  0.00  0.00    +0.091 A 
ATOM      3  C   LIG A   1      -4.409   6.352 130.348  0.00  0.00    +0.135 A 
ATOM      4  C   LIG A   1      -5.182   5.394 129.682  0.00  0.00    +0.109 A 
ATOM      5  C   LIG A   1      -6.405   4.803 130.240  0.00  0.00    +0.238 A 
ATOM      6  C   LIG A   1      -7.392   4.273 129.244  0.00  0.00    +0.214 A 
ATOM      7  C   LIG A   1      -6.869   3.879 128.057  0.00  0.00    +0.181 A 
ATOM      8  O   LIG A   1      -5.517   4.011 127.736  0.00  0.00    -0.451 OA
ATOM      9  C   LIG A   1      -4.758   4.888 128.462  0.00  0.00    +0.146 A 
ATOM     10  C   LIG A   1      -3.518   5.255 127.940  0.00  0.00    +0.092 A 
ATOM     11  O   LIG A   1      -6.528   4.649 131.453  0.00  0.00    -0.283 OA
ENDROOT
BRANCH   7  12
ATOM     12  C   LIG A   1      -7.630   3.188 126.974  0.00  0.00    +0.025 A 
ATOM     13  C   LIG A   1      -8.231   1.937 127.244  0.00  0.00    +0.015 A 
ATOM     14  C   LIG A   1      -8.949   1.234 126.266  0.00  0.00    +0.050 A 
ATOM     15  C   LIG A   1      -9.082   1.785 125.002  0.00  0.00    +0.158 A 
ATOM     16  C   LIG A   1      -8.492   3.012 124.715  0.00  0.00    +0.159 A 
ATOM     17  C   LIG A   1      -7.757   3.701 125.675  0.00  0.00    +0.060 A 
BRANCH  16  18
ATOM     18  O   LIG A   1      -8.635   3.558 123.470  0.00  0.00    -0.503 OA
ATOM     19  H   LIG A   1      -9.507   3.241 123.161  0.00  0.00    +0.292 HD
ENDBRANCH  16  18
BRANCH  15  20
ATOM     20  O   LIG A   1      -9.775   1.159 124.005  0.00  0.00    -0.503 OA
ATOM     21  H   LIG A   1     -10.108   0.314 124.351  0.00  0.00    +0.292 HD
ENDBRANCH  15  20
ENDBRANCH   7  12
BRANCH   1  22
ATOM     22  O   LIG A   1      -1.513   6.479 128.110  0.00  0.00    -0.506 OA
ATOM     23  H   LIG A   1      -1.436   6.093 127.221  0.00  0.00    +0.292 HD
ENDBRANCH   1  22
BRANCH   3  24
ATOM     24  O   LIG A   1      -4.875   6.940 131.489  0.00  0.00    -0.506 OA
ATOM     25  H   LIG A   1      -4.311   6.712 132.244  0.00  0.00    +0.292 HD
ENDBRANCH   3  24
BRANCH   6  26
ATOM     26  O   LIG A   1      -8.738   4.116 129.540  0.00  0.00    -0.453 OA
BRANCH  26  27
ATOM     27  C   LIG A   1      -9.509   5.279 129.888  0.00  0.00    +0.340 C 
ATOM     28  C   LIG A   1     -10.729   4.781 130.703  0.00  0.00    +0.214 C 
ATOM     29  C   LIG A   1     -11.601   5.968 131.110  0.00  0.00    +0.180 C 
ATOM     30  C   LIG A   1     -11.945   6.840 129.890  0.00  0.00    +0.174 C 
ATOM     31  C   LIG A   1     -10.660   7.181 129.107  0.00  0.00    +0.150 C 
ATOM     32  C   LIG A   1     -10.961   7.986 127.847  0.00  0.00    +0.040 C 
ATOM     33  O   LIG A   1      -9.993   5.969 128.724  0.00  0.00    -0.334 OA
BRANCH  28  34
ATOM     34  O   LIG A   1     -11.533   3.874 129.924  0.00  0.00    -0.383 OA
ATOM     35  H   LIG A   1     -11.028   3.040 129.873  0.00  0.00    +0.210 HD
ENDBRANCH  28  34
BRANCH  29  36
ATOM     36  O   LIG A   1     -10.929   6.769 132.092  0.00  0.00    -0.386 OA
ATOM     37  H   LIG A   1     -10.133   7.109 131.630  0.00  0.00    +0.210 HD
ENDBRANCH  29  36
BRANCH  30  38
ATOM     38  O   LIG A   1     -12.606   8.024 130.361  0.00  0.00    -0.387 OA
ATOM     39  H   LIG A   1     -12.296   8.760 129.803  0.00  0.00    +0.210 HD
ENDBRANCH  30  38
ENDBRANCH  26  27
ENDBRANCH   6  26
TORSDOF 10
ENDMDL
MODEL 2
REMARK VINA RESULT:      -7.9      3.500      7.197
REMARK  Name = NuBBE_1283
REMARK  11 active torsions:
REMARK  status: ('A' for Active; 'I' for Inactive)
REMARK    1  A    between atoms: O_1  and  C_2
REMARK    2  A    between atoms: C_4  and  O_5
REMARK    3  A    between atoms: C_8  and  O_9
REMARK    4  A    between atoms: O_9  and  C_10
REMARK    5  A    between atoms: C_11  and  O_13
REMARK    6  A    between atoms: C_14  and  O_16
REMARK    7  A    between atoms: C_17  and  O_19
REMARK    8  A    between atoms: C_20  and  C_22
REMARK    9  A    between atoms: C_24  and  C_28
REMARK   10  A    between atoms: C_31  and  O_35
REMARK   11  A    between atoms: C_32  and  O_33
REMARK                            x       y       z     vdW  Elec       q    Type
REMARK                         _______ _______ _______ _____ _____    ______ ____
ROOT
ATOM      1  C   LIG A   1      -9.561   3.339 131.569  0.00  0.00    +0.124 A 
ATOM      2  C   LIG A   1      -9.647   2.002 131.955  0.00  0.00    +0.091 A 
ATOM      3  C   LIG A   1      -8.999   1.031 131.190  0.00  0.00    +0.135 A 
ATOM      4  C   LIG A   1      -8.272   1.404 130.054  0.00  0.00    +0.109 A 
ATOM      5  C   LIG A   1      -7.424   0.481 129.290  0.00  0.00    +0.238 A 
ATOM      6  C   LIG A   1      -7.193   0.836 127.852  0.00  0.00    +0.214 A 
ATOM      7  C   LIG A   1      -7.282   2.157 127.556  0.00  0.00    +0.181 A 
ATOM      8  O   LIG A   1      -7.629   3.129 128.496  0.00  0.00    -0.451 OA
ATOM      9  C   LIG A   1      -8.259   2.730 129.643  0.00  0.00    +0.146 A 
ATOM     10  C   LIG A   1      -8.887   3.710 130.411  0.00  0.00    +0.092 A 
ATOM     11  O   LIG A   1      -6.848  -0.448 129.851  0.00  0.00    -0.283 OA
ENDROOT
BRANCH   7  12
ATOM     12  C   LIG A   1      -6.950   2.762 126.232  0.00  0.00    +0.025 A 
ATOM     13  C   LIG A   1      -5.636   3.227 125.996  0.00  0.00    +0.015 A 
ATOM     14  C   LIG A   1      -5.265   3.813 124.778  0.00  0.00    +0.050 A 
ATOM     15  C   LIG A   1      -6.211   3.931 123.773  0.00  0.00    +0.158 A 
ATOM     16  C   LIG A   1      -7.510   3.484 123.987  0.00  0.00    +0.159 A 
ATOM     17  C   LIG A   1      -7.889   2.925 125.204  0.00  0.00    +0.060 A 
BRANCH  16  18
ATOM     18  O   LIG A   1      -8.437   3.592 122.988  0.00  0.00    -0.503 OA
ATOM     19  H   LIG A   1      -9.278   3.779 123.452  0.00  0.00    +0.292 HD
ENDBRANCH  16  18
BRANCH  15  20
ATOM     20  O   LIG A   1      -5.916   4.484 122.559  0.00  0.00    -0.503 OA
ATOM     21  H   LIG A   1      -6.657   4.307 121.956  0.00  0.00    +0.292 HD
ENDBRANCH  15  20
ENDBRANCH   7  12
BRANCH   1  22
ATOM     22  O   LIG A   1     -10.138   4.328 132.309  0.00  0.00    -0.506 OA
ATOM     23  H   LIG A   1      -9.875   4.230 133.239  0.00  0.00    +0.292 HD
ENDBRANCH   1  22
BRANCH   3  24
ATOM     24  O   LIG A   1      -9.112  -0.285 131.532  0.00  0.00    -0.506 OA
ATOM     25  H   LIG A   1      -9.731  -0.393 132.271  0.00  0.00    +0.292 HD
ENDBRANCH   3  24
BRANCH   6  26
ATOM     26  O   LIG A   1      -6.832  -0.104 126.900  0.00  0.00    -0.453 OA
BRANCH  26  27
ATOM     27  C   LIG A   1      -7.869  -0.832 126.219  0.00  0.00    +0.340 C 
ATOM     28  C   LIG A   1      -7.457  -2.326 126.241  0.00  0.00    +0.214 C 
ATOM     29  C   LIG A   1      -8.517  -3.167 125.529  0.00  0.00    +0.180 C 
ATOM     30  C   LIG A   1      -8.826  -2.596 124.135  0.00  0.00    +0.174 C 
ATOM     31  C   LIG A   1      -9.117  -1.085 124.236  0.00  0.00    +0.150 C 
ATOM     32  C   LIG A   1      -9.359  -0.461 122.866  0.00  0.00    +0.040 C 
ATOM     33  O   LIG A   1      -8.002  -0.419 124.849  0.00  0.00    -0.334 OA
BRANCH  28  34
ATOM     34  O   LIG A   1      -6.198  -2.522 125.569  0.00  0.00    -0.383 OA
ATOM     35  H   LIG A   1      -6.023  -1.699 125.075  0.00  0.00    +0.210 HD
ENDBRANCH  28  34
BRANCH  29  36
ATOM     36  O   LIG A   1      -9.724  -3.208 126.304  0.00  0.00    -0.386 OA
ATOM     37  H   LIG A   1      -9.672  -4.057 126.794  0.00  0.00    +0.210 HD
ENDBRANCH  29  36
BRANCH  30  38
ATOM     38  O   LIG A   1      -9.946  -3.315 123.597  0.00  0.00    -0.387 OA
ATOM     39  H   LIG A   1      -9.917  -4.209 123.984  0.00  0.00    +0.210 HD
ENDBRANCH  30  38
ENDBRANCH  26  27
ENDBRANCH   6  26
TORSDOF 10
ENDMDL
MODEL 3
REMARK VINA RESULT:      -7.8      3.065      7.003
REMARK  Name = NuBBE_1283
REMARK  11 active torsions:
REMARK  status: ('A' for Active; 'I' for Inactive)
REMARK    1  A    between atoms: O_1  and  C_2
REMARK    2  A    between atoms: C_4  and  O_5
REMARK    3  A    between atoms: C_8  and  O_9
REMARK    4  A    between atoms: O_9  and  C_10
REMARK    5  A    between atoms: C_11  and  O_13
REMARK    6  A    between atoms: C_14  and  O_16
REMARK    7  A    between atoms: C_17  and  O_19
REMARK    8  A    between atoms: C_20  and  C_22
REMARK    9  A    between atoms: C_24  and  C_28
REMARK   10  A    between atoms: C_31  and  O_35
REMARK   11  A    between atoms: C_32  and  O_33
REMARK                            x       y       z     vdW  Elec       q    Type
REMARK                         _______ _______ _______ _____ _____    ______ ____
ROOT
ATOM      1  C   LIG A   1     -11.273   8.035 129.184  0.00  0.00    +0.124 A 
ATOM      2  C   LIG A   1     -12.006   7.291 130.107  0.00  0.00    +0.091 A 
ATOM      3  C   LIG A   1     -11.330   6.613 131.123  0.00  0.00    +0.135 A 
ATOM      4  C   LIG A   1      -9.935   6.688 131.209  0.00  0.00    +0.109 A 
ATOM      5  C   LIG A   1      -9.158   6.153 132.333  0.00  0.00    +0.238 A 
ATOM      6  C   LIG A   1      -7.733   5.792 132.036  0.00  0.00    +0.214 A 
ATOM      7  C   LIG A   1      -7.160   6.475 131.014  0.00  0.00    +0.181 A 
ATOM      8  O   LIG A   1      -7.849   7.406 130.235  0.00  0.00    -0.451 OA
ATOM      9  C   LIG A   1      -9.217   7.372 130.238  0.00  0.00    +0.146 A 
ATOM     10  C   LIG A   1      -9.883   8.068 129.230  0.00  0.00    +0.092 A 
ATOM     11  O   LIG A   1      -9.631   6.132 133.467  0.00  0.00    -0.283 OA
ENDROOT
BRANCH   7  12
ATOM     12  C   LIG A   1      -5.719   6.393 130.632  0.00  0.00    +0.025 A 
ATOM     13  C   LIG A   1      -4.808   7.330 131.172  0.00  0.00    +0.015 A 
ATOM     14  C   LIG A   1      -3.445   7.312 130.844  0.00  0.00    +0.050 A 
ATOM     15  C   LIG A   1      -2.976   6.342 129.975  0.00  0.00    +0.158 A 
ATOM     16  C   LIG A   1      -3.856   5.414 129.429  0.00  0.00    +0.159 A 
ATOM     17  C   LIG A   1      -5.214   5.444 129.732  0.00  0.00    +0.060 A 
BRANCH  16  18
ATOM     18  O   LIG A   1      -3.387   4.451 128.580  0.00  0.00    -0.503 OA
ATOM     19  H   LIG A   1      -3.170   3.694 129.162  0.00  0.00    +0.292 HD
ENDBRANCH  16  18
BRANCH  15  20
ATOM     20  O   LIG A   1      -1.659   6.260 129.619  0.00  0.00    -0.503 OA
ATOM     21  H   LIG A   1      -1.546   5.481 129.048  0.00  0.00    +0.292 HD
ENDBRANCH  15  20
ENDBRANCH   7  12
BRANCH   1  22
ATOM     22  O   LIG A   1     -11.890   8.750 128.201  0.00  0.00    -0.506 OA
ATOM     23  H   LIG A   1     -12.471   8.161 127.691  0.00  0.00    +0.292 HD
ENDBRANCH   1  22
BRANCH   3  24
ATOM     24  O   LIG A   1     -12.032   5.846 132.007  0.00  0.00    -0.506 OA
ATOM     25  H   LIG A   1     -12.471   6.403 132.668  0.00  0.00    +0.292 HD
ENDBRANCH   3  24
BRANCH   6  26
ATOM     26  O   LIG A   1      -7.019   4.884 132.801  0.00  0.00    -0.453 OA
BRANCH  26  27
ATOM     27  C   LIG A   1      -7.252   3.478 132.603  0.00  0.00    +0.340 C 
ATOM     28  C   LIG A   1      -5.964   2.742 133.048  0.00  0.00    +0.214 C 
ATOM     29  C   LIG A   1      -6.138   1.235 132.863  0.00  0.00    +0.180 C 
ATOM     30  C   LIG A   1      -6.616   0.908 131.438  0.00  0.00    +0.174 C 
ATOM     31  C   LIG A   1      -7.837   1.779 131.078  0.00  0.00    +0.150 C 
ATOM     32  C   LIG A   1      -8.301   1.539 129.646  0.00  0.00    +0.040 C 
ATOM     33  O   LIG A   1      -7.498   3.166 131.221  0.00  0.00    -0.334 OA
BRANCH  28  34
ATOM     34  O   LIG A   1      -4.832   3.167 132.266  0.00  0.00    -0.383 OA
ATOM     35  H   LIG A   1      -4.230   2.400 132.222  0.00  0.00    +0.210 HD
ENDBRANCH  28  34
BRANCH  29  36
ATOM     36  O   LIG A   1      -7.084   0.721 133.811  0.00  0.00    -0.386 OA
ATOM     37  H   LIG A   1      -7.377   1.508 134.318  0.00  0.00    +0.210 HD
ENDBRANCH  29  36
BRANCH  30  38
ATOM     38  O   LIG A   1      -6.930  -0.492 131.384  0.00  0.00    -0.387 OA
ATOM     39  H   LIG A   1      -7.796  -0.569 130.944  0.00  0.00    +0.210 HD
ENDBRANCH  30  38
ENDBRANCH  26  27
ENDBRANCH   6  26
TORSDOF 10
ENDMDL
MODEL 4
REMARK VINA RESULT:      -7.8      2.160      4.891
REMARK  Name = NuBBE_1283
REMARK  11 active torsions:
REMARK  status: ('A' for Active; 'I' for Inactive)
REMARK    1  A    between atoms: O_1  and  C_2
REMARK    2  A    between atoms: C_4  and  O_5
REMARK    3  A    between atoms: C_8  and  O_9
REMARK    4  A    between atoms: O_9  and  C_10
REMARK    5  A    between atoms: C_11  and  O_13
REMARK    6  A    between atoms: C_14  and  O_16
REMARK    7  A    between atoms: C_17  and  O_19
REMARK    8  A    between atoms: C_20  and  C_22
REMARK    9  A    between atoms: C_24  and  C_28
REMARK   10  A    between atoms: C_31  and  O_35
REMARK   11  A    between atoms: C_32  and  O_33
REMARK                            x       y       z     vdW  Elec       q    Type
REMARK                         _______ _______ _______ _____ _____    ______ ____
ROOT
ATOM      1  C   LIG A   1      -2.915   3.700 127.017  0.00  0.00    +0.124 A 
ATOM      2  C   LIG A   1      -3.701   3.471 125.890  0.00  0.00    +0.091 A 
ATOM      3  C   LIG A   1      -5.079   3.680 125.970  0.00  0.00    +0.135 A 
ATOM      4  C   LIG A   1      -5.654   4.118 127.168  0.00  0.00    +0.109 A 
ATOM      5  C   LIG A   1      -7.058   4.526 127.298  0.00  0.00    +0.238 A 
ATOM      6  C   LIG A   1      -7.654   4.409 128.668  0.00  0.00    +0.214 A 
ATOM      7  C   LIG A   1      -6.773   4.496 129.696  0.00  0.00    +0.181 A 
ATOM      8  O   LIG A   1      -5.394   4.618 129.513  0.00  0.00    -0.451 OA
ATOM      9  C   LIG A   1      -4.865   4.269 128.300  0.00  0.00    +0.146 A 
ATOM     10  C   LIG A   1      -3.486   4.082 128.227  0.00  0.00    +0.092 A 
ATOM     11  O   LIG A   1      -7.647   5.047 126.353  0.00  0.00    -0.283 OA
ENDROOT
BRANCH   7  12
ATOM     12  C   LIG A   1      -7.146   4.554 131.140  0.00  0.00    +0.025 A 
ATOM     13  C   LIG A   1      -7.067   5.789 131.824  0.00  0.00    +0.015 A 
ATOM     14  C   LIG A   1      -7.394   5.906 133.182  0.00  0.00    +0.050 A 
ATOM     15  C   LIG A   1      -7.817   4.781 133.871  0.00  0.00    +0.158 A 
ATOM     16  C   LIG A   1      -7.896   3.556 133.218  0.00  0.00    +0.159 A 
ATOM     17  C   LIG A   1      -7.548   3.430 131.877  0.00  0.00    +0.060 A 
BRANCH  16  18
ATOM     18  O   LIG A   1      -8.324   2.451 133.900  0.00  0.00    -0.503 OA
ATOM     19  H   LIG A   1      -9.298   2.544 133.932  0.00  0.00    +0.292 HD
ENDBRANCH  16  18
BRANCH  15  20
ATOM     20  O   LIG A   1      -8.159   4.825 135.193  0.00  0.00    -0.503 OA
ATOM     21  H   LIG A   1      -8.907   5.439 135.293  0.00  0.00    +0.292 HD
ENDBRANCH  15  20
ENDBRANCH   7  12
BRANCH   1  22
ATOM     22  O   LIG A   1      -1.560   3.553 126.977  0.00  0.00    -0.506 OA
ATOM     23  H   LIG A   1      -1.321   2.672 127.312  0.00  0.00    +0.292 HD
ENDBRANCH   1  22
BRANCH   3  24
ATOM     24  O   LIG A   1      -5.866   3.418 124.886  0.00  0.00    -0.506 OA
ATOM     25  H   LIG A   1      -6.005   2.463 124.789  0.00  0.00    +0.292 HD
ENDBRANCH   3  24
BRANCH   6  26
ATOM     26  O   LIG A   1      -9.019   4.303 128.881  0.00  0.00    -0.453 OA
BRANCH  26  27
ATOM     27  C   LIG A   1      -9.718   5.423 129.451  0.00  0.00    +0.340 C 
ATOM     28  C   LIG A   1     -10.698   4.851 130.506  0.00  0.00    +0.214 C 
ATOM     29  C   LIG A   1     -11.483   5.989 131.157  0.00  0.00    +0.180 C 
ATOM     30  C   LIG A   1     -12.128   6.892 130.091  0.00  0.00    +0.174 C 
ATOM     31  C   LIG A   1     -11.073   7.308 129.046  0.00  0.00    +0.150 C 
ATOM     32  C   LIG A   1     -11.684   8.147 127.928  0.00  0.00    +0.040 C 
ATOM     33  O   LIG A   1     -10.482   6.136 128.464  0.00  0.00    -0.334 OA
BRANCH  28  34
ATOM     34  O   LIG A   1     -11.638   3.944 129.898  0.00  0.00    -0.383 OA
ATOM     35  H   LIG A   1     -11.151   3.112 129.745  0.00  0.00    +0.210 HD
ENDBRANCH  28  34
BRANCH  29  36
ATOM     36  O   LIG A   1     -10.621   6.778 131.990  0.00  0.00    -0.386 OA
ATOM     37  H   LIG A   1      -9.740   6.713 131.563  0.00  0.00    +0.210 HD
ENDBRANCH  29  36
BRANCH  30  38
ATOM     38  O   LIG A   1     -12.692   8.032 130.756  0.00  0.00    -0.387 OA
ATOM     39  H   LIG A   1     -13.640   7.842 130.884  0.00  0.00    +0.210 HD
ENDBRANCH  30  38
ENDBRANCH  26  27
ENDBRANCH   6  26
TORSDOF 10
ENDMDL
MODEL 5
REMARK VINA RESULT:      -7.8      5.139      8.363
REMARK  Name = NuBBE_1283
REMARK  11 active torsions:
REMARK  status: ('A' for Active; 'I' for Inactive)
REMARK    1  A    between atoms: O_1  and  C_2
REMARK    2  A    between atoms: C_4  and  O_5
REMARK    3  A    between atoms: C_8  and  O_9
REMARK    4  A    between atoms: O_9  and  C_10
REMARK    5  A    between atoms: C_11  and  O_13
REMARK    6  A    between atoms: C_14  and  O_16
REMARK    7  A    between atoms: C_17  and  O_19
REMARK    8  A    between atoms: C_20  and  C_22
REMARK    9  A    between atoms: C_24  and  C_28
REMARK   10  A    between atoms: C_31  and  O_35
REMARK   11  A    between atoms: C_32  and  O_33
REMARK                            x       y       z     vdW  Elec       q    Type
REMARK                         _______ _______ _______ _____ _____    ______ ____
ROOT
ATOM      1  C   LIG A   1      -4.660   5.123 121.439  0.00  0.00    +0.124 A 
ATOM      2  C   LIG A   1      -5.519   4.743 120.409  0.00  0.00    +0.091 A 
ATOM      3  C   LIG A   1      -6.634   3.959 120.711  0.00  0.00    +0.135 A 
ATOM      4  C   LIG A   1      -6.880   3.569 122.032  0.00  0.00    +0.109 A 
ATOM      5  C   LIG A   1      -8.109   2.894 122.467  0.00  0.00    +0.238 A 
ATOM      6  C   LIG A   1      -7.997   2.054 123.704  0.00  0.00    +0.214 A 
ATOM      7  C   LIG A   1      -7.023   2.423 124.572  0.00  0.00    +0.181 A 
ATOM      8  O   LIG A   1      -6.131   3.468 124.322  0.00  0.00    -0.451 OA
ATOM      9  C   LIG A   1      -5.974   3.895 123.031  0.00  0.00    +0.146 A 
ATOM     10  C   LIG A   1      -4.867   4.693 122.745  0.00  0.00    +0.092 A 
ATOM     11  O   LIG A   1      -9.179   3.122 121.907  0.00  0.00    -0.283 OA
ENDROOT
BRANCH   7  12
ATOM     12  C   LIG A   1      -6.817   1.834 125.928  0.00  0.00    +0.025 A 
ATOM     13  C   LIG A   1      -7.631   2.267 127.000  0.00  0.00    +0.015 A 
ATOM     14  C   LIG A   1      -7.480   1.759 128.298  0.00  0.00    +0.050 A 
ATOM     15  C   LIG A   1      -6.512   0.798 128.535  0.00  0.00    +0.158 A 
ATOM     16  C   LIG A   1      -5.697   0.363 127.496  0.00  0.00    +0.159 A 
ATOM     17  C   LIG A   1      -5.827   0.883 126.211  0.00  0.00    +0.060 A 
BRANCH  16  18
ATOM     18  O   LIG A   1      -4.750  -0.595 127.732  0.00  0.00    -0.503 OA
ATOM     19  H   LIG A   1      -5.222  -1.288 128.237  0.00  0.00    +0.292 HD
ENDBRANCH  16  18
BRANCH  15  20
ATOM     20  O   LIG A   1      -6.317   0.254 129.773  0.00  0.00    -0.503 OA
ATOM     21  H   LIG A   1      -7.105  -0.264 130.005  0.00  0.00    +0.292 HD
ENDBRANCH  15  20
ENDBRANCH   7  12
BRANCH   1  22
ATOM     22  O   LIG A   1      -3.583   5.925 121.202  0.00  0.00    -0.506 OA
ATOM     23  H   LIG A   1      -3.377   5.917 120.252  0.00  0.00    +0.292 HD
ENDBRANCH   1  22
BRANCH   3  24
ATOM     24  O   LIG A   1      -7.459   3.543 119.706  0.00  0.00    -0.506 OA
ATOM     25  H   LIG A   1      -6.943   3.277 118.930  0.00  0.00    +0.292 HD
ENDBRANCH   3  24
BRANCH   6  26
ATOM     26  O   LIG A   1      -8.877   1.022 123.987  0.00  0.00    -0.453 OA
BRANCH  26  27
ATOM     27  C   LIG A   1      -8.347  -0.298 124.204  0.00  0.00    +0.340 C 
ATOM     28  C   LIG A   1      -8.724  -1.143 122.962  0.00  0.00    +0.214 C 
ATOM     29  C   LIG A   1      -8.193  -2.567 123.123  0.00  0.00    +0.180 C 
ATOM     30  C   LIG A   1      -8.625  -3.165 124.473  0.00  0.00    +0.174 C 
ATOM     31  C   LIG A   1      -8.288  -2.185 125.615  0.00  0.00    +0.150 C 
ATOM     32  C   LIG A   1      -8.765  -2.705 126.967  0.00  0.00    +0.040 C 
ATOM     33  O   LIG A   1      -8.921  -0.920 125.366  0.00  0.00    -0.334 OA
BRANCH  28  34
ATOM     34  O   LIG A   1     -10.154  -1.209 122.798  0.00  0.00    -0.383 OA
ATOM     35  H   LIG A   1     -10.346  -2.100 122.449  0.00  0.00    +0.210 HD
ENDBRANCH  28  34
BRANCH  29  36
ATOM     36  O   LIG A   1      -6.761  -2.579 123.034  0.00  0.00    -0.386 OA
ATOM     37  H   LIG A   1      -6.456  -2.418 123.952  0.00  0.00    +0.210 HD
ENDBRANCH  29  36
BRANCH  30  38
ATOM     38  O   LIG A   1      -7.951  -4.421 124.639  0.00  0.00    -0.387 OA
ATOM     39  H   LIG A   1      -8.102  -4.702 125.561  0.00  0.00    +0.210 HD
ENDBRANCH  30  38
ENDBRANCH  26  27
ENDBRANCH   6  26
TORSDOF 10
ENDMDL
MODEL 6
REMARK VINA RESULT:      -7.6      2.615      7.432
REMARK  Name = NuBBE_1283
REMARK  11 active torsions:
REMARK  status: ('A' for Active; 'I' for Inactive)
REMARK    1  A    between atoms: O_1  and  C_2
REMARK    2  A    between atoms: C_4  and  O_5
REMARK    3  A    between atoms: C_8  and  O_9
REMARK    4  A    between atoms: O_9  and  C_10
REMARK    5  A    between atoms: C_11  and  O_13
REMARK    6  A    between atoms: C_14  and  O_16
REMARK    7  A    between atoms: C_17  and  O_19
REMARK    8  A    between atoms: C_20  and  C_22
REMARK    9  A    between atoms: C_24  and  C_28
REMARK   10  A    between atoms: C_31  and  O_35
REMARK   11  A    between atoms: C_32  and  O_33
REMARK                            x       y       z     vdW  Elec       q    Type
REMARK                         _______ _______ _______ _____ _____    ______ ____
ROOT
ATOM      1  C   LIG A   1     -12.099   7.120 131.040  0.00  0.00    +0.124 A 
ATOM      2  C   LIG A   1     -11.578   7.753 129.913  0.00  0.00    +0.091 A 
ATOM      3  C   LIG A   1     -10.495   7.173 129.248  0.00  0.00    +0.135 A 
ATOM      4  C   LIG A   1      -9.950   5.971 129.712  0.00  0.00    +0.109 A 
ATOM      5  C   LIG A   1      -8.930   5.205 128.985  0.00  0.00    +0.238 A 
ATOM      6  C   LIG A   1      -8.060   4.312 129.818  0.00  0.00    +0.214 A 
ATOM      7  C   LIG A   1      -8.614   3.872 130.975  0.00  0.00    +0.181 A 
ATOM      8  O   LIG A   1      -9.880   4.263 131.414  0.00  0.00    -0.451 OA
ATOM      9  C   LIG A   1     -10.434   5.395 130.878  0.00  0.00    +0.146 A 
ATOM     10  C   LIG A   1     -11.527   5.954 131.539  0.00  0.00    +0.092 A 
ATOM     11  O   LIG A   1      -8.897   5.216 127.757  0.00  0.00    -0.283 OA
ENDROOT
BRANCH   7  12
ATOM     12  C   LIG A   1      -8.000   2.864 131.889  0.00  0.00    +0.025 A 
ATOM     13  C   LIG A   1      -7.291   3.307 133.028  0.00  0.00    +0.015 A 
ATOM     14  C   LIG A   1      -6.683   2.410 133.918  0.00  0.00    +0.050 A 
ATOM     15  C   LIG A   1      -6.789   1.050 133.679  0.00  0.00    +0.158 A 
ATOM     16  C   LIG A   1      -7.477   0.594 132.560  0.00  0.00    +0.159 A 
ATOM     17  C   LIG A   1      -8.060   1.482 131.661  0.00  0.00    +0.060 A 
BRANCH  16  18
ATOM     18  O   LIG A   1      -7.589  -0.750 132.334  0.00  0.00    -0.503 OA
ATOM     19  H   LIG A   1      -8.460  -0.855 131.901  0.00  0.00    +0.292 HD
ENDBRANCH  16  18
BRANCH  15  20
ATOM     20  O   LIG A   1      -6.229   0.121 134.510  0.00  0.00    -0.503 OA
ATOM     21  H   LIG A   1      -6.703  -0.719 134.389  0.00  0.00    +0.292 HD
ENDBRANCH  15  20
ENDBRANCH   7  12
BRANCH   1  22
ATOM     22  O   LIG A   1     -13.182   7.622 131.697  0.00  0.00    -0.506 OA
ATOM     23  H   LIG A   1     -13.951   7.049 131.538  0.00  0.00    +0.292 HD
ENDBRANCH   1  22
BRANCH   3  24
ATOM     24  O   LIG A   1      -9.949   7.805 128.169  0.00  0.00    -0.506 OA
ATOM     25  H   LIG A   1     -10.077   7.279 127.365  0.00  0.00    +0.292 HD
ENDBRANCH   3  24
BRANCH   6  26
ATOM     26  O   LIG A   1      -6.806   3.894 129.402  0.00  0.00    -0.453 OA
BRANCH  26  27
ATOM     27  C   LIG A   1      -5.688   4.783 129.576  0.00  0.00    +0.340 C 
ATOM     28  C   LIG A   1      -4.950   4.848 128.215  0.00  0.00    +0.214 C 
ATOM     29  C   LIG A   1      -3.742   5.778 128.324  0.00  0.00    +0.180 C 
ATOM     30  C   LIG A   1      -2.861   5.395 129.526  0.00  0.00    +0.174 C 
ATOM     31  C   LIG A   1      -3.728   5.262 130.794  0.00  0.00    +0.150 C 
ATOM     32  C   LIG A   1      -2.907   4.813 131.998  0.00  0.00    +0.040 C 
ATOM     33  O   LIG A   1      -4.768   4.298 130.568  0.00  0.00    -0.334 OA
BRANCH  28  34
ATOM     34  O   LIG A   1      -4.483   3.544 127.820  0.00  0.00    -0.383 OA
ATOM     35  H   LIG A   1      -4.722   2.939 128.547  0.00  0.00    +0.210 HD
ENDBRANCH  28  34
BRANCH  29  36
ATOM     36  O   LIG A   1      -4.171   7.140 128.464  0.00  0.00    -0.386 OA
ATOM     37  H   LIG A   1      -4.210   7.288 129.433  0.00  0.00    +0.210 HD
ENDBRANCH  29  36
BRANCH  30  38
ATOM     38  O   LIG A   1      -1.853   6.406 129.679  0.00  0.00    -0.387 OA
ATOM     39  H   LIG A   1      -1.974   6.792 130.566  0.00  0.00    +0.210 HD
ENDBRANCH  30  38
ENDBRANCH  26  27
ENDBRANCH   6  26
TORSDOF 10
ENDMDL
MODEL 7
REMARK VINA RESULT:      -7.6      4.089      7.629
REMARK  Name = NuBBE_1283
REMARK  11 active torsions:
REMARK  status: ('A' for Active; 'I' for Inactive)
REMARK    1  A    between atoms: O_1  and  C_2
REMARK    2  A    between atoms: C_4  and  O_5
REMARK    3  A    between atoms: C_8  and  O_9
REMARK    4  A    between atoms: O_9  and  C_10
REMARK    5  A    between atoms: C_11  and  O_13
REMARK    6  A    between atoms: C_14  and  O_16
REMARK    7  A    between atoms: C_17  and  O_19
REMARK    8  A    between atoms: C_20  and  C_22
REMARK    9  A    between atoms: C_24  and  C_28
REMARK   10  A    between atoms: C_31  and  O_35
REMARK   11  A    between atoms: C_32  and  O_33
REMARK                            x       y       z     vdW  Elec       q    Type
REMARK                         _______ _______ _______ _____ _____    ______ ____
ROOT
ATOM      1  C   LIG A   1      -8.208  -2.911 124.861  0.00  0.00    +0.124 A 
ATOM      2  C   LIG A   1      -7.726  -2.697 126.152  0.00  0.00    +0.091 A 
ATOM      3  C   LIG A   1      -7.399  -1.399 126.549  0.00  0.00    +0.135 A 
ATOM      4  C   LIG A   1      -7.560  -0.332 125.657  0.00  0.00    +0.109 A 
ATOM      5  C   LIG A   1      -7.406   1.077 126.037  0.00  0.00    +0.238 A 
ATOM      6  C   LIG A   1      -7.041   2.021 124.931  0.00  0.00    +0.214 A 
ATOM      7  C   LIG A   1      -7.429   1.640 123.689  0.00  0.00    +0.181 A 
ATOM      8  O   LIG A   1      -8.065   0.426 123.425  0.00  0.00    -0.451 OA
ATOM      9  C   LIG A   1      -7.971  -0.574 124.354  0.00  0.00    +0.146 A 
ATOM     10  C   LIG A   1      -8.318  -1.863 123.953  0.00  0.00    +0.092 A 
ATOM     11  O   LIG A   1      -7.689   1.453 127.173  0.00  0.00    -0.283 OA
ENDROOT
BRANCH   7  12
ATOM     12  C   LIG A   1      -7.308   2.480 122.460  0.00  0.00    +0.025 A 
ATOM     13  C   LIG A   1      -6.023   2.776 121.950  0.00  0.00    +0.015 A 
ATOM     14  C   LIG A   1      -5.844   3.567 120.806  0.00  0.00    +0.050 A 
ATOM     15  C   LIG A   1      -6.959   4.064 120.152  0.00  0.00    +0.158 A 
ATOM     16  C   LIG A   1      -8.231   3.789 120.641  0.00  0.00    +0.159 A 
ATOM     17  C   LIG A   1      -8.412   3.026 121.790  0.00  0.00    +0.060 A 
BRANCH  16  18
ATOM     18  O   LIG A   1      -9.329   4.273 119.985  0.00  0.00    -0.503 OA
ATOM     19  H   LIG A   1      -9.175   5.238 119.926  0.00  0.00    +0.292 HD
ENDBRANCH  16  18
BRANCH  15  20
ATOM     20  O   LIG A   1      -6.858   4.834 119.027  0.00  0.00    -0.503 OA
ATOM     21  H   LIG A   1      -5.955   5.193 118.985  0.00  0.00    +0.292 HD
ENDBRANCH  15  20
ENDBRANCH   7  12
BRANCH   1  22
ATOM     22  O   LIG A   1      -8.583  -4.153 124.442  0.00  0.00    -0.506 OA
ATOM     23  H   LIG A   1      -8.049  -4.823 124.902  0.00  0.00    +0.292 HD
ENDBRANCH   1  22
BRANCH   3  24
ATOM     24  O   LIG A   1      -6.885  -1.183 127.794  0.00  0.00    -0.506 OA
ATOM     25  H   LIG A   1      -6.304  -0.407 127.793  0.00  0.00    +0.292 HD
ENDBRANCH   3  24
BRANCH   6  26
ATOM     26  O   LIG A   1      -6.424   3.240 125.164  0.00  0.00    -0.453 OA
BRANCH  26  27
ATOM     27  C   LIG A   1      -5.476   3.340 126.242  0.00  0.00    +0.340 C 
ATOM     28  C   LIG A   1      -5.762   4.678 126.969  0.00  0.00    +0.214 C 
ATOM     29  C   LIG A   1      -4.786   4.855 128.132  0.00  0.00    +0.180 C 
ATOM     30  C   LIG A   1      -3.333   4.665 127.663  0.00  0.00    +0.174 C 
ATOM     31  C   LIG A   1      -3.203   3.352 126.866  0.00  0.00    +0.150 C 
ATOM     32  C   LIG A   1      -1.793   3.158 126.320  0.00  0.00    +0.040 C 
ATOM     33  O   LIG A   1      -4.121   3.366 125.762  0.00  0.00    -0.334 OA
BRANCH  28  34
ATOM     34  O   LIG A   1      -5.605   5.794 126.072  0.00  0.00    -0.383 OA
ATOM     35  H   LIG A   1      -4.766   5.645 125.597  0.00  0.00    +0.210 HD
ENDBRANCH  28  34
BRANCH  29  36
ATOM     36  O   LIG A   1      -5.076   3.914 129.175  0.00  0.00    -0.386 OA
ATOM     37  H   LIG A   1      -6.044   3.767 129.111  0.00  0.00    +0.210 HD
ENDBRANCH  29  36
BRANCH  30  38
ATOM     38  O   LIG A   1      -2.488   4.665 128.823  0.00  0.00    -0.387 OA
ATOM     39  H   LIG A   1      -1.913   5.449 128.753  0.00  0.00    +0.210 HD
ENDBRANCH  30  38
ENDBRANCH  26  27
ENDBRANCH   6  26
TORSDOF 10
ENDMDL
MODEL 8
REMARK VINA RESULT:      -7.5      2.064      6.026
REMARK  Name = NuBBE_1283
REMARK  11 active torsions:
REMARK  status: ('A' for Active; 'I' for Inactive)
REMARK    1  A    between atoms: O_1  and  C_2
REMARK    2  A    between atoms: C_4  and  O_5
REMARK    3  A    between atoms: C_8  and  O_9
REMARK    4  A    between atoms: O_9  and  C_10
REMARK    5  A    between atoms: C_11  and  O_13
REMARK    6  A    between atoms: C_14  and  O_16
REMARK    7  A    between atoms: C_17  and  O_19
REMARK    8  A    between atoms: C_20  and  C_22
REMARK    9  A    between atoms: C_24  and  C_28
REMARK   10  A    between atoms: C_31  and  O_35
REMARK   11  A    between atoms: C_32  and  O_33
REMARK                            x       y       z     vdW  Elec       q    Type
REMARK                         _______ _______ _______ _____ _____    ______ ____
ROOT
ATOM      1  C   LIG A   1      -6.125  -0.797 125.909  0.00  0.00    +0.124 A 
ATOM      2  C   LIG A   1      -7.509  -0.635 125.887  0.00  0.00    +0.091 A 
ATOM      3  C   LIG A   1      -8.054   0.601 126.245  0.00  0.00    +0.135 A 
ATOM      4  C   LIG A   1      -7.213   1.656 126.614  0.00  0.00    +0.109 A 
ATOM      5  C   LIG A   1      -7.680   3.029 126.840  0.00  0.00    +0.238 A 
ATOM      6  C   LIG A   1      -6.837   3.871 127.749  0.00  0.00    +0.214 A 
ATOM      7  C   LIG A   1      -5.526   3.529 127.811  0.00  0.00    +0.181 A 
ATOM      8  O   LIG A   1      -4.989   2.431 127.135  0.00  0.00    -0.451 OA
ATOM      9  C   LIG A   1      -5.842   1.453 126.701  0.00  0.00    +0.146 A 
ATOM     10  C   LIG A   1      -5.287   0.230 126.328  0.00  0.00    +0.092 A 
ATOM     11  O   LIG A   1      -8.636   3.476 126.209  0.00  0.00    -0.283 OA
ENDROOT
BRANCH   7  12
ATOM     12  C   LIG A   1      -4.471   4.305 128.529  0.00  0.00    +0.025 A 
ATOM     13  C   LIG A   1      -4.262   4.072 129.907  0.00  0.00    +0.015 A 
ATOM     14  C   LIG A   1      -3.294   4.776 130.639  0.00  0.00    +0.050 A 
ATOM     15  C   LIG A   1      -2.515   5.719 129.990  0.00  0.00    +0.158 A 
ATOM     16  C   LIG A   1      -2.710   5.967 128.635  0.00  0.00    +0.159 A 
ATOM     17  C   LIG A   1      -3.686   5.289 127.911  0.00  0.00    +0.060 A 
BRANCH  16  18
ATOM     18  O   LIG A   1      -1.931   6.891 127.996  0.00  0.00    -0.503 OA
ATOM     19  H   LIG A   1      -1.201   7.073 128.621  0.00  0.00    +0.292 HD
ENDBRANCH  16  18
BRANCH  15  20
ATOM     20  O   LIG A   1      -1.549   6.435 130.639  0.00  0.00    -0.503 OA
ATOM     21  H   LIG A   1      -0.763   5.871 130.730  0.00  0.00    +0.292 HD
ENDBRANCH  15  20
ENDBRANCH   7  12
BRANCH   1  22
ATOM     22  O   LIG A   1      -5.544  -1.970 125.526  0.00  0.00    -0.506 OA
ATOM     23  H   LIG A   1      -4.977  -1.811 124.753  0.00  0.00    +0.292 HD
ENDBRANCH   1  22
BRANCH   3  24
ATOM     24  O   LIG A   1      -9.409   0.760 126.270  0.00  0.00    -0.506 OA
ATOM     25  H   LIG A   1      -9.713   0.947 127.171  0.00  0.00    +0.292 HD
ENDBRANCH   3  24
BRANCH   6  26
ATOM     26  O   LIG A   1      -7.337   4.976 128.421  0.00  0.00    -0.453 OA
BRANCH  26  27
ATOM     27  C   LIG A   1      -8.067   4.769 129.642  0.00  0.00    +0.340 C 
ATOM     28  C   LIG A   1      -9.468   5.398 129.440  0.00  0.00    +0.214 C 
ATOM     29  C   LIG A   1     -10.306   5.218 130.706  0.00  0.00    +0.180 C 
ATOM     30  C   LIG A   1      -9.542   5.715 131.945  0.00  0.00    +0.174 C 
ATOM     31  C   LIG A   1      -8.129   5.097 131.976  0.00  0.00    +0.150 C 
ATOM     32  C   LIG A   1      -7.308   5.618 133.150  0.00  0.00    +0.040 C 
ATOM     33  O   LIG A   1      -7.436   5.418 130.759  0.00  0.00    -0.334 OA
BRANCH  28  34
ATOM     34  O   LIG A   1      -9.365   6.808 129.163  0.00  0.00    -0.383 OA
ATOM     35  H   LIG A   1     -10.081   7.237 129.667  0.00  0.00    +0.210 HD
ENDBRANCH  28  34
BRANCH  29  36
ATOM     36  O   LIG A   1     -10.653   3.837 130.883  0.00  0.00    -0.386 OA
ATOM     37  H   LIG A   1      -9.953   3.481 131.471  0.00  0.00    +0.210 HD
ENDBRANCH  29  36
BRANCH  30  38
ATOM     38  O   LIG A   1     -10.301   5.356 133.109  0.00  0.00    -0.387 OA
ATOM     39  H   LIG A   1      -9.962   4.493 133.411  0.00  0.00    +0.210 HD
ENDBRANCH  30  38
ENDBRANCH  26  27
ENDBRANCH   6  26
TORSDOF 10
ENDMDL
MODEL 9
REMARK VINA RESULT:      -7.5      2.144      7.018
REMARK  Name = NuBBE_1283
REMARK  11 active torsions:
REMARK  status: ('A' for Active; 'I' for Inactive)
REMARK    1  A    between atoms: O_1  and  C_2
REMARK    2  A    between atoms: C_4  and  O_5
REMARK    3  A    between atoms: C_8  and  O_9
REMARK    4  A    between atoms: O_9  and  C_10
REMARK    5  A    between atoms: C_11  and  O_13
REMARK    6  A    between atoms: C_14  and  O_16
REMARK    7  A    between atoms: C_17  and  O_19
REMARK    8  A    between atoms: C_20  and  C_22
REMARK    9  A    between atoms: C_24  and  C_28
REMARK   10  A    between atoms: C_31  and  O_35
REMARK   11  A    between atoms: C_32  and  O_33
REMARK                            x       y       z     vdW  Elec       q    Type
REMARK                         _______ _______ _______ _____ _____    ______ ____
ROOT
ATOM      1  C   LIG A   1      -9.670   1.070 123.555  0.00  0.00    +0.124 A 
ATOM      2  C   LIG A   1      -8.929   2.026 122.864  0.00  0.00    +0.091 A 
ATOM      3  C   LIG A   1      -8.107   2.898 123.581  0.00  0.00    +0.135 A 
ATOM      4  C   LIG A   1      -8.032   2.803 124.975  0.00  0.00    +0.109 A 
ATOM      5  C   LIG A   1      -7.075   3.557 125.793  0.00  0.00    +0.238 A 
ATOM      6  C   LIG A   1      -7.472   3.798 127.217  0.00  0.00    +0.214 A 
ATOM      7  C   LIG A   1      -8.321   2.884 127.749  0.00  0.00    +0.181 A 
ATOM      8  O   LIG A   1      -8.854   1.820 127.018  0.00  0.00    -0.451 OA
ATOM      9  C   LIG A   1      -8.834   1.894 125.651  0.00  0.00    +0.146 A 
ATOM     10  C   LIG A   1      -9.643   1.006 124.944  0.00  0.00    +0.092 A 
ATOM     11  O   LIG A   1      -5.967   3.850 125.348  0.00  0.00    -0.283 OA
ENDROOT
BRANCH   7  12
ATOM     12  C   LIG A   1      -8.738   2.833 129.182  0.00  0.00    +0.025 A 
ATOM     13  C   LIG A   1      -8.360   1.723 129.971  0.00  0.00    +0.015 A 
ATOM     14  C   LIG A   1      -8.729   1.614 131.320  0.00  0.00    +0.050 A 
ATOM     15  C   LIG A   1      -9.476   2.626 131.897  0.00  0.00    +0.158 A 
ATOM     16  C   LIG A   1      -9.863   3.724 131.135  0.00  0.00    +0.159 A 
ATOM     17  C   LIG A   1      -9.521   3.825 129.790  0.00  0.00    +0.060 A 
BRANCH  16  18
ATOM     18  O   LIG A   1     -10.591   4.727 131.712  0.00  0.00    -0.503 OA
ATOM     19  H   LIG A   1     -10.302   5.539 131.249  0.00  0.00    +0.292 HD
ENDBRANCH  16  18
BRANCH  15  20
ATOM     20  O   LIG A   1      -9.863   2.588 133.207  0.00  0.00    -0.503 OA
ATOM     21  H   LIG A   1      -9.068   2.667 133.761  0.00  0.00    +0.292 HD
ENDBRANCH  15  20
ENDBRANCH   7  12
BRANCH   1  22
ATOM     22  O   LIG A   1     -10.452   0.168 122.897  0.00  0.00    -0.506 OA
ATOM     23  H   LIG A   1      -9.886  -0.464 122.423  0.00  0.00    +0.292 HD
ENDBRANCH   1  22
BRANCH   3  24
ATOM     24  O   LIG A   1      -7.410   3.866 122.919  0.00  0.00    -0.506 OA
ATOM     25  H   LIG A   1      -6.539   3.996 123.324  0.00  0.00    +0.292 HD
ENDBRANCH   3  24
BRANCH   6  26
ATOM     26  O   LIG A   1      -6.948   4.836 127.973  0.00  0.00    -0.453 OA
BRANCH  26  27
ATOM     27  C   LIG A   1      -5.691   4.637 128.641  0.00  0.00    +0.340 C 
ATOM     28  C   LIG A   1      -5.954   4.820 130.157  0.00  0.00    +0.214 C 
ATOM     29  C   LIG A   1      -4.654   4.625 130.937  0.00  0.00    +0.180 C 
ATOM     30  C   LIG A   1      -3.530   5.502 130.359  0.00  0.00    +0.174 C 
ATOM     31  C   LIG A   1      -3.439   5.306 128.833  0.00  0.00    +0.150 C 
ATOM     32  C   LIG A   1      -2.384   6.212 128.207  0.00  0.00    +0.040 C 
ATOM     33  O   LIG A   1      -4.708   5.604 128.232  0.00  0.00    -0.334 OA
BRANCH  28  34
ATOM     34  O   LIG A   1      -6.454   6.142 130.436  0.00  0.00    -0.383 OA
ATOM     35  H   LIG A   1      -5.670   6.703 130.586  0.00  0.00    +0.210 HD
ENDBRANCH  28  34
BRANCH  29  36
ATOM     36  O   LIG A   1      -4.250   3.249 130.897  0.00  0.00    -0.386 OA
ATOM     37  H   LIG A   1      -4.998   2.761 131.304  0.00  0.00    +0.210 HD
ENDBRANCH  29  36
BRANCH  30  38
ATOM     38  O   LIG A   1      -2.304   5.142 131.013  0.00  0.00    -0.387 OA
ATOM     39  H   LIG A   1      -2.419   5.345 131.959  0.00  0.00    +0.210 HD
ENDBRANCH  30  38
ENDBRANCH  26  27
ENDBRANCH   6  26
TORSDOF 10
ENDMDL
