MODEL 1
REMARK VINA RESULT:      -8.5      0.000      0.000
REMARK  Name = NuBBE_1106
REMARK  6 active torsions:
REMARK  status: ('A' for Active; 'I' for Inactive)
REMARK    1  A    between atoms: N_9  and  O_10
REMARK    2  A    between atoms: N_12  and  C_13
REMARK    3  A    between atoms: C_13  and  C_14
REMARK    4  A    between atoms: C_14  and  C_15
REMARK    5  A    between atoms: C_25  and  C_26
REMARK    6  A    between atoms: C_25  and  C_27
REMARK                            x       y       z     vdW  Elec       q    Type
REMARK                         _______ _______ _______ _____ _____    ______ ____
ROOT
ATOM      1  C   LIG A   1      -5.567   0.835 127.645  0.00  0.00    +0.059 C 
ENDROOT
BRANCH   1   2
ATOM      2  C   LIG A   1      -6.375  -0.370 128.035  0.00  0.00    -0.020 A 
ATOM      3  C   LIG A   1      -6.625  -0.730 129.347  0.00  0.00    +0.087 A 
ATOM      4  N   LIG A   1      -7.429  -1.831 129.353  0.00  0.00    -0.360 N 
ATOM      5  C   LIG A   1      -7.743  -2.197 128.066  0.00  0.00    +0.048 A 
ATOM      6  C   LIG A   1      -7.072  -1.323 127.195  0.00  0.00    +0.013 A 
ATOM      7  C   LIG A   1      -7.249  -1.548 125.801  0.00  0.00    +0.026 A 
ATOM      8  C   LIG A   1      -8.121  -2.559 125.359  0.00  0.00    +0.130 A 
ATOM      9  C   LIG A   1      -8.759  -3.402 126.261  0.00  0.00    +0.048 A 
ATOM     10  C   LIG A   1      -8.572  -3.241 127.632  0.00  0.00    +0.030 A 
ATOM     11  O   LIG A   1      -8.377  -2.800 124.033  0.00  0.00    -0.482 OA
ATOM     12  C   LIG A   1      -8.062  -1.745 123.100  0.00  0.00    +0.123 C 
ATOM     13  C   LIG A   1      -9.332  -0.916 122.871  0.00  0.00    +0.060 C 
ATOM     14  C   LIG A   1      -7.667  -2.449 121.795  0.00  0.00    +0.060 C 
ATOM     15  C   LIG A   1      -6.924  -0.854 123.537  0.00  0.00    +0.020 C 
ATOM     16  C   LIG A   1      -6.524  -0.769 124.811  0.00  0.00    +0.012 C 
ATOM     17  H   LIG A   1      -7.773  -2.300 130.179  0.00  0.00    +0.165 HD
ENDBRANCH   1   2
BRANCH   1  18
ATOM     18  C   LIG A   1      -6.393   2.129 127.614  0.00  0.00    +0.135 C 
BRANCH  18  29
ATOM     19  O   LIG A   1      -4.919   3.107 125.469  0.00  0.00    -0.267 OA
ATOM     20  C   LIG A   1      -6.108   2.866 125.290  0.00  0.00    +0.265 A 
ATOM     21  C   LIG A   1      -6.688   3.081 123.945  0.00  0.00    +0.067 A 
ATOM     22  C   LIG A   1      -8.034   2.796 123.735  0.00  0.00    +0.098 A 
ATOM     23  C   LIG A   1      -8.591   2.986 122.466  0.00  0.00    +0.030 A 
ATOM     24  C   LIG A   1      -7.798   3.457 121.415  0.00  0.00    +0.002 A 
ATOM     25  C   LIG A   1      -6.450   3.741 121.629  0.00  0.00    +0.001 A 
ATOM     26  C   LIG A   1      -5.892   3.554 122.895  0.00  0.00    +0.015 A 
ATOM     27  N   LIG A   1      -8.786   2.320 124.812  0.00  0.00    -0.131 N 
ATOM     28  C   LIG A   1      -8.302   2.090 126.080  0.00  0.00    +0.365 A 
ATOM     29  N   LIG A   1      -6.960   2.387 126.286  0.00  0.00    -0.258 N 
ATOM     30  O   LIG A   1      -9.047   1.638 126.954  0.00  0.00    -0.243 OA
BRANCH  27  31
ATOM     31  O   LIG A   1     -10.147   2.022 124.576  0.00  0.00    -0.422 OA
ATOM     32  H   LIG A   1     -10.260   1.205 125.107  0.00  0.00    +0.326 HD
ENDBRANCH  27  31
ENDBRANCH  18  29
ENDBRANCH   1  18
TORSDOF 4
ENDMDL
MODEL 2
REMARK VINA RESULT:      -8.4      4.564      5.606
REMARK  Name = NuBBE_1106
REMARK  6 active torsions:
REMARK  status: ('A' for Active; 'I' for Inactive)
REMARK    1  A    between atoms: N_9  and  O_10
REMARK    2  A    between atoms: N_12  and  C_13
REMARK    3  A    between atoms: C_13  and  C_14
REMARK    4  A    between atoms: C_14  and  C_15
REMARK    5  A    between atoms: C_25  and  C_26
REMARK    6  A    between atoms: C_25  and  C_27
REMARK                            x       y       z     vdW  Elec       q    Type
REMARK                         _______ _______ _______ _____ _____    ______ ____
ROOT
ATOM      1  C   LIG A   1      -8.778   2.361 129.512  0.00  0.00    +0.059 C 
ENDROOT
BRANCH   1   2
ATOM      2  C   LIG A   1      -8.385   1.135 130.288  0.00  0.00    -0.020 A 
ATOM      3  C   LIG A   1      -8.372   1.077 131.670  0.00  0.00    +0.087 A 
ATOM      4  N   LIG A   1      -8.026  -0.185 132.051  0.00  0.00    -0.360 N 
ATOM      5  C   LIG A   1      -7.833  -0.980 130.947  0.00  0.00    +0.048 A 
ATOM      6  C   LIG A   1      -8.016  -0.181 129.806  0.00  0.00    +0.013 A 
ATOM      7  C   LIG A   1      -7.839  -0.816 128.545  0.00  0.00    +0.026 A 
ATOM      8  C   LIG A   1      -7.568  -2.195 128.486  0.00  0.00    +0.130 A 
ATOM      9  C   LIG A   1      -7.390  -2.941 129.644  0.00  0.00    +0.048 A 
ATOM     10  C   LIG A   1      -7.511  -2.344 130.896  0.00  0.00    +0.030 A 
ATOM     11  O   LIG A   1      -7.432  -2.882 127.307  0.00  0.00    -0.482 OA
ATOM     12  C   LIG A   1      -7.973  -2.263 126.119  0.00  0.00    +0.123 C 
ATOM     13  C   LIG A   1      -9.394  -2.802 125.907  0.00  0.00    +0.060 C 
ATOM     14  C   LIG A   1      -7.073  -2.722 124.965  0.00  0.00    +0.060 C 
ATOM     15  C   LIG A   1      -7.984  -0.755 126.160  0.00  0.00    +0.020 C 
ATOM     16  C   LIG A   1      -7.903  -0.064 127.303  0.00  0.00    +0.012 C 
ATOM     17  H   LIG A   1      -7.947  -0.507 133.006  0.00  0.00    +0.165 HD
ENDBRANCH   1   2
BRANCH   1  18
ATOM     18  C   LIG A   1      -8.217   3.658 130.111  0.00  0.00    +0.135 C 
BRANCH  18  29
ATOM     19  O   LIG A   1      -8.655   5.378 127.972  0.00  0.00    -0.267 OA
ATOM     20  C   LIG A   1      -9.342   5.520 128.977  0.00  0.00    +0.265 A 
ATOM     21  C   LIG A   1     -10.381   6.575 128.991  0.00  0.00    +0.067 A 
ATOM     22  C   LIG A   1     -11.173   6.730 130.125  0.00  0.00    +0.098 A 
ATOM     23  C   LIG A   1     -12.164   7.717 130.146  0.00  0.00    +0.030 A 
ATOM     24  C   LIG A   1     -12.359   8.540 129.033  0.00  0.00    +0.002 A 
ATOM     25  C   LIG A   1     -11.565   8.381 127.898  0.00  0.00    +0.001 A 
ATOM     26  C   LIG A   1     -10.573   7.398 127.875  0.00  0.00    +0.015 A 
ATOM     27  N   LIG A   1     -10.948   5.881 131.211  0.00  0.00    -0.131 N 
ATOM     28  C   LIG A   1     -10.007   4.877 131.254  0.00  0.00    +0.365 A 
ATOM     29  N   LIG A   1      -9.212   4.734 130.123  0.00  0.00    -0.258 N 
ATOM     30  O   LIG A   1      -9.911   4.161 132.255  0.00  0.00    -0.243 OA
BRANCH  27  31
ATOM     31  O   LIG A   1     -11.771   6.044 132.348  0.00  0.00    -0.422 OA
ATOM     32  H   LIG A   1     -11.717   5.153 132.755  0.00  0.00    +0.326 HD
ENDBRANCH  27  31
ENDBRANCH  18  29
ENDBRANCH   1  18
TORSDOF 4
ENDMDL
MODEL 3
REMARK VINA RESULT:      -8.2      6.264      9.481
REMARK  Name = NuBBE_1106
REMARK  6 active torsions:
REMARK  status: ('A' for Active; 'I' for Inactive)
REMARK    1  A    between atoms: N_9  and  O_10
REMARK    2  A    between atoms: N_12  and  C_13
REMARK    3  A    between atoms: C_13  and  C_14
REMARK    4  A    between atoms: C_14  and  C_15
REMARK    5  A    between atoms: C_25  and  C_26
REMARK    6  A    between atoms: C_25  and  C_27
REMARK                            x       y       z     vdW  Elec       q    Type
REMARK                         _______ _______ _______ _____ _____    ______ ____
ROOT
ATOM      1  C   LIG A   1      -6.976   4.430 130.399  0.00  0.00    +0.059 C 
ENDROOT
BRANCH   1   2
ATOM      2  C   LIG A   1      -5.911   4.609 129.355  0.00  0.00    -0.020 A 
ATOM      3  C   LIG A   1      -6.094   4.308 128.017  0.00  0.00    +0.087 A 
ATOM      4  N   LIG A   1      -4.960   4.636 127.336  0.00  0.00    -0.360 N 
ATOM      5  C   LIG A   1      -4.031   5.178 128.192  0.00  0.00    +0.048 A 
ATOM      6  C   LIG A   1      -4.573   5.151 129.487  0.00  0.00    +0.013 A 
ATOM      7  C   LIG A   1      -3.752   5.653 130.535  0.00  0.00    +0.026 A 
ATOM      8  C   LIG A   1      -2.495   6.209 130.236  0.00  0.00    +0.130 A 
ATOM      9  C   LIG A   1      -2.000   6.208 128.938  0.00  0.00    +0.048 A 
ATOM     10  C   LIG A   1      -2.757   5.683 127.893  0.00  0.00    +0.030 A 
ATOM     11  O   LIG A   1      -1.672   6.754 131.189  0.00  0.00    -0.482 OA
ATOM     12  C   LIG A   1      -2.276   7.125 132.446  0.00  0.00    +0.123 C 
ATOM     13  C   LIG A   1      -2.656   8.609 132.374  0.00  0.00    +0.060 C 
ATOM     14  C   LIG A   1      -1.185   6.925 133.505  0.00  0.00    +0.060 C 
ATOM     15  C   LIG A   1      -3.478   6.292 132.822  0.00  0.00    +0.020 C 
ATOM     16  C   LIG A   1      -4.170   5.581 131.925  0.00  0.00    +0.012 C 
ATOM     17  H   LIG A   1      -4.823   4.528 126.341  0.00  0.00    +0.165 HD
ENDBRANCH   1   2
BRANCH   1  18
ATOM     18  C   LIG A   1      -8.326   3.992 129.814  0.00  0.00    +0.135 C 
BRANCH  18  29
ATOM     19  O   LIG A   1      -9.078   5.817 127.856  0.00  0.00    -0.267 OA
ATOM     20  C   LIG A   1      -9.656   5.858 128.936  0.00  0.00    +0.265 A 
ATOM     21  C   LIG A   1     -10.737   6.851 129.133  0.00  0.00    +0.067 A 
ATOM     22  C   LIG A   1     -11.405   6.892 130.353  0.00  0.00    +0.098 A 
ATOM     23  C   LIG A   1     -12.434   7.820 130.547  0.00  0.00    +0.030 A 
ATOM     24  C   LIG A   1     -12.789   8.699 129.520  0.00  0.00    +0.002 A 
ATOM     25  C   LIG A   1     -12.118   8.655 128.299  0.00  0.00    +0.001 A 
ATOM     26  C   LIG A   1     -11.090   7.732 128.102  0.00  0.00    +0.015 A 
ATOM     27  N   LIG A   1     -11.021   5.990 131.348  0.00  0.00    -0.131 N 
ATOM     28  C   LIG A   1     -10.035   5.039 131.222  0.00  0.00    +0.365 A 
ATOM     29  N   LIG A   1      -9.364   5.010 130.005  0.00  0.00    -0.258 N 
ATOM     30  O   LIG A   1      -9.795   4.268 132.156  0.00  0.00    -0.243 OA
BRANCH  27  31
ATOM     31  O   LIG A   1     -11.721   6.037 132.576  0.00  0.00    -0.422 OA
ATOM     32  H   LIG A   1     -12.508   5.489 132.370  0.00  0.00    +0.326 HD
ENDBRANCH  27  31
ENDBRANCH  18  29
ENDBRANCH   1  18
TORSDOF 4
ENDMDL
MODEL 4
REMARK VINA RESULT:      -8.0      4.589      5.898
REMARK  Name = NuBBE_1106
REMARK  6 active torsions:
REMARK  status: ('A' for Active; 'I' for Inactive)
REMARK    1  A    between atoms: N_9  and  O_10
REMARK    2  A    between atoms: N_12  and  C_13
REMARK    3  A    between atoms: C_13  and  C_14
REMARK    4  A    between atoms: C_14  and  C_15
REMARK    5  A    between atoms: C_25  and  C_26
REMARK    6  A    between atoms: C_25  and  C_27
REMARK                            x       y       z     vdW  Elec       q    Type
REMARK                         _______ _______ _______ _____ _____    ______ ____
ROOT
ATOM      1  C   LIG A   1      -8.692   2.292 129.467  0.00  0.00    +0.059 C 
ENDROOT
BRANCH   1   2
ATOM      2  C   LIG A   1      -8.325   1.073 130.266  0.00  0.00    -0.020 A 
ATOM      3  C   LIG A   1      -8.312   1.041 131.649  0.00  0.00    +0.087 A 
ATOM      4  N   LIG A   1      -7.994  -0.221 132.054  0.00  0.00    -0.360 N 
ATOM      5  C   LIG A   1      -7.821  -1.041 130.964  0.00  0.00    +0.048 A 
ATOM      6  C   LIG A   1      -7.987  -0.260 129.809  0.00  0.00    +0.013 A 
ATOM      7  C   LIG A   1      -7.826  -0.923 128.560  0.00  0.00    +0.026 A 
ATOM      8  C   LIG A   1      -7.586  -2.309 128.528  0.00  0.00    +0.130 A 
ATOM      9  C   LIG A   1      -7.424  -3.037 129.699  0.00  0.00    +0.048 A 
ATOM     10  C   LIG A   1      -7.529  -2.412 130.940  0.00  0.00    +0.030 A 
ATOM     11  O   LIG A   1      -7.467  -3.021 127.361  0.00  0.00    -0.482 OA
ATOM     12  C   LIG A   1      -7.996  -2.413 126.163  0.00  0.00    +0.123 C 
ATOM     13  C   LIG A   1      -9.429  -2.924 125.962  0.00  0.00    +0.060 C 
ATOM     14  C   LIG A   1      -7.108  -2.914 125.017  0.00  0.00    +0.060 C 
ATOM     15  C   LIG A   1      -7.973  -0.905 126.175  0.00  0.00    +0.020 C 
ATOM     16  C   LIG A   1      -7.875  -0.194 127.304  0.00  0.00    +0.012 C 
ATOM     17  H   LIG A   1      -7.921  -0.526 133.014  0.00  0.00    +0.165 HD
ENDBRANCH   1   2
BRANCH   1  18
ATOM     18  C   LIG A   1      -8.239   3.602 130.126  0.00  0.00    +0.135 C 
BRANCH  18  29
ATOM     19  O   LIG A   1     -10.081   4.448 132.029  0.00  0.00    -0.267 OA
ATOM     20  C   LIG A   1     -10.061   5.025 130.948  0.00  0.00    +0.265 A 
ATOM     21  C   LIG A   1     -10.992   6.154 130.721  0.00  0.00    +0.067 A 
ATOM     22  C   LIG A   1     -10.963   6.821 129.500  0.00  0.00    +0.098 A 
ATOM     23  C   LIG A   1     -11.833   7.895 129.279  0.00  0.00    +0.030 A 
ATOM     24  C   LIG A   1     -12.723   8.295 130.279  0.00  0.00    +0.002 A 
ATOM     25  C   LIG A   1     -12.749   7.625 131.501  0.00  0.00    +0.001 A 
ATOM     26  C   LIG A   1     -11.884   6.552 131.725  0.00  0.00    +0.015 A 
ATOM     27  N   LIG A   1     -10.053   6.391 128.533  0.00  0.00    -0.131 N 
ATOM     28  C   LIG A   1      -9.156   5.359 128.688  0.00  0.00    +0.365 A 
ATOM     29  N   LIG A   1      -9.197   4.689 129.904  0.00  0.00    -0.258 N 
ATOM     30  O   LIG A   1      -8.370   5.079 127.776  0.00  0.00    -0.243 OA
BRANCH  27  31
ATOM     31  O   LIG A   1     -10.028   7.091 127.304  0.00  0.00    -0.422 OA
ATOM     32  H   LIG A   1     -10.653   7.824 127.488  0.00  0.00    +0.326 HD
ENDBRANCH  27  31
ENDBRANCH  18  29
ENDBRANCH   1  18
TORSDOF 4
ENDMDL
MODEL 5
REMARK VINA RESULT:      -7.9      1.649      2.802
REMARK  Name = NuBBE_1106
REMARK  6 active torsions:
REMARK  status: ('A' for Active; 'I' for Inactive)
REMARK    1  A    between atoms: N_9  and  O_10
REMARK    2  A    between atoms: N_12  and  C_13
REMARK    3  A    between atoms: C_13  and  C_14
REMARK    4  A    between atoms: C_14  and  C_15
REMARK    5  A    between atoms: C_25  and  C_26
REMARK    6  A    between atoms: C_25  and  C_27
REMARK                            x       y       z     vdW  Elec       q    Type
REMARK                         _______ _______ _______ _____ _____    ______ ____
ROOT
ATOM      1  C   LIG A   1      -5.532  -0.465 129.434  0.00  0.00    +0.059 C 
ENDROOT
BRANCH   1   2
ATOM      2  C   LIG A   1      -6.598  -1.511 129.263  0.00  0.00    -0.020 A 
ATOM      3  C   LIG A   1      -7.363  -2.000 130.307  0.00  0.00    +0.087 A 
ATOM      4  N   LIG A   1      -8.268  -2.888 129.807  0.00  0.00    -0.360 N 
ATOM      5  C   LIG A   1      -8.139  -2.980 128.442  0.00  0.00    +0.048 A 
ATOM      6  C   LIG A   1      -7.074  -2.153 128.054  0.00  0.00    +0.013 A 
ATOM      7  C   LIG A   1      -6.759  -2.122 126.666  0.00  0.00    +0.026 A 
ATOM      8  C   LIG A   1      -7.549  -2.842 125.752  0.00  0.00    +0.130 A 
ATOM      9  C   LIG A   1      -8.591  -3.651 126.186  0.00  0.00    +0.048 A 
ATOM     10  C   LIG A   1      -8.898  -3.742 127.542  0.00  0.00    +0.030 A 
ATOM     11  O   LIG A   1      -7.334  -2.821 124.398  0.00  0.00    -0.482 OA
ATOM     12  C   LIG A   1      -6.545  -1.731 123.874  0.00  0.00    +0.123 C 
ATOM     13  C   LIG A   1      -7.503  -0.622 123.423  0.00  0.00    +0.060 C 
ATOM     14  C   LIG A   1      -5.810  -2.301 122.654  0.00  0.00    +0.060 C 
ATOM     15  C   LIG A   1      -5.527  -1.185 124.845  0.00  0.00    +0.020 C 
ATOM     16  C   LIG A   1      -5.613  -1.381 126.165  0.00  0.00    +0.012 C 
ATOM     17  H   LIG A   1      -8.957  -3.389 130.350  0.00  0.00    +0.165 HD
ENDBRANCH   1   2
BRANCH   1  18
ATOM     18  C   LIG A   1      -6.090   0.965 129.449  0.00  0.00    +0.135 C 
BRANCH  18  29
ATOM     19  O   LIG A   1      -8.254   1.137 127.712  0.00  0.00    -0.267 OA
ATOM     20  C   LIG A   1      -7.188   1.627 127.357  0.00  0.00    +0.265 A 
ATOM     21  C   LIG A   1      -7.114   2.305 126.043  0.00  0.00    +0.067 A 
ATOM     22  C   LIG A   1      -5.910   2.875 125.642  0.00  0.00    +0.098 A 
ATOM     23  C   LIG A   1      -5.831   3.527 124.406  0.00  0.00    +0.030 A 
ATOM     24  C   LIG A   1      -6.957   3.606 123.581  0.00  0.00    +0.002 A 
ATOM     25  C   LIG A   1      -8.162   3.034 123.986  0.00  0.00    +0.001 A 
ATOM     26  C   LIG A   1      -8.244   2.381 125.218  0.00  0.00    +0.015 A 
ATOM     27  N   LIG A   1      -4.813   2.778 126.501  0.00  0.00    -0.131 N 
ATOM     28  C   LIG A   1      -4.822   2.172 127.737  0.00  0.00    +0.365 A 
ATOM     29  N   LIG A   1      -6.024   1.595 128.127  0.00  0.00    -0.258 N 
ATOM     30  O   LIG A   1      -3.801   2.169 128.432  0.00  0.00    -0.243 OA
BRANCH  27  31
ATOM     31  O   LIG A   1      -3.602   3.376 126.083  0.00  0.00    -0.422 OA
ATOM     32  H   LIG A   1      -2.965   2.644 126.228  0.00  0.00    +0.326 HD
ENDBRANCH  27  31
ENDBRANCH  18  29
ENDBRANCH   1  18
TORSDOF 4
ENDMDL
MODEL 6
REMARK VINA RESULT:      -7.9      2.488      4.887
REMARK  Name = NuBBE_1106
REMARK  6 active torsions:
REMARK  status: ('A' for Active; 'I' for Inactive)
REMARK    1  A    between atoms: N_9  and  O_10
REMARK    2  A    between atoms: N_12  and  C_13
REMARK    3  A    between atoms: C_13  and  C_14
REMARK    4  A    between atoms: C_14  and  C_15
REMARK    5  A    between atoms: C_25  and  C_26
REMARK    6  A    between atoms: C_25  and  C_27
REMARK                            x       y       z     vdW  Elec       q    Type
REMARK                         _______ _______ _______ _____ _____    ______ ____
ROOT
ATOM      1  C   LIG A   1      -5.418   2.166 127.492  0.00  0.00    +0.059 C 
ENDROOT
BRANCH   1   2
ATOM      2  C   LIG A   1      -6.429   2.252 128.601  0.00  0.00    -0.020 A 
ATOM      3  C   LIG A   1      -7.032   3.433 128.996  0.00  0.00    +0.087 A 
ATOM      4  N   LIG A   1      -7.932   3.156 129.981  0.00  0.00    -0.360 N 
ATOM      5  C   LIG A   1      -7.962   1.805 130.232  0.00  0.00    +0.048 A 
ATOM      6  C   LIG A   1      -7.005   1.194 129.407  0.00  0.00    +0.013 A 
ATOM      7  C   LIG A   1      -6.860  -0.217 129.531  0.00  0.00    +0.026 A 
ATOM      8  C   LIG A   1      -7.707  -0.935 130.393  0.00  0.00    +0.130 A 
ATOM      9  C   LIG A   1      -8.637  -0.284 131.193  0.00  0.00    +0.048 A 
ATOM     10  C   LIG A   1      -8.774   1.101 131.133  0.00  0.00    +0.030 A 
ATOM     11  O   LIG A   1      -7.657  -2.300 130.527  0.00  0.00    -0.482 OA
ATOM     12  C   LIG A   1      -7.006  -3.040 129.472  0.00  0.00    +0.123 C 
ATOM     13  C   LIG A   1      -8.079  -3.491 128.473  0.00  0.00    +0.060 C 
ATOM     14  C   LIG A   1      -6.388  -4.270 130.150  0.00  0.00    +0.060 C 
ATOM     15  C   LIG A   1      -5.916  -2.274 128.764  0.00  0.00    +0.020 C 
ATOM     16  C   LIG A   1      -5.831  -0.940 128.802  0.00  0.00    +0.012 C 
ATOM     17  H   LIG A   1      -8.519   3.835 130.445  0.00  0.00    +0.165 HD
ENDBRANCH   1   2
BRANCH   1  18
ATOM     18  C   LIG A   1      -6.046   2.272 126.096  0.00  0.00    +0.135 C 
BRANCH  18  29
ATOM     19  O   LIG A   1      -4.888  -0.177 125.473  0.00  0.00    -0.267 OA
ATOM     20  C   LIG A   1      -6.111  -0.099 125.466  0.00  0.00    +0.265 A 
ATOM     21  C   LIG A   1      -6.904  -1.310 125.157  0.00  0.00    +0.067 A 
ATOM     22  C   LIG A   1      -8.294  -1.229 125.162  0.00  0.00    +0.098 A 
ATOM     23  C   LIG A   1      -9.054  -2.369 124.880  0.00  0.00    +0.030 A 
ATOM     24  C   LIG A   1      -8.420  -3.583 124.597  0.00  0.00    +0.002 A 
ATOM     25  C   LIG A   1      -7.028  -3.661 124.593  0.00  0.00    +0.001 A 
ATOM     26  C   LIG A   1      -6.267  -2.524 124.872  0.00  0.00    +0.015 A 
ATOM     27  N   LIG A   1      -8.884   0.002 125.458  0.00  0.00    -0.131 N 
ATOM     28  C   LIG A   1      -8.202   1.157 125.764  0.00  0.00    +0.365 A 
ATOM     29  N   LIG A   1      -6.815   1.073 125.746  0.00  0.00    -0.258 N 
ATOM     30  O   LIG A   1      -8.823   2.188 126.041  0.00  0.00    -0.243 OA
BRANCH  27  31
ATOM     31  O   LIG A   1     -10.296   0.061 125.473  0.00  0.00    -0.422 OA
ATOM     32  H   LIG A   1     -10.524  -0.854 125.741  0.00  0.00    +0.326 HD
ENDBRANCH  27  31
ENDBRANCH  18  29
ENDBRANCH   1  18
TORSDOF 4
ENDMDL
MODEL 7
REMARK VINA RESULT:      -7.8      4.573      5.847
REMARK  Name = NuBBE_1106
REMARK  6 active torsions:
REMARK  status: ('A' for Active; 'I' for Inactive)
REMARK    1  A    between atoms: N_9  and  O_10
REMARK    2  A    between atoms: N_12  and  C_13
REMARK    3  A    between atoms: C_13  and  C_14
REMARK    4  A    between atoms: C_14  and  C_15
REMARK    5  A    between atoms: C_25  and  C_26
REMARK    6  A    between atoms: C_25  and  C_27
REMARK                            x       y       z     vdW  Elec       q    Type
REMARK                         _______ _______ _______ _____ _____    ______ ____
ROOT
ATOM      1  C   LIG A   1      -8.922   2.559 129.238  0.00  0.00    +0.059 C 
ENDROOT
BRANCH   1   2
ATOM      2  C   LIG A   1      -7.876   1.543 128.877  0.00  0.00    -0.020 A 
ATOM      3  C   LIG A   1      -7.302   0.678 129.791  0.00  0.00    +0.087 A 
ATOM      4  N   LIG A   1      -6.439  -0.146 129.132  0.00  0.00    -0.360 N 
ATOM      5  C   LIG A   1      -6.446   0.136 127.787  0.00  0.00    +0.048 A 
ATOM      6  C   LIG A   1      -7.315   1.219 127.580  0.00  0.00    +0.013 A 
ATOM      7  C   LIG A   1      -7.449   1.686 126.242  0.00  0.00    +0.026 A 
ATOM      8  C   LIG A   1      -6.785   1.019 125.197  0.00  0.00    +0.130 A 
ATOM      9  C   LIG A   1      -5.931  -0.047 125.454  0.00  0.00    +0.048 A 
ATOM     10  C   LIG A   1      -5.739  -0.501 126.757  0.00  0.00    +0.030 A 
ATOM     11  O   LIG A   1      -6.906   1.383 123.880  0.00  0.00    -0.482 OA
ATOM     12  C   LIG A   1      -8.041   2.201 123.525  0.00  0.00    +0.123 C 
ATOM     13  C   LIG A   1      -9.166   1.274 123.047  0.00  0.00    +0.060 C 
ATOM     14  C   LIG A   1      -7.571   3.080 122.359  0.00  0.00    +0.060 C 
ATOM     15  C   LIG A   1      -8.532   3.091 124.640  0.00  0.00    +0.020 C 
ATOM     16  C   LIG A   1      -8.241   2.863 125.926  0.00  0.00    +0.012 C 
ATOM     17  H   LIG A   1      -5.890  -0.879 129.558  0.00  0.00    +0.165 HD
ENDBRANCH   1   2
BRANCH   1  18
ATOM     18  C   LIG A   1      -8.328   3.888 129.722  0.00  0.00    +0.135 C 
BRANCH  18  29
ATOM     19  O   LIG A   1      -9.013   5.736 127.761  0.00  0.00    -0.267 OA
ATOM     20  C   LIG A   1      -9.614   5.778 128.829  0.00  0.00    +0.265 A 
ATOM     21  C   LIG A   1     -10.685   6.784 129.009  0.00  0.00    +0.067 A 
ATOM     22  C   LIG A   1     -11.379   6.826 130.214  0.00  0.00    +0.098 A 
ATOM     23  C   LIG A   1     -12.399   7.767 130.392  0.00  0.00    +0.030 A 
ATOM     24  C   LIG A   1     -12.720   8.658 129.363  0.00  0.00    +0.002 A 
ATOM     25  C   LIG A   1     -12.023   8.613 128.157  0.00  0.00    +0.001 A 
ATOM     26  C   LIG A   1     -11.003   7.676 127.977  0.00  0.00    +0.015 A 
ATOM     27  N   LIG A   1     -11.029   5.913 131.211  0.00  0.00    -0.131 N 
ATOM     28  C   LIG A   1     -10.054   4.948 131.099  0.00  0.00    +0.365 A 
ATOM     29  N   LIG A   1      -9.357   4.919 129.898  0.00  0.00    -0.258 N 
ATOM     30  O   LIG A   1      -9.845   4.168 132.034  0.00  0.00    -0.243 OA
BRANCH  27  31
ATOM     31  O   LIG A   1     -11.755   5.961 132.423  0.00  0.00    -0.422 OA
ATOM     32  H   LIG A   1     -11.460   6.822 132.790  0.00  0.00    +0.326 HD
ENDBRANCH  27  31
ENDBRANCH  18  29
ENDBRANCH   1  18
TORSDOF 4
ENDMDL
MODEL 8
REMARK VINA RESULT:      -7.7      2.151      5.447
REMARK  Name = NuBBE_1106
REMARK  6 active torsions:
REMARK  status: ('A' for Active; 'I' for Inactive)
REMARK    1  A    between atoms: N_9  and  O_10
REMARK    2  A    between atoms: N_12  and  C_13
REMARK    3  A    between atoms: C_13  and  C_14
REMARK    4  A    between atoms: C_14  and  C_15
REMARK    5  A    between atoms: C_25  and  C_26
REMARK    6  A    between atoms: C_25  and  C_27
REMARK                            x       y       z     vdW  Elec       q    Type
REMARK                         _______ _______ _______ _____ _____    ______ ____
ROOT
ATOM      1  C   LIG A   1      -5.100   2.442 125.870  0.00  0.00    +0.059 C 
ENDROOT
BRANCH   1   2
ATOM      2  C   LIG A   1      -6.228   2.737 124.922  0.00  0.00    -0.020 A 
ATOM      3  C   LIG A   1      -6.329   3.909 124.195  0.00  0.00    +0.087 A 
ATOM      4  N   LIG A   1      -7.431   3.835 123.396  0.00  0.00    -0.360 N 
ATOM      5  C   LIG A   1      -8.054   2.621 123.557  0.00  0.00    +0.048 A 
ATOM      6  C   LIG A   1      -7.350   1.903 124.537  0.00  0.00    +0.013 A 
ATOM      7  C   LIG A   1      -7.851   0.614 124.871  0.00  0.00    +0.026 A 
ATOM      8  C   LIG A   1      -8.956   0.090 124.176  0.00  0.00    +0.130 A 
ATOM      9  C   LIG A   1      -9.622   0.841 123.216  0.00  0.00    +0.048 A 
ATOM     10  C   LIG A   1      -9.188   2.126 122.897  0.00  0.00    +0.030 A 
ATOM     11  O   LIG A   1      -9.463  -1.163 124.410  0.00  0.00    -0.482 OA
ATOM     12  C   LIG A   1      -8.604  -2.103 125.091  0.00  0.00    +0.123 C 
ATOM     13  C   LIG A   1      -7.875  -2.938 124.030  0.00  0.00    +0.060 C 
ATOM     14  C   LIG A   1      -9.540  -3.008 125.902  0.00  0.00    +0.060 C 
ATOM     15  C   LIG A   1      -7.611  -1.462 126.030  0.00  0.00    +0.020 C 
ATOM     16  C   LIG A   1      -7.263  -0.174 125.941  0.00  0.00    +0.012 C 
ATOM     17  H   LIG A   1      -7.737   4.552 122.753  0.00  0.00    +0.165 HD
ENDBRANCH   1   2
BRANCH   1  18
ATOM     18  C   LIG A   1      -5.148   3.295 127.146  0.00  0.00    +0.135 C 
BRANCH  18  29
ATOM     19  O   LIG A   1      -4.961   0.980 128.675  0.00  0.00    -0.267 OA
ATOM     20  C   LIG A   1      -5.969   1.668 128.790  0.00  0.00    +0.265 A 
ATOM     21  C   LIG A   1      -7.016   1.250 129.749  0.00  0.00    +0.067 A 
ATOM     22  C   LIG A   1      -8.155   2.036 129.893  0.00  0.00    +0.098 A 
ATOM     23  C   LIG A   1      -9.147   1.655 130.804  0.00  0.00    +0.030 A 
ATOM     24  C   LIG A   1      -8.991   0.494 131.567  0.00  0.00    +0.002 A 
ATOM     25  C   LIG A   1      -7.848  -0.290 131.421  0.00  0.00    +0.001 A 
ATOM     26  C   LIG A   1      -6.858   0.085 130.511  0.00  0.00    +0.015 A 
ATOM     27  N   LIG A   1      -8.265   3.191 129.116  0.00  0.00    -0.131 N 
ATOM     28  C   LIG A   1      -7.323   3.637 128.217  0.00  0.00    +0.365 A 
ATOM     29  N   LIG A   1      -6.193   2.843 128.070  0.00  0.00    -0.258 N 
ATOM     30  O   LIG A   1      -7.506   4.692 127.601  0.00  0.00    -0.243 OA
BRANCH  27  31
ATOM     31  O   LIG A   1      -9.423   3.984 129.286  0.00  0.00    -0.422 OA
ATOM     32  H   LIG A   1      -9.908   3.798 128.454  0.00  0.00    +0.326 HD
ENDBRANCH  27  31
ENDBRANCH  18  29
ENDBRANCH   1  18
TORSDOF 4
ENDMDL
MODEL 9
REMARK VINA RESULT:      -7.7      2.295      5.454
REMARK  Name = NuBBE_1106
REMARK  6 active torsions:
REMARK  status: ('A' for Active; 'I' for Inactive)
REMARK    1  A    between atoms: N_9  and  O_10
REMARK    2  A    between atoms: N_12  and  C_13
REMARK    3  A    between atoms: C_13  and  C_14
REMARK    4  A    between atoms: C_14  and  C_15
REMARK    5  A    between atoms: C_25  and  C_26
REMARK    6  A    between atoms: C_25  and  C_27
REMARK                            x       y       z     vdW  Elec       q    Type
REMARK                         _______ _______ _______ _____ _____    ______ ____
ROOT
ATOM      1  C   LIG A   1      -8.030  -1.837 129.775  0.00  0.00    +0.059 C 
ENDROOT
BRANCH   1   2
ATOM      2  C   LIG A   1      -7.242  -0.613 130.148  0.00  0.00    -0.020 A 
ATOM      3  C   LIG A   1      -6.510  -0.502 131.317  0.00  0.00    +0.087 A 
ATOM      4  N   LIG A   1      -5.874   0.704 131.321  0.00  0.00    -0.360 N 
ATOM      5  C   LIG A   1      -6.146   1.389 130.162  0.00  0.00    +0.048 A 
ATOM      6  C   LIG A   1      -7.034   0.612 129.401  0.00  0.00    +0.013 A 
ATOM      7  C   LIG A   1      -7.462   1.159 128.159  0.00  0.00    +0.026 A 
ATOM      8  C   LIG A   1      -6.938   2.387 127.717  0.00  0.00    +0.130 A 
ATOM      9  C   LIG A   1      -6.065   3.122 128.508  0.00  0.00    +0.048 A 
ATOM     10  C   LIG A   1      -5.661   2.639 129.751  0.00  0.00    +0.030 A 
ATOM     11  O   LIG A   1      -7.268   2.951 126.511  0.00  0.00    -0.482 OA
ATOM     12  C   LIG A   1      -7.843   2.080 125.513  0.00  0.00    +0.123 C 
ATOM     13  C   LIG A   1      -6.710   1.574 124.611  0.00  0.00    +0.060 C 
ATOM     14  C   LIG A   1      -8.796   2.960 124.694  0.00  0.00    +0.060 C 
ATOM     15  C   LIG A   1      -8.620   0.919 126.083  0.00  0.00    +0.020 C 
ATOM     16  C   LIG A   1      -8.457   0.489 127.339  0.00  0.00    +0.012 C 
ATOM     17  H   LIG A   1      -5.265   1.041 132.054  0.00  0.00    +0.165 HD
ENDBRANCH   1   2
BRANCH   1  18
ATOM     18  C   LIG A   1      -7.183  -2.906 129.069  0.00  0.00    +0.135 C 
BRANCH  18  29
ATOM     19  O   LIG A   1      -9.295  -3.641 127.417  0.00  0.00    -0.267 OA
ATOM     20  C   LIG A   1      -8.308  -3.130 126.900  0.00  0.00    +0.265 A 
ATOM     21  C   LIG A   1      -8.302  -2.906 125.437  0.00  0.00    +0.067 A 
ATOM     22  C   LIG A   1      -7.189  -2.313 124.847  0.00  0.00    +0.098 A 
ATOM     23  C   LIG A   1      -7.176  -2.087 123.466  0.00  0.00    +0.030 A 
ATOM     24  C   LIG A   1      -8.275  -2.454 122.684  0.00  0.00    +0.002 A 
ATOM     25  C   LIG A   1      -9.388  -3.048 123.278  0.00  0.00    +0.001 A 
ATOM     26  C   LIG A   1      -9.404  -3.276 124.656  0.00  0.00    +0.015 A 
ATOM     27  N   LIG A   1      -6.117  -1.956 125.668  0.00  0.00    -0.131 N 
ATOM     28  C   LIG A   1      -6.068  -2.127 127.033  0.00  0.00    +0.365 A 
ATOM     29  N   LIG A   1      -7.177  -2.730 127.614  0.00  0.00    -0.258 N 
ATOM     30  O   LIG A   1      -5.081  -1.747 127.669  0.00  0.00    -0.243 OA
BRANCH  27  31
ATOM     31  O   LIG A   1      -5.002  -1.341 125.053  0.00  0.00    -0.422 OA
ATOM     32  H   LIG A   1      -5.410  -0.965 124.245  0.00  0.00    +0.326 HD
ENDBRANCH  27  31
ENDBRANCH  18  29
ENDBRANCH   1  18
TORSDOF 4
ENDMDL
