MODEL 1
REMARK VINA RESULT:      -8.9      0.000      0.000
REMARK  Name = NuBBE_58
REMARK  19 active torsions:
REMARK  status: ('A' for Active; 'I' for Inactive)
REMARK    1  A    between atoms: C_1  and  C_2
REMARK    2  A    between atoms: C_2  and  O_3
REMARK    3  A    between atoms: O_3  and  C_4
REMARK    4  A    between atoms: C_8  and  O_10
REMARK    5  A    between atoms: O_10  and  C_11
REMARK    6  A    between atoms: C_11  and  C_12
REMARK    7  A    between atoms: C_15  and  O_17
REMARK    8  A    between atoms: O_17  and  C_18
REMARK    9  A    between atoms: C_18  and  C_19
REMARK   10  A    between atoms: C_22  and  O_24
REMARK   11  A    between atoms: O_24  and  C_25
REMARK   12  A    between atoms: C_25  and  C_26
REMARK   13  A    between atoms: C_27  and  C_28
REMARK   14  A    between atoms: C_36  and  C_38
REMARK   15  A    between atoms: C_39  and  C_40
REMARK   16  A    between atoms: C_39  and  C_41
REMARK   17  A    between atoms: C_41  and  C_42
REMARK   18  A    between atoms: C_43  and  C_44
REMARK   19  A    between atoms: C_43  and  C_45
REMARK                            x       y       z     vdW  Elec       q    Type
REMARK                         _______ _______ _______ _____ _____    ______ ____
ROOT
ATOM      1  C   LIG A   1      -7.748   2.645 127.122  0.00  0.00    +0.200 C 
ATOM      2  C   LIG A   1      -6.878   3.846 127.099  0.00  0.00    +0.023 C 
ATOM      3  C   LIG A   1      -6.322   4.217 128.259  0.00  0.00    +0.013 C 
ATOM      4  C   LIG A   1      -4.847   4.567 128.330  0.00  0.00    +0.343 C 
ATOM      5  O   LIG A   1      -4.535   4.420 129.719  0.00  0.00    -0.297 OA
ATOM      6  C   LIG A   1      -5.745   4.765 130.382  0.00  0.00    +0.328 C 
ATOM      7  C   LIG A   1      -6.882   3.907 129.675  0.00  0.00    +0.100 C 
ATOM      8  C   LIG A   1      -8.299   4.500 130.074  0.00  0.00    +0.194 C 
ATOM      9  C   LIG A   1      -9.441   3.485 130.209  0.00  0.00    +0.049 C 
ATOM     10  C   LIG A   1      -9.179   2.069 130.791  0.00  0.00    -0.004 C 
ATOM     11  C   LIG A   1     -10.123   1.696 131.949  0.00  0.00    +0.008 C 
ATOM     12  C   LIG A   1      -7.680   1.551 130.853  0.00  0.00    -0.022 C 
ATOM     13  C   LIG A   1      -7.787  -0.001 130.596  0.00  0.00    +0.012 C 
ATOM     14  C   LIG A   1      -6.891   2.306 129.686  0.00  0.00    +0.019 C 
ATOM     15  C   LIG A   1      -7.313   1.691 128.264  0.00  0.00    +0.054 C 
ENDROOT
BRANCH   1  16
ATOM     16  O   LIG A   1      -7.777   2.029 125.799  0.00  0.00    -0.457 OA
BRANCH  16  18
ATOM     17  C   LIG A   1      -9.791   1.325 124.761  0.00  0.00    +0.136 C 
ATOM     18  C   LIG A   1      -8.711   2.368 124.870  0.00  0.00    +0.304 C 
ATOM     19  O   LIG A   1      -8.709   3.371 124.174  0.00  0.00    -0.251 OA
ENDBRANCH  16  18
ENDBRANCH   1  16
BRANCH   4  20
ATOM     20  O   LIG A   1      -4.021   3.634 127.633  0.00  0.00    -0.431 OA
BRANCH  20  21
ATOM     21  C   LIG A   1      -2.788   4.113 127.339  0.00  0.00    +0.306 C 
ATOM     22  C   LIG A   1      -1.961   3.087 126.622  0.00  0.00    +0.136 C 
ATOM     23  O   LIG A   1      -2.364   5.207 127.666  0.00  0.00    -0.251 OA
ENDBRANCH  20  21
ENDBRANCH   4  20
BRANCH   6  24
ATOM     24  O   LIG A   1      -6.000   6.195 130.134  0.00  0.00    -0.434 OA
BRANCH  24  25
ATOM     25  C   LIG A   1      -5.158   7.130 130.634  0.00  0.00    +0.306 C 
ATOM     26  C   LIG A   1      -4.761   6.804 132.048  0.00  0.00    +0.136 C 
ATOM     27  O   LIG A   1      -4.769   8.129 130.025  0.00  0.00    -0.251 OA
ENDBRANCH  24  25
ENDBRANCH   6  24
BRANCH   8  28
ATOM     28  O   LIG A   1      -8.187   5.240 131.312  0.00  0.00    -0.457 OA
BRANCH  28  29
ATOM     29  C   LIG A   1      -9.325   5.806 131.865  0.00  0.00    +0.332 C 
ATOM     30  O   LIG A   1      -9.742   5.696 132.980  0.00  0.00    -0.246 OA
BRANCH  29  31
ATOM     31  C   LIG A   1     -10.083   6.498 130.785  0.00  0.00    +0.092 C 
ATOM     32  C   LIG A   1     -11.420   6.603 130.835  0.00  0.00    +0.015 C 
BRANCH  32  33
ATOM     33  C   LIG A   1     -12.249   7.257 129.822  0.00  0.00    -0.025 A 
ATOM     34  C   LIG A   1     -12.922   6.497 128.852  0.00  0.00    +0.008 A 
ATOM     35  C   LIG A   1     -13.730   7.123 127.905  0.00  0.00    +0.001 A 
ATOM     36  C   LIG A   1     -13.816   8.513 127.880  0.00  0.00    +0.000 A 
ATOM     37  C   LIG A   1     -13.104   9.274 128.803  0.00  0.00    +0.001 A 
ATOM     38  C   LIG A   1     -12.340   8.648 129.780  0.00  0.00    +0.008 A 
ENDBRANCH  32  33
ENDBRANCH  29  31
ENDBRANCH  28  29
ENDBRANCH   8  28
BRANCH  12  39
ATOM     39  C   LIG A   1      -6.905   1.617 132.259  0.00  0.00    +0.034 C 
BRANCH  39  40
ATOM     40  C   LIG A   1      -7.253   2.758 133.250  0.00  0.00    -0.023 C 
ATOM     41  C   LIG A   1      -6.408   3.508 134.002  0.00  0.00    -0.055 C 
ATOM     42  C   LIG A   1      -4.909   3.589 133.861  0.00  0.00    +0.043 C 
BRANCH  41  43
ATOM     43  C   LIG A   1      -6.891   4.333 135.115  0.00  0.00    -0.005 C 
ATOM     44  C   LIG A   1      -6.845   5.673 135.095  0.00  0.00    +0.008 C 
ENDBRANCH  41  43
ENDBRANCH  39  40
ENDBRANCH  12  39
TORSDOF 13
ENDMDL
MODEL 2
REMARK VINA RESULT:      -8.8      4.248      8.168
REMARK  Name = NuBBE_58
REMARK  19 active torsions:
REMARK  status: ('A' for Active; 'I' for Inactive)
REMARK    1  A    between atoms: C_1  and  C_2
REMARK    2  A    between atoms: C_2  and  O_3
REMARK    3  A    between atoms: O_3  and  C_4
REMARK    4  A    between atoms: C_8  and  O_10
REMARK    5  A    between atoms: O_10  and  C_11
REMARK    6  A    between atoms: C_11  and  C_12
REMARK    7  A    between atoms: C_15  and  O_17
REMARK    8  A    between atoms: O_17  and  C_18
REMARK    9  A    between atoms: C_18  and  C_19
REMARK   10  A    between atoms: C_22  and  O_24
REMARK   11  A    between atoms: O_24  and  C_25
REMARK   12  A    between atoms: C_25  and  C_26
REMARK   13  A    between atoms: C_27  and  C_28
REMARK   14  A    between atoms: C_36  and  C_38
REMARK   15  A    between atoms: C_39  and  C_40
REMARK   16  A    between atoms: C_39  and  C_41
REMARK   17  A    between atoms: C_41  and  C_42
REMARK   18  A    between atoms: C_43  and  C_44
REMARK   19  A    between atoms: C_43  and  C_45
REMARK                            x       y       z     vdW  Elec       q    Type
REMARK                         _______ _______ _______ _____ _____    ______ ____
ROOT
ATOM      1  C   LIG A   1      -8.146  -0.025 129.958  0.00  0.00    +0.200 C 
ATOM      2  C   LIG A   1      -7.793  -1.308 129.303  0.00  0.00    +0.023 C 
ATOM      3  C   LIG A   1      -7.001  -1.242 128.226  0.00  0.00    +0.013 C 
ATOM      4  C   LIG A   1      -5.808  -2.171 128.088  0.00  0.00    +0.343 C 
ATOM      5  O   LIG A   1      -4.973  -1.505 127.136  0.00  0.00    -0.297 OA
ATOM      6  C   LIG A   1      -5.891  -0.818 126.295  0.00  0.00    +0.328 C 
ATOM      7  C   LIG A   1      -6.860  -0.023 127.274  0.00  0.00    +0.100 C 
ATOM      8  C   LIG A   1      -8.137   0.454 126.461  0.00  0.00    +0.194 C 
ATOM      9  C   LIG A   1      -8.746   1.795 126.886  0.00  0.00    +0.049 C 
ATOM     10  C   LIG A   1      -7.838   2.967 127.350  0.00  0.00    -0.004 C 
ATOM     11  C   LIG A   1      -8.105   4.285 126.601  0.00  0.00    +0.008 C 
ATOM     12  C   LIG A   1      -6.343   2.635 127.768  0.00  0.00    -0.022 C 
ATOM     13  C   LIG A   1      -6.022   3.650 128.930  0.00  0.00    +0.012 C 
ATOM     14  C   LIG A   1      -6.338   1.118 128.269  0.00  0.00    +0.019 C 
ATOM     15  C   LIG A   1      -7.031   1.025 129.714  0.00  0.00    +0.054 C 
ENDROOT
BRANCH   1  16
ATOM     16  O   LIG A   1      -8.461  -0.256 131.364  0.00  0.00    -0.457 OA
BRANCH  16  18
ATOM     17  C   LIG A   1      -9.830   1.583 131.975  0.00  0.00    +0.136 C 
ATOM     18  C   LIG A   1      -8.593   0.770 132.248  0.00  0.00    +0.304 C 
ATOM     19  O   LIG A   1      -7.823   1.049 133.154  0.00  0.00    -0.251 OA
ENDBRANCH  16  18
ENDBRANCH   1  16
BRANCH   4  20
ATOM     20  O   LIG A   1      -5.044  -2.272 129.290  0.00  0.00    -0.431 OA
BRANCH  20  21
ATOM     21  C   LIG A   1      -4.604  -3.529 129.550  0.00  0.00    +0.306 C 
ATOM     22  C   LIG A   1      -5.623  -4.313 130.323  0.00  0.00    +0.136 C 
ATOM     23  O   LIG A   1      -3.503  -3.960 129.261  0.00  0.00    -0.251 OA
ENDBRANCH  20  21
ENDBRANCH   4  20
BRANCH   6  24
ATOM     24  O   LIG A   1      -6.674  -1.831 125.565  0.00  0.00    -0.434 OA
BRANCH  24  25
ATOM     25  C   LIG A   1      -6.187  -2.368 124.421  0.00  0.00    +0.306 C 
ATOM     26  C   LIG A   1      -7.210  -2.319 123.318  0.00  0.00    +0.136 C 
ATOM     27  O   LIG A   1      -5.060  -2.851 124.290  0.00  0.00    -0.251 OA
ENDBRANCH  24  25
ENDBRANCH   6  24
BRANCH   8  28
ATOM     28  O   LIG A   1      -7.822   0.514 125.050  0.00  0.00    -0.457 OA
BRANCH  28  29
ATOM     29  C   LIG A   1      -8.809   0.898 124.154  0.00  0.00    +0.332 C 
ATOM     30  O   LIG A   1      -9.955   0.556 124.122  0.00  0.00    -0.246 OA
BRANCH  29  31
ATOM     31  C   LIG A   1      -8.185   1.732 123.090  0.00  0.00    +0.092 C 
ATOM     32  C   LIG A   1      -7.099   2.479 123.342  0.00  0.00    +0.015 C 
BRANCH  32  33
ATOM     33  C   LIG A   1      -6.422   3.332 122.366  0.00  0.00    -0.025 A 
ATOM     34  C   LIG A   1      -5.303   4.094 122.738  0.00  0.00    +0.008 A 
ATOM     35  C   LIG A   1      -4.647   4.885 121.797  0.00  0.00    +0.001 A 
ATOM     36  C   LIG A   1      -5.144   4.972 120.499  0.00  0.00    +0.000 A 
ATOM     37  C   LIG A   1      -6.289   4.265 120.141  0.00  0.00    +0.001 A 
ATOM     38  C   LIG A   1      -6.912   3.435 121.064  0.00  0.00    +0.008 A 
ENDBRANCH  32  33
ENDBRANCH  29  31
ENDBRANCH  28  29
ENDBRANCH   8  28
BRANCH  12  39
ATOM     39  C   LIG A   1      -5.169   2.935 126.712  0.00  0.00    +0.034 C 
BRANCH  39  40
ATOM     40  C   LIG A   1      -4.272   4.182 126.926  0.00  0.00    -0.023 C 
ATOM     41  C   LIG A   1      -2.945   4.226 127.208  0.00  0.00    -0.055 C 
ATOM     42  C   LIG A   1      -1.968   3.081 127.122  0.00  0.00    +0.043 C 
BRANCH  41  43
ATOM     43  C   LIG A   1      -2.299   5.454 127.686  0.00  0.00    -0.005 C 
ATOM     44  C   LIG A   1      -2.992   6.542 128.048  0.00  0.00    +0.008 C 
ENDBRANCH  41  43
ENDBRANCH  39  40
ENDBRANCH  12  39
TORSDOF 13
ENDMDL
MODEL 3
REMARK VINA RESULT:      -8.8      2.848      7.425
REMARK  Name = NuBBE_58
REMARK  19 active torsions:
REMARK  status: ('A' for Active; 'I' for Inactive)
REMARK    1  A    between atoms: C_1  and  C_2
REMARK    2  A    between atoms: C_2  and  O_3
REMARK    3  A    between atoms: O_3  and  C_4
REMARK    4  A    between atoms: C_8  and  O_10
REMARK    5  A    between atoms: O_10  and  C_11
REMARK    6  A    between atoms: C_11  and  C_12
REMARK    7  A    between atoms: C_15  and  O_17
REMARK    8  A    between atoms: O_17  and  C_18
REMARK    9  A    between atoms: C_18  and  C_19
REMARK   10  A    between atoms: C_22  and  O_24
REMARK   11  A    between atoms: O_24  and  C_25
REMARK   12  A    between atoms: C_25  and  C_26
REMARK   13  A    between atoms: C_27  and  C_28
REMARK   14  A    between atoms: C_36  and  C_38
REMARK   15  A    between atoms: C_39  and  C_40
REMARK   16  A    between atoms: C_39  and  C_41
REMARK   17  A    between atoms: C_41  and  C_42
REMARK   18  A    between atoms: C_43  and  C_44
REMARK   19  A    between atoms: C_43  and  C_45
REMARK                            x       y       z     vdW  Elec       q    Type
REMARK                         _______ _______ _______ _____ _____    ______ ____
ROOT
ATOM      1  C   LIG A   1      -8.496   5.576 131.832  0.00  0.00    +0.200 C 
ATOM      2  C   LIG A   1      -7.129   6.043 132.167  0.00  0.00    +0.023 C 
ATOM      3  C   LIG A   1      -6.114   5.228 131.855  0.00  0.00    +0.013 C 
ATOM      4  C   LIG A   1      -4.881   5.767 131.152  0.00  0.00    +0.343 C 
ATOM      5  O   LIG A   1      -4.293   4.601 130.568  0.00  0.00    -0.297 OA
ATOM      6  C   LIG A   1      -4.634   3.555 131.469  0.00  0.00    +0.328 C 
ATOM      7  C   LIG A   1      -6.202   3.685 131.703  0.00  0.00    +0.100 C 
ATOM      8  C   LIG A   1      -6.606   2.823 132.973  0.00  0.00    +0.194 C 
ATOM      9  C   LIG A   1      -7.990   2.164 132.929  0.00  0.00    +0.049 C 
ATOM     10  C   LIG A   1      -8.559   1.603 131.596  0.00  0.00    -0.004 C 
ATOM     11  C   LIG A   1      -9.031   0.141 131.696  0.00  0.00    +0.008 C 
ATOM     12  C   LIG A   1      -7.891   2.081 130.238  0.00  0.00    -0.022 C 
ATOM     13  C   LIG A   1      -9.083   2.134 129.208  0.00  0.00    +0.012 C 
ATOM     14  C   LIG A   1      -7.269   3.526 130.521  0.00  0.00    +0.019 C 
ATOM     15  C   LIG A   1      -8.449   4.610 130.619  0.00  0.00    +0.054 C 
ENDROOT
BRANCH   1  16
ATOM     16  O   LIG A   1      -9.383   6.721 131.657  0.00  0.00    -0.457 OA
BRANCH  16  18
ATOM     17  C   LIG A   1     -10.547   7.475 129.732  0.00  0.00    +0.136 C 
ATOM     18  C   LIG A   1     -10.556   6.624 130.973  0.00  0.00    +0.304 C 
ATOM     19  O   LIG A   1     -11.527   5.958 131.294  0.00  0.00    -0.251 OA
ENDBRANCH  16  18
ENDBRANCH   1  16
BRANCH   4  20
ATOM     20  O   LIG A   1      -5.198   6.642 130.070  0.00  0.00    -0.431 OA
BRANCH  20  21
ATOM     21  C   LIG A   1      -4.187   7.482 129.736  0.00  0.00    +0.306 C 
ATOM     22  C   LIG A   1      -3.504   8.025 130.957  0.00  0.00    +0.136 C 
ATOM     23  O   LIG A   1      -3.898   7.817 128.602  0.00  0.00    -0.251 OA
ENDBRANCH  20  21
ENDBRANCH   4  20
BRANCH   6  24
ATOM     24  O   LIG A   1      -3.936   3.813 132.741  0.00  0.00    -0.434 OA
BRANCH  24  25
ATOM     25  C   LIG A   1      -2.678   3.349 132.930  0.00  0.00    +0.306 C 
ATOM     26  C   LIG A   1      -1.662   4.447 132.765  0.00  0.00    +0.136 C 
ATOM     27  O   LIG A   1      -2.388   2.179 133.190  0.00  0.00    -0.251 OA
ENDBRANCH  24  25
ENDBRANCH   6  24
BRANCH   8  28
ATOM     28  O   LIG A   1      -5.611   1.797 133.204  0.00  0.00    -0.457 OA
BRANCH  28  29
ATOM     29  C   LIG A   1      -5.945   0.694 133.974  0.00  0.00    +0.332 C 
ATOM     30  O   LIG A   1      -6.236   0.659 135.133  0.00  0.00    -0.246 OA
BRANCH  29  31
ATOM     31  C   LIG A   1      -5.746  -0.534 133.154  0.00  0.00    +0.092 C 
ATOM     32  C   LIG A   1      -4.853  -0.561 132.153  0.00  0.00    +0.015 C 
BRANCH  32  33
ATOM     33  C   LIG A   1      -4.593  -1.715 131.292  0.00  0.00    -0.025 A 
ATOM     34  C   LIG A   1      -3.543  -1.688 130.360  0.00  0.00    +0.008 A 
ATOM     35  C   LIG A   1      -3.284  -2.800 129.561  0.00  0.00    +0.001 A 
ATOM     36  C   LIG A   1      -4.112  -3.917 129.640  0.00  0.00    +0.000 A 
ATOM     37  C   LIG A   1      -5.191  -3.926 130.520  0.00  0.00    +0.001 A 
ATOM     38  C   LIG A   1      -5.417  -2.838 131.355  0.00  0.00    +0.008 A 
ENDBRANCH  32  33
ENDBRANCH  29  31
ENDBRANCH  28  29
ENDBRANCH   8  28
BRANCH  12  39
ATOM     39  C   LIG A   1      -6.849   1.098 129.510  0.00  0.00    +0.034 C 
BRANCH  39  40
ATOM     40  C   LIG A   1      -7.268  -0.372 129.246  0.00  0.00    -0.023 C 
ATOM     41  C   LIG A   1      -6.838  -1.207 128.266  0.00  0.00    -0.055 C 
ATOM     42  C   LIG A   1      -5.656  -0.994 127.355  0.00  0.00    +0.043 C 
BRANCH  41  43
ATOM     43  C   LIG A   1      -7.542  -2.456 127.954  0.00  0.00    -0.005 C 
ATOM     44  C   LIG A   1      -8.313  -3.094 128.846  0.00  0.00    +0.008 C 
ENDBRANCH  41  43
ENDBRANCH  39  40
ENDBRANCH  12  39
TORSDOF 13
ENDMDL
MODEL 4
REMARK VINA RESULT:      -8.7      2.708      7.858
REMARK  Name = NuBBE_58
REMARK  19 active torsions:
REMARK  status: ('A' for Active; 'I' for Inactive)
REMARK    1  A    between atoms: C_1  and  C_2
REMARK    2  A    between atoms: C_2  and  O_3
REMARK    3  A    between atoms: O_3  and  C_4
REMARK    4  A    between atoms: C_8  and  O_10
REMARK    5  A    between atoms: O_10  and  C_11
REMARK    6  A    between atoms: C_11  and  C_12
REMARK    7  A    between atoms: C_15  and  O_17
REMARK    8  A    between atoms: O_17  and  C_18
REMARK    9  A    between atoms: C_18  and  C_19
REMARK   10  A    between atoms: C_22  and  O_24
REMARK   11  A    between atoms: O_24  and  C_25
REMARK   12  A    between atoms: C_25  and  C_26
REMARK   13  A    between atoms: C_27  and  C_28
REMARK   14  A    between atoms: C_36  and  C_38
REMARK   15  A    between atoms: C_39  and  C_40
REMARK   16  A    between atoms: C_39  and  C_41
REMARK   17  A    between atoms: C_41  and  C_42
REMARK   18  A    between atoms: C_43  and  C_44
REMARK   19  A    between atoms: C_43  and  C_45
REMARK                            x       y       z     vdW  Elec       q    Type
REMARK                         _______ _______ _______ _____ _____    ______ ____
ROOT
ATOM      1  C   LIG A   1      -6.171   4.316 132.066  0.00  0.00    +0.200 C 
ATOM      2  C   LIG A   1      -6.776   5.302 131.139  0.00  0.00    +0.023 C 
ATOM      3  C   LIG A   1      -7.321   4.823 130.014  0.00  0.00    +0.013 C 
ATOM      4  C   LIG A   1      -8.697   5.284 129.566  0.00  0.00    +0.343 C 
ATOM      5  O   LIG A   1      -9.123   4.248 128.676  0.00  0.00    -0.297 OA
ATOM      6  C   LIG A   1      -7.915   3.777 128.092  0.00  0.00    +0.328 C 
ATOM      7  C   LIG A   1      -6.931   3.494 129.309  0.00  0.00    +0.100 C 
ATOM      8  C   LIG A   1      -5.453   3.340 128.752  0.00  0.00    +0.194 C 
ATOM      9  C   LIG A   1      -4.551   2.348 129.496  0.00  0.00    +0.049 C 
ATOM     10  C   LIG A   1      -5.132   1.029 130.076  0.00  0.00    -0.004 C 
ATOM     11  C   LIG A   1      -4.362  -0.229 129.633  0.00  0.00    +0.008 C 
ATOM     12  C   LIG A   1      -6.706   0.918 130.252  0.00  0.00    -0.022 C 
ATOM     13  C   LIG A   1      -6.898   0.041 131.547  0.00  0.00    +0.012 C 
ATOM     14  C   LIG A   1      -7.247   2.410 130.443  0.00  0.00    +0.019 C 
ATOM     15  C   LIG A   1      -6.864   2.938 131.911  0.00  0.00    +0.054 C 
ENDROOT
BRANCH   1  16
ATOM     16  O   LIG A   1      -6.179   4.845 133.427  0.00  0.00    -0.457 OA
BRANCH  16  18
ATOM     17  C   LIG A   1      -8.140   4.480 134.709  0.00  0.00    +0.136 C 
ATOM     18  C   LIG A   1      -6.695   4.139 134.469  0.00  0.00    +0.304 C 
ATOM     19  O   LIG A   1      -6.096   3.333 135.164  0.00  0.00    -0.251 OA
ENDBRANCH  16  18
ENDBRANCH   1  16
BRANCH   4  20
ATOM     20  O   LIG A   1      -9.645   5.312 130.633  0.00  0.00    -0.431 OA
BRANCH  20  21
ATOM     21  C   LIG A   1     -10.440   6.411 130.623  0.00  0.00    +0.306 C 
ATOM     22  C   LIG A   1      -9.882   7.480 129.731  0.00  0.00    +0.136 C 
ATOM     23  O   LIG A   1     -11.445   6.555 131.296  0.00  0.00    -0.251 OA
ENDBRANCH  20  21
ENDBRANCH   4  20
BRANCH   6  24
ATOM     24  O   LIG A   1      -7.360   4.867 127.269  0.00  0.00    -0.434 OA
BRANCH  24  25
ATOM     25  C   LIG A   1      -7.670   4.948 125.954  0.00  0.00    +0.306 C 
ATOM     26  C   LIG A   1      -6.444   5.207 125.121  0.00  0.00    +0.136 C 
ATOM     27  O   LIG A   1      -8.806   4.839 125.487  0.00  0.00    -0.251 OA
ENDBRANCH  24  25
ENDBRANCH   6  24
BRANCH   8  28
ATOM     28  O   LIG A   1      -5.495   2.970 127.353  0.00  0.00    -0.457 OA
BRANCH  28  29
ATOM     29  C   LIG A   1      -4.420   2.287 126.804  0.00  0.00    +0.332 C 
ATOM     30  O   LIG A   1      -3.311   2.688 126.604  0.00  0.00    -0.246 OA
BRANCH  29  31
ATOM     31  C   LIG A   1      -4.894   0.954 126.336  0.00  0.00    +0.092 C 
ATOM     32  C   LIG A   1      -6.159   0.773 125.927  0.00  0.00    +0.015 C 
BRANCH  32  33
ATOM     33  C   LIG A   1      -6.716  -0.496 125.458  0.00  0.00    -0.025 A 
ATOM     34  C   LIG A   1      -5.915  -1.409 124.754  0.00  0.00    +0.008 A 
ATOM     35  C   LIG A   1      -6.444  -2.628 124.332  0.00  0.00    +0.001 A 
ATOM     36  C   LIG A   1      -7.790  -2.910 124.551  0.00  0.00    +0.000 A 
ATOM     37  C   LIG A   1      -8.603  -1.982 125.197  0.00  0.00    +0.001 A 
ATOM     38  C   LIG A   1      -8.063  -0.790 125.664  0.00  0.00    +0.008 A 
ENDBRANCH  32  33
ENDBRANCH  29  31
ENDBRANCH  28  29
ENDBRANCH   8  28
BRANCH  12  39
ATOM     39  C   LIG A   1      -7.543   0.100 129.151  0.00  0.00    +0.034 C 
BRANCH  39  40
ATOM     40  C   LIG A   1      -7.933  -1.371 129.451  0.00  0.00    -0.023 C 
ATOM     41  C   LIG A   1      -7.379  -2.507 128.956  0.00  0.00    -0.055 C 
ATOM     42  C   LIG A   1      -6.081  -2.619 128.196  0.00  0.00    +0.043 C 
BRANCH  41  43
ATOM     43  C   LIG A   1      -8.043  -3.809 129.086  0.00  0.00    -0.005 C 
ATOM     44  C   LIG A   1      -9.028  -4.204 128.267  0.00  0.00    +0.008 C 
ENDBRANCH  41  43
ENDBRANCH  39  40
ENDBRANCH  12  39
TORSDOF 13
ENDMDL
MODEL 5
REMARK VINA RESULT:      -8.6      3.799      8.401
REMARK  Name = NuBBE_58
REMARK  19 active torsions:
REMARK  status: ('A' for Active; 'I' for Inactive)
REMARK    1  A    between atoms: C_1  and  C_2
REMARK    2  A    between atoms: C_2  and  O_3
REMARK    3  A    between atoms: O_3  and  C_4
REMARK    4  A    between atoms: C_8  and  O_10
REMARK    5  A    between atoms: O_10  and  C_11
REMARK    6  A    between atoms: C_11  and  C_12
REMARK    7  A    between atoms: C_15  and  O_17
REMARK    8  A    between atoms: O_17  and  C_18
REMARK    9  A    between atoms: C_18  and  C_19
REMARK   10  A    between atoms: C_22  and  O_24
REMARK   11  A    between atoms: O_24  and  C_25
REMARK   12  A    between atoms: C_25  and  C_26
REMARK   13  A    between atoms: C_27  and  C_28
REMARK   14  A    between atoms: C_36  and  C_38
REMARK   15  A    between atoms: C_39  and  C_40
REMARK   16  A    between atoms: C_39  and  C_41
REMARK   17  A    between atoms: C_41  and  C_42
REMARK   18  A    between atoms: C_43  and  C_44
REMARK   19  A    between atoms: C_43  and  C_45
REMARK                            x       y       z     vdW  Elec       q    Type
REMARK                         _______ _______ _______ _____ _____    ______ ____
ROOT
ATOM      1  C   LIG A   1      -4.360   2.271 127.680  0.00  0.00    +0.200 C 
ATOM      2  C   LIG A   1      -5.242   1.550 126.730  0.00  0.00    +0.023 C 
ATOM      3  C   LIG A   1      -6.209   0.789 127.256  0.00  0.00    +0.013 C 
ATOM      4  C   LIG A   1      -7.628   0.867 126.721  0.00  0.00    +0.343 C 
ATOM      5  O   LIG A   1      -8.418   0.338 127.789  0.00  0.00    -0.297 OA
ATOM      6  C   LIG A   1      -7.565  -0.615 128.410  0.00  0.00    +0.328 C 
ATOM      7  C   LIG A   1      -6.191   0.143 128.669  0.00  0.00    +0.100 C 
ATOM      8  C   LIG A   1      -5.065  -0.928 128.994  0.00  0.00    +0.194 C 
ATOM      9  C   LIG A   1      -3.986  -0.489 129.991  0.00  0.00    +0.049 C 
ATOM     10  C   LIG A   1      -4.344   0.416 131.202  0.00  0.00    -0.004 C 
ATOM     11  C   LIG A   1      -3.870  -0.148 132.554  0.00  0.00    +0.008 C 
ATOM     12  C   LIG A   1      -5.721   1.206 131.163  0.00  0.00    -0.022 C 
ATOM     13  C   LIG A   1      -5.420   2.562 131.907  0.00  0.00    +0.012 C 
ATOM     14  C   LIG A   1      -6.076   1.424 129.620  0.00  0.00    +0.019 C 
ATOM     15  C   LIG A   1      -5.118   2.555 129.002  0.00  0.00    +0.054 C 
ENDROOT
BRANCH   1  16
ATOM     16  O   LIG A   1      -3.803   3.456 127.037  0.00  0.00    -0.457 OA
BRANCH  16  18
ATOM     17  C   LIG A   1      -1.506   2.982 126.684  0.00  0.00    +0.136 C 
ATOM     18  C   LIG A   1      -2.539   3.888 127.298  0.00  0.00    +0.304 C 
ATOM     19  O   LIG A   1      -2.230   4.868 127.956  0.00  0.00    -0.251 OA
ENDBRANCH  16  18
ENDBRANCH   1  16
BRANCH   4  20
ATOM     20  O   LIG A   1      -8.072   2.210 126.520  0.00  0.00    -0.431 OA
BRANCH  20  21
ATOM     21  C   LIG A   1      -8.519   2.452 125.263  0.00  0.00    +0.306 C 
ATOM     22  C   LIG A   1      -8.376   1.240 124.391  0.00  0.00    +0.136 C 
ATOM     23  O   LIG A   1      -8.924   3.527 124.858  0.00  0.00    -0.251 OA
ENDBRANCH  20  21
ENDBRANCH   4  20
BRANCH   6  24
ATOM     24  O   LIG A   1      -7.336  -1.706 127.445  0.00  0.00    -0.434 OA
BRANCH  24  25
ATOM     25  C   LIG A   1      -8.321  -2.599 127.187  0.00  0.00    +0.306 C 
ATOM     26  C   LIG A   1      -8.562  -3.500 128.368  0.00  0.00    +0.136 C 
ATOM     27  O   LIG A   1      -8.938  -2.683 126.123  0.00  0.00    -0.251 OA
ENDBRANCH  24  25
ENDBRANCH   6  24
BRANCH   8  28
ATOM     28  O   LIG A   1      -5.677  -2.146 129.479  0.00  0.00    -0.457 OA
BRANCH  28  29
ATOM     29  C   LIG A   1      -4.876  -3.252 129.724  0.00  0.00    +0.332 C 
ATOM     30  O   LIG A   1      -4.007  -3.704 129.038  0.00  0.00    -0.246 OA
BRANCH  29  31
ATOM     31  C   LIG A   1      -5.363  -3.926 130.959  0.00  0.00    +0.092 C 
ATOM     32  C   LIG A   1      -6.156  -3.285 131.832  0.00  0.00    +0.015 C 
BRANCH  32  33
ATOM     33  C   LIG A   1      -6.678  -3.861 133.072  0.00  0.00    -0.025 A 
ATOM     34  C   LIG A   1      -7.771  -3.272 133.726  0.00  0.00    +0.008 A 
ATOM     35  C   LIG A   1      -8.280  -3.840 134.893  0.00  0.00    +0.001 A 
ATOM     36  C   LIG A   1      -7.658  -4.956 135.448  0.00  0.00    +0.000 A 
ATOM     37  C   LIG A   1      -6.536  -5.508 134.834  0.00  0.00    +0.001 A 
ATOM     38  C   LIG A   1      -6.062  -4.974 133.642  0.00  0.00    +0.008 A 
ENDBRANCH  32  33
ENDBRANCH  29  31
ENDBRANCH  28  29
ENDBRANCH   8  28
BRANCH  12  39
ATOM     39  C   LIG A   1      -6.962   0.620 132.000  0.00  0.00    +0.034 C 
BRANCH  39  40
ATOM     40  C   LIG A   1      -7.713   1.561 132.978  0.00  0.00    -0.023 C 
ATOM     41  C   LIG A   1      -8.846   2.276 132.756  0.00  0.00    -0.055 C 
ATOM     42  C   LIG A   1      -9.792   2.126 131.592  0.00  0.00    +0.043 C 
BRANCH  41  43
ATOM     43  C   LIG A   1      -9.267   3.353 133.660  0.00  0.00    -0.005 C 
ATOM     44  C   LIG A   1      -8.396   4.175 134.261  0.00  0.00    +0.008 C 
ENDBRANCH  41  43
ENDBRANCH  39  40
ENDBRANCH  12  39
TORSDOF 13
ENDMDL
MODEL 6
REMARK VINA RESULT:      -8.6      1.603      2.542
REMARK  Name = NuBBE_58
REMARK  19 active torsions:
REMARK  status: ('A' for Active; 'I' for Inactive)
REMARK    1  A    between atoms: C_1  and  C_2
REMARK    2  A    between atoms: C_2  and  O_3
REMARK    3  A    between atoms: O_3  and  C_4
REMARK    4  A    between atoms: C_8  and  O_10
REMARK    5  A    between atoms: O_10  and  C_11
REMARK    6  A    between atoms: C_11  and  C_12
REMARK    7  A    between atoms: C_15  and  O_17
REMARK    8  A    between atoms: O_17  and  C_18
REMARK    9  A    between atoms: C_18  and  C_19
REMARK   10  A    between atoms: C_22  and  O_24
REMARK   11  A    between atoms: O_24  and  C_25
REMARK   12  A    between atoms: C_25  and  C_26
REMARK   13  A    between atoms: C_27  and  C_28
REMARK   14  A    between atoms: C_36  and  C_38
REMARK   15  A    between atoms: C_39  and  C_40
REMARK   16  A    between atoms: C_39  and  C_41
REMARK   17  A    between atoms: C_41  and  C_42
REMARK   18  A    between atoms: C_43  and  C_44
REMARK   19  A    between atoms: C_43  and  C_45
REMARK                            x       y       z     vdW  Elec       q    Type
REMARK                         _______ _______ _______ _____ _____    ______ ____
ROOT
ATOM      1  C   LIG A   1      -7.384   3.060 127.472  0.00  0.00    +0.200 C 
ATOM      2  C   LIG A   1      -6.376   4.116 127.727  0.00  0.00    +0.023 C 
ATOM      3  C   LIG A   1      -5.835   4.158 128.951  0.00  0.00    +0.013 C 
ATOM      4  C   LIG A   1      -4.333   4.292 129.127  0.00  0.00    +0.343 C 
ATOM      5  O   LIG A   1      -4.108   3.815 130.457  0.00  0.00    -0.297 OA
ATOM      6  C   LIG A   1      -5.298   4.164 131.154  0.00  0.00    +0.328 C 
ATOM      7  C   LIG A   1      -6.495   3.629 130.255  0.00  0.00    +0.100 C 
ATOM      8  C   LIG A   1      -7.848   4.301 130.743  0.00  0.00    +0.194 C 
ATOM      9  C   LIG A   1      -9.109   3.437 130.632  0.00  0.00    +0.049 C 
ATOM     10  C   LIG A   1      -9.049   1.907 130.899  0.00  0.00    -0.004 C 
ATOM     11  C   LIG A   1     -10.085   1.422 131.930  0.00  0.00    +0.008 C 
ATOM     12  C   LIG A   1      -7.629   1.199 130.878  0.00  0.00    -0.022 C 
ATOM     13  C   LIG A   1      -7.910  -0.235 130.290  0.00  0.00    +0.012 C 
ATOM     14  C   LIG A   1      -6.698   2.077 129.919  0.00  0.00    +0.019 C 
ATOM     15  C   LIG A   1      -7.123   1.837 128.389  0.00  0.00    +0.054 C 
ENDROOT
BRANCH   1  16
ATOM     16  O   LIG A   1      -7.425   2.747 126.047  0.00  0.00    -0.457 OA
BRANCH  16  18
ATOM     17  C   LIG A   1      -7.904   3.062 123.745  0.00  0.00    +0.136 C 
ATOM     18  C   LIG A   1      -8.127   3.509 125.164  0.00  0.00    +0.304 C 
ATOM     19  O   LIG A   1      -8.845   4.457 125.438  0.00  0.00    -0.251 OA
ENDBRANCH  16  18
ENDBRANCH   1  16
BRANCH   4  20
ATOM     20  O   LIG A   1      -3.595   3.430 128.261  0.00  0.00    -0.431 OA
BRANCH  20  21
ATOM     21  C   LIG A   1      -2.575   4.050 127.618  0.00  0.00    +0.306 C 
ATOM     22  C   LIG A   1      -1.818   3.092 126.746  0.00  0.00    +0.136 C 
ATOM     23  O   LIG A   1      -2.257   5.216 127.767  0.00  0.00    -0.251 OA
ENDBRANCH  20  21
ENDBRANCH   4  20
BRANCH   6  24
ATOM     24  O   LIG A   1      -5.366   5.635 131.216  0.00  0.00    -0.434 OA
BRANCH  24  25
ATOM     25  C   LIG A   1      -4.706   6.303 132.192  0.00  0.00    +0.306 C 
ATOM     26  C   LIG A   1      -3.686   7.245 131.613  0.00  0.00    +0.136 C 
ATOM     27  O   LIG A   1      -4.897   6.158 133.401  0.00  0.00    -0.251 OA
ENDBRANCH  24  25
ENDBRANCH   6  24
BRANCH   8  28
ATOM     28  O   LIG A   1      -7.706   4.741 132.115  0.00  0.00    -0.457 OA
BRANCH  28  29
ATOM     29  C   LIG A   1      -8.437   5.835 132.551  0.00  0.00    +0.332 C 
ATOM     30  O   LIG A   1      -8.684   6.161 133.675  0.00  0.00    -0.246 OA
BRANCH  29  31
ATOM     31  C   LIG A   1      -9.031   6.512 131.365  0.00  0.00    +0.092 C 
ATOM     32  C   LIG A   1     -10.359   6.680 131.255  0.00  0.00    +0.015 C 
BRANCH  32  33
ATOM     33  C   LIG A   1     -11.033   7.325 130.129  0.00  0.00    -0.025 A 
ATOM     34  C   LIG A   1     -12.434   7.381 130.073  0.00  0.00    +0.008 A 
ATOM     35  C   LIG A   1     -13.070   8.020 129.010  0.00  0.00    +0.001 A 
ATOM     36  C   LIG A   1     -12.313   8.544 127.965  0.00  0.00    +0.000 A 
ATOM     37  C   LIG A   1     -10.925   8.438 127.987  0.00  0.00    +0.001 A 
ATOM     38  C   LIG A   1     -10.288   7.849 129.072  0.00  0.00    +0.008 A 
ENDBRANCH  32  33
ENDBRANCH  29  31
ENDBRANCH  28  29
ENDBRANCH   8  28
BRANCH  12  39
ATOM     39  C   LIG A   1      -6.919   0.866 132.281  0.00  0.00    +0.034 C 
BRANCH  39  40
ATOM     40  C   LIG A   1      -6.197  -0.497 132.447  0.00  0.00    -0.023 C 
ATOM     41  C   LIG A   1      -5.002  -0.885 131.933  0.00  0.00    -0.055 C 
ATOM     42  C   LIG A   1      -3.966   0.004 131.292  0.00  0.00    +0.043 C 
BRANCH  41  43
ATOM     43  C   LIG A   1      -4.591  -2.294 131.915  0.00  0.00    -0.005 C 
ATOM     44  C   LIG A   1      -5.341  -3.259 131.365  0.00  0.00    +0.008 C 
ENDBRANCH  41  43
ENDBRANCH  39  40
ENDBRANCH  12  39
TORSDOF 13
ENDMDL
MODEL 7
REMARK VINA RESULT:      -8.6      2.628      5.227
REMARK  Name = NuBBE_58
REMARK  19 active torsions:
REMARK  status: ('A' for Active; 'I' for Inactive)
REMARK    1  A    between atoms: C_1  and  C_2
REMARK    2  A    between atoms: C_2  and  O_3
REMARK    3  A    between atoms: O_3  and  C_4
REMARK    4  A    between atoms: C_8  and  O_10
REMARK    5  A    between atoms: O_10  and  C_11
REMARK    6  A    between atoms: C_11  and  C_12
REMARK    7  A    between atoms: C_15  and  O_17
REMARK    8  A    between atoms: O_17  and  C_18
REMARK    9  A    between atoms: C_18  and  C_19
REMARK   10  A    between atoms: C_22  and  O_24
REMARK   11  A    between atoms: O_24  and  C_25
REMARK   12  A    between atoms: C_25  and  C_26
REMARK   13  A    between atoms: C_27  and  C_28
REMARK   14  A    between atoms: C_36  and  C_38
REMARK   15  A    between atoms: C_39  and  C_40
REMARK   16  A    between atoms: C_39  and  C_41
REMARK   17  A    between atoms: C_41  and  C_42
REMARK   18  A    between atoms: C_43  and  C_44
REMARK   19  A    between atoms: C_43  and  C_45
REMARK                            x       y       z     vdW  Elec       q    Type
REMARK                         _______ _______ _______ _____ _____    ______ ____
ROOT
ATOM      1  C   LIG A   1      -6.821   0.232 126.929  0.00  0.00    +0.200 C 
ATOM      2  C   LIG A   1      -7.485   1.489 126.508  0.00  0.00    +0.023 C 
ATOM      3  C   LIG A   1      -7.441   2.516 127.365  0.00  0.00    +0.013 C 
ATOM      4  C   LIG A   1      -7.067   3.907 126.883  0.00  0.00    +0.343 C 
ATOM      5  O   LIG A   1      -6.655   4.575 128.078  0.00  0.00    -0.297 OA
ATOM      6  C   LIG A   1      -7.446   3.978 129.098  0.00  0.00    +0.328 C 
ATOM      7  C   LIG A   1      -7.280   2.408 128.906  0.00  0.00    +0.100 C 
ATOM      8  C   LIG A   1      -8.413   1.665 129.734  0.00  0.00    +0.194 C 
ATOM      9  C   LIG A   1      -8.026   0.311 130.341  0.00  0.00    +0.049 C 
ATOM     10  C   LIG A   1      -6.596   0.071 130.900  0.00  0.00    -0.004 C 
ATOM     11  C   LIG A   1      -6.582  -0.469 132.341  0.00  0.00    +0.008 C 
ATOM     12  C   LIG A   1      -5.446   1.076 130.467  0.00  0.00    -0.022 C 
ATOM     13  C   LIG A   1      -4.151   0.182 130.384  0.00  0.00    +0.012 C 
ATOM     14  C   LIG A   1      -5.869   1.664 129.042  0.00  0.00    +0.019 C 
ATOM     15  C   LIG A   1      -5.664   0.542 127.913  0.00  0.00    +0.054 C 
ENDROOT
BRANCH   1  16
ATOM     16  O   LIG A   1      -6.424  -0.537 125.753  0.00  0.00    -0.457 OA
BRANCH  16  18
ATOM     17  C   LIG A   1      -5.617  -2.523 124.739  0.00  0.00    +0.136 C 
ATOM     18  C   LIG A   1      -6.598  -1.885 125.684  0.00  0.00    +0.304 C 
ATOM     19  O   LIG A   1      -7.441  -2.537 126.280  0.00  0.00    -0.251 OA
ENDBRANCH  16  18
ENDBRANCH   1  16
BRANCH   4  20
ATOM     20  O   LIG A   1      -5.935   3.906 126.012  0.00  0.00    -0.431 OA
BRANCH  20  21
ATOM     21  C   LIG A   1      -6.053   4.762 124.967  0.00  0.00    +0.306 C 
ATOM     22  C   LIG A   1      -5.839   4.058 123.660  0.00  0.00    +0.136 C 
ATOM     23  O   LIG A   1      -6.241   5.961 125.061  0.00  0.00    -0.251 OA
ENDBRANCH  20  21
ENDBRANCH   4  20
BRANCH   6  24
ATOM     24  O   LIG A   1      -8.851   4.346 128.847  0.00  0.00    -0.434 OA
BRANCH  24  25
ATOM     25  C   LIG A   1      -9.282   5.600 129.118  0.00  0.00    +0.306 C 
ATOM     26  C   LIG A   1      -9.024   5.966 130.555  0.00  0.00    +0.136 C 
ATOM     27  O   LIG A   1      -9.827   6.352 128.307  0.00  0.00    -0.251 OA
ENDBRANCH  24  25
ENDBRANCH   6  24
BRANCH   8  28
ATOM     28  O   LIG A   1      -8.890   2.529 130.792  0.00  0.00    -0.457 OA
BRANCH  28  29
ATOM     29  C   LIG A   1      -9.450   1.961 131.926  0.00  0.00    +0.332 C 
ATOM     30  O   LIG A   1     -10.238   1.064 131.994  0.00  0.00    -0.246 OA
BRANCH  29  31
ATOM     31  C   LIG A   1      -9.024   2.753 133.113  0.00  0.00    +0.092 C 
ATOM     32  C   LIG A   1      -7.743   3.116 133.281  0.00  0.00    +0.015 C 
BRANCH  32  33
ATOM     33  C   LIG A   1      -7.231   3.886 134.415  0.00  0.00    -0.025 A 
ATOM     34  C   LIG A   1      -6.009   3.544 135.016  0.00  0.00    +0.008 A 
ATOM     35  C   LIG A   1      -5.514   4.298 136.079  0.00  0.00    +0.001 A 
ATOM     36  C   LIG A   1      -6.267   5.352 136.589  0.00  0.00    +0.000 A 
ATOM     37  C   LIG A   1      -7.507   5.658 136.034  0.00  0.00    +0.001 A 
ATOM     38  C   LIG A   1      -7.976   4.941 134.941  0.00  0.00    +0.008 A 
ENDBRANCH  32  33
ENDBRANCH  29  31
ENDBRANCH  28  29
ENDBRANCH   8  28
BRANCH  12  39
ATOM     39  C   LIG A   1      -5.007   2.227 131.499  0.00  0.00    +0.034 C 
BRANCH  39  40
ATOM     40  C   LIG A   1      -4.023   3.325 131.018  0.00  0.00    -0.023 C 
ATOM     41  C   LIG A   1      -4.196   4.671 131.019  0.00  0.00    -0.055 C 
ATOM     42  C   LIG A   1      -5.282   5.438 131.730  0.00  0.00    +0.043 C 
BRANCH  41  43
ATOM     43  C   LIG A   1      -3.315   5.563 130.256  0.00  0.00    -0.005 C 
ATOM     44  C   LIG A   1      -2.815   5.233 129.057  0.00  0.00    +0.008 C 
ENDBRANCH  41  43
ENDBRANCH  39  40
ENDBRANCH  12  39
TORSDOF 13
ENDMDL
MODEL 8
REMARK VINA RESULT:      -8.5      2.637      7.749
REMARK  Name = NuBBE_58
REMARK  19 active torsions:
REMARK  status: ('A' for Active; 'I' for Inactive)
REMARK    1  A    between atoms: C_1  and  C_2
REMARK    2  A    between atoms: C_2  and  O_3
REMARK    3  A    between atoms: O_3  and  C_4
REMARK    4  A    between atoms: C_8  and  O_10
REMARK    5  A    between atoms: O_10  and  C_11
REMARK    6  A    between atoms: C_11  and  C_12
REMARK    7  A    between atoms: C_15  and  O_17
REMARK    8  A    between atoms: O_17  and  C_18
REMARK    9  A    between atoms: C_18  and  C_19
REMARK   10  A    between atoms: C_22  and  O_24
REMARK   11  A    between atoms: O_24  and  C_25
REMARK   12  A    between atoms: C_25  and  C_26
REMARK   13  A    between atoms: C_27  and  C_28
REMARK   14  A    between atoms: C_36  and  C_38
REMARK   15  A    between atoms: C_39  and  C_40
REMARK   16  A    between atoms: C_39  and  C_41
REMARK   17  A    between atoms: C_41  and  C_42
REMARK   18  A    between atoms: C_43  and  C_44
REMARK   19  A    between atoms: C_43  and  C_45
REMARK                            x       y       z     vdW  Elec       q    Type
REMARK                         _______ _______ _______ _____ _____    ______ ____
ROOT
ATOM      1  C   LIG A   1      -4.539   4.200 130.597  0.00  0.00    +0.200 C 
ATOM      2  C   LIG A   1      -4.613   3.471 129.308  0.00  0.00    +0.023 C 
ATOM      3  C   LIG A   1      -5.831   3.275 128.789  0.00  0.00    +0.013 C 
ATOM      4  C   LIG A   1      -6.100   3.561 127.322  0.00  0.00    +0.343 C 
ATOM      5  O   LIG A   1      -7.520   3.716 127.267  0.00  0.00    -0.297 OA
ATOM      6  C   LIG A   1      -8.001   2.853 128.289  0.00  0.00    +0.328 C 
ATOM      7  C   LIG A   1      -7.161   3.216 129.589  0.00  0.00    +0.100 C 
ATOM      8  C   LIG A   1      -7.347   2.062 130.663  0.00  0.00    +0.194 C 
ATOM      9  C   LIG A   1      -7.343   2.500 132.132  0.00  0.00    +0.049 C 
ATOM     10  C   LIG A   1      -7.985   3.849 132.560  0.00  0.00    -0.004 C 
ATOM     11  C   LIG A   1      -9.008   3.708 133.702  0.00  0.00    +0.008 C 
ATOM     12  C   LIG A   1      -8.265   4.934 131.435  0.00  0.00    -0.022 C 
ATOM     13  C   LIG A   1      -8.029   6.317 132.152  0.00  0.00    +0.012 C 
ATOM     14  C   LIG A   1      -7.204   4.664 130.270  0.00  0.00    +0.019 C 
ATOM     15  C   LIG A   1      -5.750   5.157 130.741  0.00  0.00    +0.054 C 
ENDROOT
BRANCH   1  16
ATOM     16  O   LIG A   1      -3.239   4.849 130.727  0.00  0.00    -0.457 OA
BRANCH  16  18
ATOM     17  C   LIG A   1      -2.898   3.513 132.658  0.00  0.00    +0.136 C 
ATOM     18  C   LIG A   1      -2.472   4.704 131.842  0.00  0.00    +0.304 C 
ATOM     19  O   LIG A   1      -1.555   5.431 132.189  0.00  0.00    -0.251 OA
ENDBRANCH  16  18
ENDBRANCH   1  16
BRANCH   4  20
ATOM     20  O   LIG A   1      -5.543   4.803 126.889  0.00  0.00    -0.431 OA
BRANCH  20  21
ATOM     21  C   LIG A   1      -5.702   5.036 125.563  0.00  0.00    +0.306 C 
ATOM     22  C   LIG A   1      -5.083   3.945 124.740  0.00  0.00    +0.136 C 
ATOM     23  O   LIG A   1      -6.218   6.029 125.082  0.00  0.00    -0.251 OA
ENDBRANCH  20  21
ENDBRANCH   4  20
BRANCH   6  24
ATOM     24  O   LIG A   1      -7.691   1.468 127.889  0.00  0.00    -0.434 OA
BRANCH  24  25
ATOM     25  C   LIG A   1      -8.505   0.813 127.028  0.00  0.00    +0.306 C 
ATOM     26  C   LIG A   1      -8.099  -0.629 126.886  0.00  0.00    +0.136 C 
ATOM     27  O   LIG A   1      -9.450   1.323 126.423  0.00  0.00    -0.251 OA
ENDBRANCH  24  25
ENDBRANCH   6  24
BRANCH   8  28
ATOM     28  O   LIG A   1      -8.573   1.341 130.397  0.00  0.00    -0.457 OA
BRANCH  28  29
ATOM     29  C   LIG A   1      -8.958   0.324 131.257  0.00  0.00    +0.332 C 
ATOM     30  O   LIG A   1      -9.748   0.371 132.154  0.00  0.00    -0.246 OA
BRANCH  29  31
ATOM     31  C   LIG A   1      -8.105  -0.868 130.994  0.00  0.00    +0.092 C 
ATOM     32  C   LIG A   1      -7.792  -1.726 131.977  0.00  0.00    +0.015 C 
BRANCH  32  33
ATOM     33  C   LIG A   1      -6.958  -2.918 131.817  0.00  0.00    -0.025 A 
ATOM     34  C   LIG A   1      -6.422  -3.569 132.939  0.00  0.00    +0.008 A 
ATOM     35  C   LIG A   1      -5.649  -4.719 132.781  0.00  0.00    +0.001 A 
ATOM     36  C   LIG A   1      -5.353  -5.183 131.502  0.00  0.00    +0.000 A 
ATOM     37  C   LIG A   1      -5.834  -4.506 130.384  0.00  0.00    +0.001 A 
ATOM     38  C   LIG A   1      -6.647  -3.391 130.542  0.00  0.00    +0.008 A 
ENDBRANCH  32  33
ENDBRANCH  29  31
ENDBRANCH  28  29
ENDBRANCH   8  28
BRANCH  12  39
ATOM     39  C   LIG A   1      -9.764   5.085 130.875  0.00  0.00    +0.034 C 
BRANCH  39  40
ATOM     40  C   LIG A   1     -10.156   6.392 130.138  0.00  0.00    -0.023 C 
ATOM     41  C   LIG A   1     -11.278   7.141 130.291  0.00  0.00    -0.055 C 
ATOM     42  C   LIG A   1     -12.293   7.027 131.401  0.00  0.00    +0.043 C 
BRANCH  41  43
ATOM     43  C   LIG A   1     -11.656   8.172 129.318  0.00  0.00    -0.005 C 
ATOM     44  C   LIG A   1     -10.935   8.426 128.216  0.00  0.00    +0.008 C 
ENDBRANCH  41  43
ENDBRANCH  39  40
ENDBRANCH  12  39
TORSDOF 13
ENDMDL
MODEL 9
REMARK VINA RESULT:      -8.3      2.501      7.368
REMARK  Name = NuBBE_58
REMARK  19 active torsions:
REMARK  status: ('A' for Active; 'I' for Inactive)
REMARK    1  A    between atoms: C_1  and  C_2
REMARK    2  A    between atoms: C_2  and  O_3
REMARK    3  A    between atoms: O_3  and  C_4
REMARK    4  A    between atoms: C_8  and  O_10
REMARK    5  A    between atoms: O_10  and  C_11
REMARK    6  A    between atoms: C_11  and  C_12
REMARK    7  A    between atoms: C_15  and  O_17
REMARK    8  A    between atoms: O_17  and  C_18
REMARK    9  A    between atoms: C_18  and  C_19
REMARK   10  A    between atoms: C_22  and  O_24
REMARK   11  A    between atoms: O_24  and  C_25
REMARK   12  A    between atoms: C_25  and  C_26
REMARK   13  A    between atoms: C_27  and  C_28
REMARK   14  A    between atoms: C_36  and  C_38
REMARK   15  A    between atoms: C_39  and  C_40
REMARK   16  A    between atoms: C_39  and  C_41
REMARK   17  A    between atoms: C_41  and  C_42
REMARK   18  A    between atoms: C_43  and  C_44
REMARK   19  A    between atoms: C_43  and  C_45
REMARK                            x       y       z     vdW  Elec       q    Type
REMARK                         _______ _______ _______ _____ _____    ______ ____
ROOT
ATOM      1  C   LIG A   1      -9.449   4.824 129.750  0.00  0.00    +0.200 C 
ATOM      2  C   LIG A   1      -8.578   5.070 128.576  0.00  0.00    +0.023 C 
ATOM      3  C   LIG A   1      -7.631   4.160 128.320  0.00  0.00    +0.013 C 
ATOM      4  C   LIG A   1      -7.428   3.633 126.911  0.00  0.00    +0.343 C 
ATOM      5  O   LIG A   1      -6.736   2.398 127.112  0.00  0.00    -0.297 OA
ATOM      6  C   LIG A   1      -5.966   2.621 128.287  0.00  0.00    +0.328 C 
ATOM      7  C   LIG A   1      -6.982   3.206 129.361  0.00  0.00    +0.100 C 
ATOM      8  C   LIG A   1      -6.157   3.843 130.558  0.00  0.00    +0.194 C 
ATOM      9  C   LIG A   1      -6.791   3.730 131.949  0.00  0.00    +0.049 C 
ATOM     10  C   LIG A   1      -7.589   2.461 132.358  0.00  0.00    -0.004 C 
ATOM     11  C   LIG A   1      -7.114   1.835 133.682  0.00  0.00    +0.008 C 
ATOM     12  C   LIG A   1      -8.084   1.487 131.206  0.00  0.00    -0.022 C 
ATOM     13  C   LIG A   1      -9.464   0.929 131.726  0.00  0.00    +0.012 C 
ATOM     14  C   LIG A   1      -8.248   2.383 129.893  0.00  0.00    +0.019 C 
ATOM     15  C   LIG A   1      -9.557   3.302 130.027  0.00  0.00    +0.054 C 
ENDROOT
BRANCH   1  16
ATOM     16  O   LIG A   1     -10.732   5.496 129.566  0.00  0.00    -0.457 OA
BRANCH  16  18
ATOM     17  C   LIG A   1     -11.209   6.339 131.731  0.00  0.00    +0.136 C 
ATOM     18  C   LIG A   1     -11.061   6.619 130.260  0.00  0.00    +0.304 C 
ATOM     19  O   LIG A   1     -11.241   7.732 129.793  0.00  0.00    -0.251 OA
ENDBRANCH  16  18
ENDBRANCH   1  16
BRANCH   4  20
ATOM     20  O   LIG A   1      -8.656   3.304 126.260  0.00  0.00    -0.431 OA
BRANCH  20  21
ATOM     21  C   LIG A   1      -8.526   3.098 124.927  0.00  0.00    +0.306 C 
ATOM     22  C   LIG A   1      -9.401   1.972 124.461  0.00  0.00    +0.136 C 
ATOM     23  O   LIG A   1      -7.754   3.693 124.197  0.00  0.00    -0.251 OA
ENDBRANCH  20  21
ENDBRANCH   4  20
BRANCH   6  24
ATOM     24  O   LIG A   1      -4.957   3.648 127.972  0.00  0.00    -0.434 OA
BRANCH  24  25
ATOM     25  C   LIG A   1      -3.804   3.299 127.355  0.00  0.00    +0.306 C 
ATOM     26  C   LIG A   1      -3.782   3.780 125.929  0.00  0.00    +0.136 C 
ATOM     27  O   LIG A   1      -2.888   2.658 127.877  0.00  0.00    -0.251 OA
ENDBRANCH  24  25
ENDBRANCH   6  24
BRANCH   8  28
ATOM     28  O   LIG A   1      -4.833   3.260 130.602  0.00  0.00    -0.457 OA
BRANCH  28  29
ATOM     29  C   LIG A   1      -4.254   2.994 131.834  0.00  0.00    +0.332 C 
ATOM     30  O   LIG A   1      -3.830   3.772 132.637  0.00  0.00    -0.246 OA
BRANCH  29  31
ATOM     31  C   LIG A   1      -4.092   1.520 131.974  0.00  0.00    +0.092 C 
ATOM     32  C   LIG A   1      -4.128   0.714 130.901  0.00  0.00    +0.015 C 
BRANCH  32  33
ATOM     33  C   LIG A   1      -3.985  -0.741 130.939  0.00  0.00    -0.025 A 
ATOM     34  C   LIG A   1      -3.650  -1.394 132.136  0.00  0.00    +0.008 A 
ATOM     35  C   LIG A   1      -3.540  -2.783 132.172  0.00  0.00    +0.001 A 
ATOM     36  C   LIG A   1      -3.696  -3.520 131.000  0.00  0.00    +0.000 A 
ATOM     37  C   LIG A   1      -3.970  -2.872 129.799  0.00  0.00    +0.001 A 
ATOM     38  C   LIG A   1      -4.133  -1.492 129.773  0.00  0.00    +0.008 A 
ENDBRANCH  32  33
ENDBRANCH  29  31
ENDBRANCH  28  29
ENDBRANCH   8  28
BRANCH  12  39
ATOM     39  C   LIG A   1      -7.249   0.142 130.929  0.00  0.00    +0.034 C 
BRANCH  39  40
ATOM     40  C   LIG A   1      -7.883  -0.961 130.043  0.00  0.00    -0.023 C 
ATOM     41  C   LIG A   1      -7.824  -2.308 130.203  0.00  0.00    -0.055 C 
ATOM     42  C   LIG A   1      -7.347  -3.049 131.426  0.00  0.00    +0.043 C 
BRANCH  41  43
ATOM     43  C   LIG A   1      -8.205  -3.230 129.127  0.00  0.00    -0.005 C 
ATOM     44  C   LIG A   1      -8.209  -2.872 127.835  0.00  0.00    +0.008 C 
ENDBRANCH  41  43
ENDBRANCH  39  40
ENDBRANCH  12  39
TORSDOF 13
ENDMDL
