MODEL 1
REMARK VINA RESULT:      -6.9      0.000      0.000
REMARK  Name = NuBBE_555
REMARK  9 active torsions:
REMARK  status: ('A' for Active; 'I' for Inactive)
REMARK    1  A    between atoms: O_1  and  C_2
REMARK    2  A    between atoms: C_2  and  C_4
REMARK    3  A    between atoms: C_2  and  C_19
REMARK    4  A    between atoms: C_4  and  C_5
REMARK    5  A    between atoms: C_5  and  O_7
REMARK    6  A    between atoms: C_5  and  C_8
REMARK    7  A    between atoms: C_8  and  C_9
REMARK    8  A    between atoms: C_10  and  C_11
REMARK    9  A    between atoms: C_20  and  C_21
REMARK                            x       y       z     vdW  Elec       q    Type
REMARK                         _______ _______ _______ _____ _____    ______ ____
ROOT
ATOM      1  C   LIG A   1      -7.558   0.018 123.667  0.00  0.00    +0.121 C 
ENDROOT
BRANCH   1   2
ATOM      2  O   LIG A   1      -7.481  -1.135 122.820  0.00  0.00    -0.391 OA
ATOM      3  H   LIG A   1      -6.927  -0.884 122.056  0.00  0.00    +0.210 HD
ENDBRANCH   1   2
BRANCH   1   4
ATOM      4  C   LIG A   1      -9.034   0.278 124.004  0.00  0.00    +0.067 C 
BRANCH   4   5
ATOM      5  C   LIG A   1      -9.506   1.688 123.610  0.00  0.00    +0.140 C 
BRANCH   5   6
ATOM      6  O   LIG A   1      -9.727   2.498 124.759  0.00  0.00    -0.388 OA
ATOM      7  H   LIG A   1      -8.895   2.491 125.278  0.00  0.00    +0.210 HD
ENDBRANCH   5   6
BRANCH   5   8
ATOM      8  C   LIG A   1      -8.447   2.398 122.821  0.00  0.00    +0.004 C 
ATOM      9  C   LIG A   1      -8.638   3.071 121.674  0.00  0.00    +0.006 C 
BRANCH   9  10
ATOM     10  C   LIG A   1      -7.551   3.755 120.949  0.00  0.00    -0.025 A 
ATOM     11  C   LIG A   1      -7.775   4.238 119.652  0.00  0.00    +0.008 A 
ATOM     12  C   LIG A   1      -6.748   4.873 118.943  0.00  0.00    +0.001 A 
ATOM     13  C   LIG A   1      -5.487   5.022 119.516  0.00  0.00    +0.000 A 
ATOM     14  C   LIG A   1      -5.248   4.531 120.796  0.00  0.00    +0.001 A 
ATOM     15  C   LIG A   1      -6.270   3.893 121.502  0.00  0.00    +0.008 A 
ENDBRANCH   9  10
ENDBRANCH   5   8
ENDBRANCH   4   5
ENDBRANCH   1   4
BRANCH   1  16
ATOM     16  C   LIG A   1      -6.753  -0.220 124.958  0.00  0.00    +0.058 C 
BRANCH  16  17
ATOM     17  C   LIG A   1      -6.208   1.049 125.555  0.00  0.00    -0.025 C 
ATOM     18  C   LIG A   1      -6.880   1.819 126.426  0.00  0.00    +0.013 C 
BRANCH  18  19
ATOM     19  C   LIG A   1      -6.337   3.085 127.053  0.00  0.00    +0.203 C 
ATOM     20  O   LIG A   1      -7.410   4.044 127.138  0.00  0.00    -0.454 OA
ATOM     21  C   LIG A   1      -7.734   4.803 126.064  0.00  0.00    +0.332 C 
ATOM     22  C   LIG A   1      -6.740   4.912 124.986  0.00  0.00    +0.087 C 
ATOM     23  C   LIG A   1      -5.500   4.422 125.123  0.00  0.00    -0.016 C 
ATOM     24  C   LIG A   1      -5.106   3.685 126.360  0.00  0.00    +0.076 C 
ATOM     25  O   LIG A   1      -8.802   5.412 125.986  0.00  0.00    -0.246 OA
ENDBRANCH  18  19
ENDBRANCH  16  17
ENDBRANCH   1  16
TORSDOF 9
ENDMDL
MODEL 2
REMARK VINA RESULT:      -6.9      2.313      4.960
REMARK  Name = NuBBE_555
REMARK  9 active torsions:
REMARK  status: ('A' for Active; 'I' for Inactive)
REMARK    1  A    between atoms: O_1  and  C_2
REMARK    2  A    between atoms: C_2  and  C_4
REMARK    3  A    between atoms: C_2  and  C_19
REMARK    4  A    between atoms: C_4  and  C_5
REMARK    5  A    between atoms: C_5  and  O_7
REMARK    6  A    between atoms: C_5  and  C_8
REMARK    7  A    between atoms: C_8  and  C_9
REMARK    8  A    between atoms: C_10  and  C_11
REMARK    9  A    between atoms: C_20  and  C_21
REMARK                            x       y       z     vdW  Elec       q    Type
REMARK                         _______ _______ _______ _____ _____    ______ ____
ROOT
ATOM      1  C   LIG A   1      -9.428   1.418 123.497  0.00  0.00    +0.121 C 
ENDROOT
BRANCH   1   2
ATOM      2  O   LIG A   1     -10.525   1.828 124.322  0.00  0.00    -0.391 OA
ATOM      3  H   LIG A   1     -11.091   2.400 123.771  0.00  0.00    +0.210 HD
ENDBRANCH   1   2
BRANCH   1   4
ATOM      4  C   LIG A   1      -8.169   1.321 124.372  0.00  0.00    +0.067 C 
BRANCH   4   5
ATOM      5  C   LIG A   1      -7.438   2.666 124.534  0.00  0.00    +0.140 C 
BRANCH   5   6
ATOM      6  O   LIG A   1      -6.092   2.473 124.954  0.00  0.00    -0.388 OA
ATOM      7  H   LIG A   1      -5.531   3.038 124.383  0.00  0.00    +0.210 HD
ENDBRANCH   5   6
BRANCH   5   8
ATOM      8  C   LIG A   1      -7.346   3.378 123.218  0.00  0.00    +0.004 C 
ATOM      9  C   LIG A   1      -6.401   3.184 122.283  0.00  0.00    +0.006 C 
BRANCH   9  10
ATOM     10  C   LIG A   1      -6.370   3.915 121.003  0.00  0.00    -0.025 A 
ATOM     11  C   LIG A   1      -5.269   4.725 120.689  0.00  0.00    +0.008 A 
ATOM     12  C   LIG A   1      -5.232   5.440 119.487  0.00  0.00    +0.001 A 
ATOM     13  C   LIG A   1      -6.296   5.362 118.591  0.00  0.00    +0.000 A 
ATOM     14  C   LIG A   1      -7.402   4.575 118.898  0.00  0.00    +0.001 A 
ATOM     15  C   LIG A   1      -7.441   3.865 120.100  0.00  0.00    +0.008 A 
ENDBRANCH   9  10
ENDBRANCH   5   8
ENDBRANCH   4   5
ENDBRANCH   1   4
BRANCH   1  16
ATOM     16  C   LIG A   1      -9.732   0.054 122.852  0.00  0.00    +0.058 C 
BRANCH  16  17
ATOM     17  C   LIG A   1      -8.769  -1.024 123.271  0.00  0.00    -0.025 C 
ATOM     18  C   LIG A   1      -9.132  -2.282 123.572  0.00  0.00    +0.013 C 
BRANCH  18  19
ATOM     19  C   LIG A   1      -8.173  -3.381 123.972  0.00  0.00    +0.203 C 
ATOM     20  O   LIG A   1      -8.626  -3.944 125.221  0.00  0.00    -0.454 OA
ATOM     21  C   LIG A   1      -8.311  -3.344 126.393  0.00  0.00    +0.332 C 
ATOM     22  C   LIG A   1      -7.201  -2.381 126.386  0.00  0.00    +0.087 C 
ATOM     23  C   LIG A   1      -6.419  -2.219 125.309  0.00  0.00    -0.016 C 
ATOM     24  C   LIG A   1      -6.696  -2.971 124.049  0.00  0.00    +0.076 C 
ATOM     25  O   LIG A   1      -8.900  -3.603 127.444  0.00  0.00    -0.246 OA
ENDBRANCH  18  19
ENDBRANCH  16  17
ENDBRANCH   1  16
TORSDOF 9
ENDMDL
MODEL 3
REMARK VINA RESULT:      -6.7      7.307      9.553
REMARK  Name = NuBBE_555
REMARK  9 active torsions:
REMARK  status: ('A' for Active; 'I' for Inactive)
REMARK    1  A    between atoms: O_1  and  C_2
REMARK    2  A    between atoms: C_2  and  C_4
REMARK    3  A    between atoms: C_2  and  C_19
REMARK    4  A    between atoms: C_4  and  C_5
REMARK    5  A    between atoms: C_5  and  O_7
REMARK    6  A    between atoms: C_5  and  C_8
REMARK    7  A    between atoms: C_8  and  C_9
REMARK    8  A    between atoms: C_10  and  C_11
REMARK    9  A    between atoms: C_20  and  C_21
REMARK                            x       y       z     vdW  Elec       q    Type
REMARK                         _______ _______ _______ _____ _____    ______ ____
ROOT
ATOM      1  C   LIG A   1      -8.675   4.461 133.043  0.00  0.00    +0.121 C 
ENDROOT
BRANCH   1   2
ATOM      2  O   LIG A   1      -9.773   4.237 133.935  0.00  0.00    -0.391 OA
ATOM      3  H   LIG A   1      -9.592   4.759 134.739  0.00  0.00    +0.210 HD
ENDBRANCH   1   2
BRANCH   1   4
ATOM      4  C   LIG A   1      -8.586   3.274 132.071  0.00  0.00    +0.067 C 
BRANCH   4   5
ATOM      5  C   LIG A   1      -9.711   2.243 132.270  0.00  0.00    +0.140 C 
BRANCH   5   6
ATOM      6  O   LIG A   1     -10.867   2.592 131.517  0.00  0.00    -0.388 OA
ATOM      7  H   LIG A   1     -11.507   1.857 131.617  0.00  0.00    +0.210 HD
ENDBRANCH   5   6
BRANCH   5   8
ATOM      8  C   LIG A   1      -9.292   0.899 131.755  0.00  0.00    +0.004 C 
ATOM      9  C   LIG A   1      -8.209   0.648 131.000  0.00  0.00    +0.006 C 
BRANCH   9  10
ATOM     10  C   LIG A   1      -7.849  -0.702 130.529  0.00  0.00    -0.025 A 
ATOM     11  C   LIG A   1      -7.650  -1.734 131.457  0.00  0.00    +0.008 A 
ATOM     12  C   LIG A   1      -7.289  -3.016 131.027  0.00  0.00    +0.001 A 
ATOM     13  C   LIG A   1      -7.114  -3.279 129.670  0.00  0.00    +0.000 A 
ATOM     14  C   LIG A   1      -7.291  -2.259 128.741  0.00  0.00    +0.001 A 
ATOM     15  C   LIG A   1      -7.646  -0.978 129.169  0.00  0.00    +0.008 A 
ENDBRANCH   9  10
ENDBRANCH   5   8
ENDBRANCH   4   5
ENDBRANCH   1   4
BRANCH   1  16
ATOM     16  C   LIG A   1      -8.887   5.771 132.262  0.00  0.00    +0.058 C 
BRANCH  16  17
ATOM     17  C   LIG A   1     -10.331   6.033 131.932  0.00  0.00    -0.025 C 
ATOM     18  C   LIG A   1     -10.816   6.105 130.681  0.00  0.00    +0.013 C 
BRANCH  18  19
ATOM     19  C   LIG A   1     -12.269   6.346 130.335  0.00  0.00    +0.203 C 
ATOM     20  O   LIG A   1     -12.451   6.066 128.932  0.00  0.00    -0.454 OA
ATOM     21  C   LIG A   1     -12.152   7.006 128.004  0.00  0.00    +0.332 C 
ATOM     22  C   LIG A   1     -12.033   8.398 128.463  0.00  0.00    +0.087 C 
ATOM     23  C   LIG A   1     -12.367   8.757 129.711  0.00  0.00    -0.016 C 
ATOM     24  C   LIG A   1     -12.812   7.733 130.703  0.00  0.00    +0.076 C 
ATOM     25  O   LIG A   1     -12.009   6.733 126.812  0.00  0.00    -0.246 OA
ENDBRANCH  18  19
ENDBRANCH  16  17
ENDBRANCH   1  16
TORSDOF 9
ENDMDL
MODEL 4
REMARK VINA RESULT:      -6.6      1.923      4.866
REMARK  Name = NuBBE_555
REMARK  9 active torsions:
REMARK  status: ('A' for Active; 'I' for Inactive)
REMARK    1  A    between atoms: O_1  and  C_2
REMARK    2  A    between atoms: C_2  and  C_4
REMARK    3  A    between atoms: C_2  and  C_19
REMARK    4  A    between atoms: C_4  and  C_5
REMARK    5  A    between atoms: C_5  and  O_7
REMARK    6  A    between atoms: C_5  and  C_8
REMARK    7  A    between atoms: C_8  and  C_9
REMARK    8  A    between atoms: C_10  and  C_11
REMARK    9  A    between atoms: C_20  and  C_21
REMARK                            x       y       z     vdW  Elec       q    Type
REMARK                         _______ _______ _______ _____ _____    ______ ____
ROOT
ATOM      1  C   LIG A   1      -8.377   2.089 125.392  0.00  0.00    +0.121 C 
ENDROOT
BRANCH   1   2
ATOM      2  O   LIG A   1      -9.524   2.630 124.724  0.00  0.00    -0.391 OA
ATOM      3  H   LIG A   1      -9.567   3.575 124.964  0.00  0.00    +0.210 HD
ENDBRANCH   1   2
BRANCH   1   4
ATOM      4  C   LIG A   1      -7.581   3.250 126.009  0.00  0.00    +0.067 C 
BRANCH   4   5
ATOM      5  C   LIG A   1      -6.195   3.441 125.368  0.00  0.00    +0.140 C 
BRANCH   5   6
ATOM      6  O   LIG A   1      -5.519   2.197 125.221  0.00  0.00    -0.388 OA
ATOM      7  H   LIG A   1      -5.700   1.880 124.311  0.00  0.00    +0.210 HD
ENDBRANCH   5   6
BRANCH   5   8
ATOM      8  C   LIG A   1      -6.327   3.989 123.979  0.00  0.00    +0.004 C 
ATOM      9  C   LIG A   1      -6.096   3.312 122.841  0.00  0.00    +0.006 C 
BRANCH   9  10
ATOM     10  C   LIG A   1      -6.250   3.909 121.502  0.00  0.00    -0.025 A 
ATOM     11  C   LIG A   1      -7.437   3.713 120.783  0.00  0.00    +0.008 A 
ATOM     12  C   LIG A   1      -7.592   4.257 119.503  0.00  0.00    +0.001 A 
ATOM     13  C   LIG A   1      -6.561   4.994 118.924  0.00  0.00    +0.000 A 
ATOM     14  C   LIG A   1      -5.371   5.180 119.619  0.00  0.00    +0.001 A 
ATOM     15  C   LIG A   1      -5.214   4.633 120.895  0.00  0.00    +0.008 A 
ENDBRANCH   9  10
ENDBRANCH   5   8
ENDBRANCH   4   5
ENDBRANCH   1   4
BRANCH   1  16
ATOM     16  C   LIG A   1      -8.819   1.107 126.491  0.00  0.00    +0.058 C 
BRANCH  16  17
ATOM     17  C   LIG A   1      -8.744  -0.333 126.060  0.00  0.00    -0.025 C 
ATOM     18  C   LIG A   1      -7.608  -1.050 126.028  0.00  0.00    +0.013 C 
BRANCH  18  19
ATOM     19  C   LIG A   1      -7.521  -2.504 125.619  0.00  0.00    +0.203 C 
ATOM     20  O   LIG A   1      -6.520  -2.624 124.587  0.00  0.00    -0.454 OA
ATOM     21  C   LIG A   1      -6.834  -2.357 123.298  0.00  0.00    +0.332 C 
ATOM     22  C   LIG A   1      -8.258  -2.343 122.935  0.00  0.00    +0.087 C 
ATOM     23  C   LIG A   1      -9.206  -2.739 123.797  0.00  0.00    -0.016 C 
ATOM     24  C   LIG A   1      -8.846  -3.147 125.187  0.00  0.00    +0.076 C 
ATOM     25  O   LIG A   1      -5.974  -2.160 122.438  0.00  0.00    -0.246 OA
ENDBRANCH  18  19
ENDBRANCH  16  17
ENDBRANCH   1  16
TORSDOF 9
ENDMDL
MODEL 5
REMARK VINA RESULT:      -6.6      7.380      9.830
REMARK  Name = NuBBE_555
REMARK  9 active torsions:
REMARK  status: ('A' for Active; 'I' for Inactive)
REMARK    1  A    between atoms: O_1  and  C_2
REMARK    2  A    between atoms: C_2  and  C_4
REMARK    3  A    between atoms: C_2  and  C_19
REMARK    4  A    between atoms: C_4  and  C_5
REMARK    5  A    between atoms: C_5  and  O_7
REMARK    6  A    between atoms: C_5  and  C_8
REMARK    7  A    between atoms: C_8  and  C_9
REMARK    8  A    between atoms: C_10  and  C_11
REMARK    9  A    between atoms: C_20  and  C_21
REMARK                            x       y       z     vdW  Elec       q    Type
REMARK                         _______ _______ _______ _____ _____    ______ ____
ROOT
ATOM      1  C   LIG A   1      -9.757   5.328 132.539  0.00  0.00    +0.121 C 
ENDROOT
BRANCH   1   2
ATOM      2  O   LIG A   1      -9.867   4.500 133.703  0.00  0.00    -0.391 OA
ATOM      3  H   LIG A   1     -10.228   3.644 133.403  0.00  0.00    +0.210 HD
ENDBRANCH   1   2
BRANCH   1   4
ATOM      4  C   LIG A   1      -8.405   6.058 132.586  0.00  0.00    +0.067 C 
BRANCH   4   5
ATOM      5  C   LIG A   1      -7.643   6.007 131.250  0.00  0.00    +0.140 C 
BRANCH   5   6
ATOM      6  O   LIG A   1      -7.737   7.247 130.557  0.00  0.00    -0.388 OA
ATOM      7  H   LIG A   1      -8.399   7.128 129.845  0.00  0.00    +0.210 HD
ENDBRANCH   5   6
BRANCH   5   8
ATOM      8  C   LIG A   1      -6.178   5.793 131.485  0.00  0.00    +0.004 C 
ATOM      9  C   LIG A   1      -5.261   6.758 131.669  0.00  0.00    +0.006 C 
BRANCH   9  10
ATOM     10  C   LIG A   1      -3.832   6.480 131.902  0.00  0.00    -0.025 A 
ATOM     11  C   LIG A   1      -2.957   7.533 132.201  0.00  0.00    +0.008 A 
ATOM     12  C   LIG A   1      -1.594   7.289 132.407  0.00  0.00    +0.001 A 
ATOM     13  C   LIG A   1      -1.091   5.994 132.307  0.00  0.00    +0.000 A 
ATOM     14  C   LIG A   1      -1.946   4.942 131.993  0.00  0.00    +0.001 A 
ATOM     15  C   LIG A   1      -3.305   5.186 131.782  0.00  0.00    +0.008 A 
ENDBRANCH   9  10
ENDBRANCH   5   8
ENDBRANCH   4   5
ENDBRANCH   1   4
BRANCH   1  16
ATOM     16  C   LIG A   1      -9.851   4.467 131.266  0.00  0.00    +0.058 C 
BRANCH  16  17
ATOM     17  C   LIG A   1     -10.965   4.891 130.348  0.00  0.00    -0.025 C 
ATOM     18  C   LIG A   1     -11.475   6.134 130.309  0.00  0.00    +0.013 C 
BRANCH  18  19
ATOM     19  C   LIG A   1     -12.579   6.580 129.376  0.00  0.00    +0.203 C 
ATOM     20  O   LIG A   1     -12.180   6.274 128.024  0.00  0.00    -0.454 OA
ATOM     21  C   LIG A   1     -11.367   7.117 127.345  0.00  0.00    +0.332 C 
ATOM     22  C   LIG A   1     -11.240   8.492 127.851  0.00  0.00    +0.087 C 
ATOM     23  C   LIG A   1     -12.019   8.950 128.841  0.00  0.00    -0.016 C 
ATOM     24  C   LIG A   1     -13.003   8.049 129.513  0.00  0.00    +0.076 C 
ATOM     25  O   LIG A   1     -10.769   6.776 126.323  0.00  0.00    -0.246 OA
ENDBRANCH  18  19
ENDBRANCH  16  17
ENDBRANCH   1  16
TORSDOF 9
ENDMDL
MODEL 6
REMARK VINA RESULT:      -6.5      2.206      5.162
REMARK  Name = NuBBE_555
REMARK  9 active torsions:
REMARK  status: ('A' for Active; 'I' for Inactive)
REMARK    1  A    between atoms: O_1  and  C_2
REMARK    2  A    between atoms: C_2  and  C_4
REMARK    3  A    between atoms: C_2  and  C_19
REMARK    4  A    between atoms: C_4  and  C_5
REMARK    5  A    between atoms: C_5  and  O_7
REMARK    6  A    between atoms: C_5  and  C_8
REMARK    7  A    between atoms: C_8  and  C_9
REMARK    8  A    between atoms: C_10  and  C_11
REMARK    9  A    between atoms: C_20  and  C_21
REMARK                            x       y       z     vdW  Elec       q    Type
REMARK                         _______ _______ _______ _____ _____    ______ ____
ROOT
ATOM      1  C   LIG A   1      -5.415   1.594 127.573  0.00  0.00    +0.121 C 
ENDROOT
BRANCH   1   2
ATOM      2  O   LIG A   1      -4.714   0.560 128.275  0.00  0.00    -0.391 OA
ATOM      3  H   LIG A   1      -5.081  -0.288 127.960  0.00  0.00    +0.210 HD
ENDBRANCH   1   2
BRANCH   1   4
ATOM      4  C   LIG A   1      -4.515   2.109 126.439  0.00  0.00    +0.067 C 
BRANCH   4   5
ATOM      5  C   LIG A   1      -4.659   3.621 126.190  0.00  0.00    +0.140 C 
BRANCH   5   6
ATOM      6  O   LIG A   1      -3.462   4.314 126.524  0.00  0.00    -0.388 OA
ATOM      7  H   LIG A   1      -2.908   4.334 125.715  0.00  0.00    +0.210 HD
ENDBRANCH   5   6
BRANCH   5   8
ATOM      8  C   LIG A   1      -4.886   3.897 124.734  0.00  0.00    +0.004 C 
ATOM      9  C   LIG A   1      -5.965   3.530 124.022  0.00  0.00    +0.006 C 
BRANCH   9  10
ATOM     10  C   LIG A   1      -6.130   3.838 122.590  0.00  0.00    -0.025 A 
ATOM     11  C   LIG A   1      -7.318   3.487 121.933  0.00  0.00    +0.008 A 
ATOM     12  C   LIG A   1      -7.484   3.755 120.570  0.00  0.00    +0.001 A 
ATOM     13  C   LIG A   1      -6.463   4.368 119.846  0.00  0.00    +0.000 A 
ATOM     14  C   LIG A   1      -5.272   4.706 120.482  0.00  0.00    +0.001 A 
ATOM     15  C   LIG A   1      -5.105   4.434 121.842  0.00  0.00    +0.008 A 
ENDBRANCH   9  10
ENDBRANCH   5   8
ENDBRANCH   4   5
ENDBRANCH   1   4
BRANCH   1  16
ATOM     16  C   LIG A   1      -6.732   1.044 126.996  0.00  0.00    +0.058 C 
BRANCH  16  17
ATOM     17  C   LIG A   1      -6.553   0.361 125.667  0.00  0.00    -0.025 C 
ATOM     18  C   LIG A   1      -6.775  -0.948 125.458  0.00  0.00    +0.013 C 
BRANCH  18  19
ATOM     19  C   LIG A   1      -6.622  -1.642 124.123  0.00  0.00    +0.203 C 
ATOM     20  O   LIG A   1      -7.666  -1.171 123.246  0.00  0.00    -0.454 OA
ATOM     21  C   LIG A   1      -8.904  -1.716 123.304  0.00  0.00    +0.332 C 
ATOM     22  C   LIG A   1      -9.040  -3.022 123.966  0.00  0.00    +0.087 C 
ATOM     23  C   LIG A   1      -7.968  -3.728 124.351  0.00  0.00    -0.016 C 
ATOM     24  C   LIG A   1      -6.591  -3.176 124.179  0.00  0.00    +0.076 C 
ATOM     25  O   LIG A   1      -9.888  -1.171 122.802  0.00  0.00    -0.246 OA
ENDBRANCH  18  19
ENDBRANCH  16  17
ENDBRANCH   1  16
TORSDOF 9
ENDMDL
MODEL 7
REMARK VINA RESULT:      -6.4      2.038      4.890
REMARK  Name = NuBBE_555
REMARK  9 active torsions:
REMARK  status: ('A' for Active; 'I' for Inactive)
REMARK    1  A    between atoms: O_1  and  C_2
REMARK    2  A    between atoms: C_2  and  C_4
REMARK    3  A    between atoms: C_2  and  C_19
REMARK    4  A    between atoms: C_4  and  C_5
REMARK    5  A    between atoms: C_5  and  O_7
REMARK    6  A    between atoms: C_5  and  C_8
REMARK    7  A    between atoms: C_8  and  C_9
REMARK    8  A    between atoms: C_10  and  C_11
REMARK    9  A    between atoms: C_20  and  C_21
REMARK                            x       y       z     vdW  Elec       q    Type
REMARK                         _______ _______ _______ _____ _____    ______ ____
ROOT
ATOM      1  C   LIG A   1      -4.897   2.045 126.787  0.00  0.00    +0.121 C 
ENDROOT
BRANCH   1   2
ATOM      2  O   LIG A   1      -3.742   2.124 127.631  0.00  0.00    -0.391 OA
ATOM      3  H   LIG A   1      -4.025   2.571 128.451  0.00  0.00    +0.210 HD
ENDBRANCH   1   2
BRANCH   1   4
ATOM      4  C   LIG A   1      -4.726   3.045 125.632  0.00  0.00    +0.067 C 
BRANCH   4   5
ATOM      5  C   LIG A   1      -6.019   3.809 125.297  0.00  0.00    +0.140 C 
BRANCH   5   6
ATOM      6  O   LIG A   1      -6.127   5.002 126.066  0.00  0.00    -0.388 OA
ATOM      7  H   LIG A   1      -6.421   5.710 125.456  0.00  0.00    +0.210 HD
ENDBRANCH   5   6
BRANCH   5   8
ATOM      8  C   LIG A   1      -6.010   4.258 123.866  0.00  0.00    +0.004 C 
ATOM      9  C   LIG A   1      -6.383   3.520 122.807  0.00  0.00    +0.006 C 
BRANCH   9  10
ATOM     10  C   LIG A   1      -6.356   4.024 121.422  0.00  0.00    -0.025 A 
ATOM     11  C   LIG A   1      -5.249   4.755 120.967  0.00  0.00    +0.008 A 
ATOM     12  C   LIG A   1      -5.216   5.257 119.661  0.00  0.00    +0.001 A 
ATOM     13  C   LIG A   1      -6.290   5.042 118.800  0.00  0.00    +0.000 A 
ATOM     14  C   LIG A   1      -7.402   4.334 119.245  0.00  0.00    +0.001 A 
ATOM     15  C   LIG A   1      -7.438   3.838 120.549  0.00  0.00    +0.008 A 
ENDBRANCH   9  10
ENDBRANCH   5   8
ENDBRANCH   4   5
ENDBRANCH   1   4
BRANCH   1  16
ATOM     16  C   LIG A   1      -5.050   0.617 126.232  0.00  0.00    +0.058 C 
BRANCH  16  17
ATOM     17  C   LIG A   1      -6.199   0.478 125.272  0.00  0.00    -0.025 C 
ATOM     18  C   LIG A   1      -7.277  -0.293 125.495  0.00  0.00    +0.013 C 
BRANCH  18  19
ATOM     19  C   LIG A   1      -8.450  -0.425 124.549  0.00  0.00    +0.203 C 
ATOM     20  O   LIG A   1      -9.487  -1.173 125.217  0.00  0.00    -0.454 OA
ATOM     21  C   LIG A   1      -9.447  -2.526 125.237  0.00  0.00    +0.332 C 
ATOM     22  C   LIG A   1      -8.581  -3.194 124.254  0.00  0.00    +0.087 C 
ATOM     23  C   LIG A   1      -7.983  -2.512 123.268  0.00  0.00    -0.016 C 
ATOM     24  C   LIG A   1      -8.124  -1.028 123.176  0.00  0.00    +0.076 C 
ATOM     25  O   LIG A   1     -10.123  -3.194 126.021  0.00  0.00    -0.246 OA
ENDBRANCH  18  19
ENDBRANCH  16  17
ENDBRANCH   1  16
TORSDOF 9
ENDMDL
MODEL 8
REMARK VINA RESULT:      -6.3      7.345      8.958
REMARK  Name = NuBBE_555
REMARK  9 active torsions:
REMARK  status: ('A' for Active; 'I' for Inactive)
REMARK    1  A    between atoms: O_1  and  C_2
REMARK    2  A    between atoms: C_2  and  C_4
REMARK    3  A    between atoms: C_2  and  C_19
REMARK    4  A    between atoms: C_4  and  C_5
REMARK    5  A    between atoms: C_5  and  O_7
REMARK    6  A    between atoms: C_5  and  C_8
REMARK    7  A    between atoms: C_8  and  C_9
REMARK    8  A    between atoms: C_10  and  C_11
REMARK    9  A    between atoms: C_20  and  C_21
REMARK                            x       y       z     vdW  Elec       q    Type
REMARK                         _______ _______ _______ _____ _____    ______ ____
ROOT
ATOM      1  C   LIG A   1      -7.994   6.042 130.683  0.00  0.00    +0.121 C 
ENDROOT
BRANCH   1   2
ATOM      2  O   LIG A   1      -7.500   5.314 129.552  0.00  0.00    -0.391 OA
ATOM      3  H   LIG A   1      -8.278   5.069 129.016  0.00  0.00    +0.210 HD
ENDBRANCH   1   2
BRANCH   1   4
ATOM      4  C   LIG A   1      -8.392   5.036 131.774  0.00  0.00    +0.067 C 
BRANCH   4   5
ATOM      5  C   LIG A   1      -9.914   4.832 131.882  0.00  0.00    +0.140 C 
BRANCH   5   6
ATOM      6  O   LIG A   1     -10.348   4.905 133.236  0.00  0.00    -0.388 OA
ATOM      7  H   LIG A   1     -10.345   3.990 133.587  0.00  0.00    +0.210 HD
ENDBRANCH   5   6
BRANCH   5   8
ATOM      8  C   LIG A   1     -10.646   5.929 131.170  0.00  0.00    +0.004 C 
ATOM      9  C   LIG A   1     -11.619   5.763 130.258  0.00  0.00    +0.006 C 
BRANCH   9  10
ATOM     10  C   LIG A   1     -12.305   6.888 129.596  0.00  0.00    -0.025 A 
ATOM     11  C   LIG A   1     -13.081   6.655 128.452  0.00  0.00    +0.008 A 
ATOM     12  C   LIG A   1     -13.724   7.715 127.801  0.00  0.00    +0.001 A 
ATOM     13  C   LIG A   1     -13.591   9.017 128.280  0.00  0.00    +0.000 A 
ATOM     14  C   LIG A   1     -12.809   9.263 129.404  0.00  0.00    +0.001 A 
ATOM     15  C   LIG A   1     -12.163   8.207 130.050  0.00  0.00    +0.008 A 
ENDBRANCH   9  10
ENDBRANCH   5   8
ENDBRANCH   4   5
ENDBRANCH   1   4
BRANCH   1  16
ATOM     16  C   LIG A   1      -6.908   6.996 131.212  0.00  0.00    +0.058 C 
BRANCH  16  17
ATOM     17  C   LIG A   1      -5.545   6.362 131.273  0.00  0.00    -0.025 C 
ATOM     18  C   LIG A   1      -4.401   7.007 130.985  0.00  0.00    +0.013 C 
BRANCH  18  19
ATOM     19  C   LIG A   1      -3.023   6.390 131.063  0.00  0.00    +0.203 C 
ATOM     20  O   LIG A   1      -2.212   6.960 130.016  0.00  0.00    -0.454 OA
ATOM     21  C   LIG A   1      -2.279   6.468 128.756  0.00  0.00    +0.332 C 
ATOM     22  C   LIG A   1      -2.866   5.131 128.580  0.00  0.00    +0.087 C 
ATOM     23  C   LIG A   1      -3.171   4.355 129.630  0.00  0.00    -0.016 C 
ATOM     24  C   LIG A   1      -2.985   4.855 131.025  0.00  0.00    +0.076 C 
ATOM     25  O   LIG A   1      -1.845   7.086 127.783  0.00  0.00    -0.246 OA
ENDBRANCH  18  19
ENDBRANCH  16  17
ENDBRANCH   1  16
TORSDOF 9
ENDMDL
MODEL 9
REMARK VINA RESULT:      -6.3      4.318      5.864
REMARK  Name = NuBBE_555
REMARK  9 active torsions:
REMARK  status: ('A' for Active; 'I' for Inactive)
REMARK    1  A    between atoms: O_1  and  C_2
REMARK    2  A    between atoms: C_2  and  C_4
REMARK    3  A    between atoms: C_2  and  C_19
REMARK    4  A    between atoms: C_4  and  C_5
REMARK    5  A    between atoms: C_5  and  O_7
REMARK    6  A    between atoms: C_5  and  C_8
REMARK    7  A    between atoms: C_8  and  C_9
REMARK    8  A    between atoms: C_10  and  C_11
REMARK    9  A    between atoms: C_20  and  C_21
REMARK                            x       y       z     vdW  Elec       q    Type
REMARK                         _______ _______ _______ _____ _____    ______ ____
ROOT
ATOM      1  C   LIG A   1      -8.684  -3.283 125.235  0.00  0.00    +0.121 C 
ENDROOT
BRANCH   1   2
ATOM      2  O   LIG A   1      -9.865  -3.119 124.440  0.00  0.00    -0.391 OA
ATOM      3  H   LIG A   1     -10.498  -2.612 124.982  0.00  0.00    +0.210 HD
ENDBRANCH   1   2
BRANCH   1   4
ATOM      4  C   LIG A   1      -7.838  -2.006 125.119  0.00  0.00    +0.067 C 
BRANCH   4   5
ATOM      5  C   LIG A   1      -8.559  -0.867 124.377  0.00  0.00    +0.140 C 
BRANCH   5   6
ATOM      6  O   LIG A   1      -9.599  -0.310 125.175  0.00  0.00    -0.388 OA
ATOM      7  H   LIG A   1     -10.009  -1.051 125.668  0.00  0.00    +0.210 HD
ENDBRANCH   5   6
BRANCH   5   8
ATOM      8  C   LIG A   1      -7.616   0.267 124.106  0.00  0.00    +0.004 C 
ATOM      9  C   LIG A   1      -7.880   1.346 123.349  0.00  0.00    +0.006 C 
BRANCH   9  10
ATOM     10  C   LIG A   1      -6.908   2.432 123.126  0.00  0.00    -0.025 A 
ATOM     11  C   LIG A   1      -6.367   3.119 124.221  0.00  0.00    +0.008 A 
ATOM     12  C   LIG A   1      -5.457   4.165 124.025  0.00  0.00    +0.001 A 
ATOM     13  C   LIG A   1      -5.086   4.541 122.736  0.00  0.00    +0.000 A 
ATOM     14  C   LIG A   1      -5.630   3.877 121.640  0.00  0.00    +0.001 A 
ATOM     15  C   LIG A   1      -6.541   2.837 121.834  0.00  0.00    +0.008 A 
ENDBRANCH   9  10
ENDBRANCH   5   8
ENDBRANCH   4   5
ENDBRANCH   1   4
BRANCH   1  16
ATOM     16  C   LIG A   1      -9.067  -3.533 126.705  0.00  0.00    +0.058 C 
BRANCH  16  17
ATOM     17  C   LIG A   1      -8.192  -2.789 127.677  0.00  0.00    -0.025 C 
ATOM     18  C   LIG A   1      -8.076  -3.103 128.978  0.00  0.00    +0.013 C 
BRANCH  18  19
ATOM     19  C   LIG A   1      -7.184  -2.378 129.962  0.00  0.00    +0.203 C 
ATOM     20  O   LIG A   1      -5.878  -2.234 129.366  0.00  0.00    -0.454 OA
ATOM     21  C   LIG A   1      -4.987  -3.252 129.422  0.00  0.00    +0.332 C 
ATOM     22  C   LIG A   1      -5.224  -4.307 130.417  0.00  0.00    +0.087 C 
ATOM     23  C   LIG A   1      -6.183  -4.193 131.346  0.00  0.00    -0.016 C 
ATOM     24  C   LIG A   1      -7.094  -3.010 131.358  0.00  0.00    +0.076 C 
ATOM     25  O   LIG A   1      -3.993  -3.297 128.695  0.00  0.00    -0.246 OA
ENDBRANCH  18  19
ENDBRANCH  16  17
ENDBRANCH   1  16
TORSDOF 9
ENDMDL
