MODEL 1
REMARK VINA RESULT:      -7.0      0.000      0.000
REMARK  Name = NuBBE_248
REMARK  12 active torsions:
REMARK  status: ('A' for Active; 'I' for Inactive)
REMARK    1  A    between atoms: C_2  and  C_3
REMARK    2  A    between atoms: C_2  and  O_13
REMARK    3  A    between atoms: C_4  and  C_5
REMARK    4  A    between atoms: C_7  and  O_8
REMARK    5  A    between atoms: C_9  and  O_12
REMARK    6  A    between atoms: O_13  and  C_14
REMARK    7  A    between atoms: C_16  and  O_29
REMARK    8  A    between atoms: C_18  and  O_28
REMARK    9  A    between atoms: C_21  and  O_22
REMARK   10  A    between atoms: C_21  and  C_24
REMARK   11  A    between atoms: C_24  and  O_25
REMARK   12  A    between atoms: O_25  and  C_26
REMARK                            x       y       z     vdW  Elec       q    Type
REMARK                         _______ _______ _______ _____ _____    ______ ____
ROOT
ATOM      1  C   LIG A   1      -7.171   2.158 125.497  0.00  0.00    +0.211 C 
ATOM      2  C   LIG A   1      -8.324   3.095 125.897  0.00  0.00    +0.184 C 
ATOM      3  C   LIG A   1      -7.794   4.451 126.374  0.00  0.00    +0.150 C 
ATOM      4  C   LIG A   1      -6.994   5.139 125.269  0.00  0.00    +0.080 C 
ATOM      5  C   LIG A   1      -5.846   4.270 124.742  0.00  0.00    +0.168 C 
ATOM      6  C   LIG A   1      -6.288   2.828 124.428  0.00  0.00    +0.093 C 
ENDROOT
BRANCH   5   7
ATOM      7  O   LIG A   1      -5.428   4.832 123.480  0.00  0.00    -0.377 OA
ATOM      8  H   LIG A   1      -4.482   4.615 123.375  0.00  0.00    +0.211 HD
ENDBRANCH   5   7
BRANCH   5   9
ATOM      9  C   LIG A   1      -4.671   4.366 125.752  0.00  0.00    +0.339 C 
ATOM     10  O   LIG A   1      -3.757   3.560 125.872  0.00  0.00    -0.248 OA
BRANCH   9  11
ATOM     11  O   LIG A   1      -4.891   5.408 126.614  0.00  0.00    -0.466 OA
ATOM     12  C   LIG A   1      -4.079   5.380 127.791  0.00  0.00    +0.280 C 
ENDBRANCH   9  11
ENDBRANCH   5   9
BRANCH   3  13
ATOM     13  O   LIG A   1      -8.910   5.291 126.696  0.00  0.00    -0.389 OA
ATOM     14  H   LIG A   1      -9.437   5.390 125.880  0.00  0.00    +0.210 HD
ENDBRANCH   3  13
BRANCH   2  15
ATOM     15  O   LIG A   1      -9.175   3.294 124.752  0.00  0.00    -0.386 OA
ATOM     16  H   LIG A   1      -8.766   4.017 124.235  0.00  0.00    +0.210 HD
ENDBRANCH   2  15
BRANCH   1  17
ATOM     17  O   LIG A   1      -6.295   1.682 126.546  0.00  0.00    -0.456 OA
BRANCH  17  19
ATOM     18  O   LIG A   1      -7.103  -0.147 127.670  0.00  0.00    -0.246 OA
ATOM     19  C   LIG A   1      -6.337   0.374 126.884  0.00  0.00    +0.332 C 
BRANCH  19  20
ATOM     20  C   LIG A   1      -5.314  -0.321 126.022  0.00  0.00    +0.092 C 
ATOM     21  C   LIG A   1      -5.514  -1.217 125.030  0.00  0.00    +0.015 C 
BRANCH  21  22
ATOM     22  C   LIG A   1      -6.761  -1.818 124.525  0.00  0.00    -0.021 A 
ATOM     23  C   LIG A   1      -7.686  -1.108 123.751  0.00  0.00    +0.057 A 
ATOM     24  C   LIG A   1      -8.890  -1.694 123.382  0.00  0.00    +0.159 A 
ATOM     25  C   LIG A   1      -9.146  -3.023 123.685  0.00  0.00    +0.158 A 
ATOM     26  C   LIG A   1      -8.206  -3.783 124.362  0.00  0.00    +0.050 A 
ATOM     27  C   LIG A   1      -7.016  -3.178 124.787  0.00  0.00    +0.012 A 
BRANCH  24  28
ATOM     28  O   LIG A   1      -9.857  -0.983 122.724  0.00  0.00    -0.503 OA
ATOM     29  H   LIG A   1     -10.002  -0.159 123.222  0.00  0.00    +0.292 HD
ENDBRANCH  24  28
BRANCH  25  30
ATOM     30  O   LIG A   1     -10.332  -3.584 123.311  0.00  0.00    -0.503 OA
ATOM     31  H   LIG A   1     -10.952  -2.827 123.275  0.00  0.00    +0.292 HD
ENDBRANCH  25  30
ENDBRANCH  21  22
ENDBRANCH  19  20
ENDBRANCH  17  19
ENDBRANCH   1  17
TORSDOF 11
ENDMDL
MODEL 2
REMARK VINA RESULT:      -6.7      3.800      7.890
REMARK  Name = NuBBE_248
REMARK  12 active torsions:
REMARK  status: ('A' for Active; 'I' for Inactive)
REMARK    1  A    between atoms: C_2  and  C_3
REMARK    2  A    between atoms: C_2  and  O_13
REMARK    3  A    between atoms: C_4  and  C_5
REMARK    4  A    between atoms: C_7  and  O_8
REMARK    5  A    between atoms: C_9  and  O_12
REMARK    6  A    between atoms: O_13  and  C_14
REMARK    7  A    between atoms: C_16  and  O_29
REMARK    8  A    between atoms: C_18  and  O_28
REMARK    9  A    between atoms: C_21  and  O_22
REMARK   10  A    between atoms: C_21  and  C_24
REMARK   11  A    between atoms: C_24  and  O_25
REMARK   12  A    between atoms: O_25  and  C_26
REMARK                            x       y       z     vdW  Elec       q    Type
REMARK                         _______ _______ _______ _____ _____    ______ ____
ROOT
ATOM      1  C   LIG A   1      -4.825   4.880 127.564  0.00  0.00    +0.211 C 
ATOM      2  C   LIG A   1      -4.077   3.555 127.332  0.00  0.00    +0.184 C 
ATOM      3  C   LIG A   1      -4.965   2.537 126.611  0.00  0.00    +0.150 C 
ATOM      4  C   LIG A   1      -5.406   3.070 125.249  0.00  0.00    +0.080 C 
ATOM      5  C   LIG A   1      -6.115   4.426 125.347  0.00  0.00    +0.168 C 
ATOM      6  C   LIG A   1      -5.352   5.434 126.227  0.00  0.00    +0.093 C 
ENDROOT
BRANCH   5   7
ATOM      7  O   LIG A   1      -6.127   5.000 124.022  0.00  0.00    -0.377 OA
ATOM      8  H   LIG A   1      -5.480   5.730 124.025  0.00  0.00    +0.211 HD
ENDBRANCH   5   7
BRANCH   5   9
ATOM      9  C   LIG A   1      -7.578   4.170 125.800  0.00  0.00    +0.339 C 
ATOM     10  O   LIG A   1      -8.284   4.950 126.426  0.00  0.00    -0.248 OA
BRANCH   9  11
ATOM     11  O   LIG A   1      -7.917   2.868 125.541  0.00  0.00    -0.466 OA
ATOM     12  C   LIG A   1      -8.937   2.710 124.552  0.00  0.00    +0.280 C 
ENDBRANCH   9  11
ENDBRANCH   5   9
BRANCH   3  13
ATOM     13  O   LIG A   1      -4.205   1.343 126.390  0.00  0.00    -0.389 OA
ATOM     14  H   LIG A   1      -4.593   0.649 126.956  0.00  0.00    +0.210 HD
ENDBRANCH   3  13
BRANCH   2  15
ATOM     15  O   LIG A   1      -2.911   3.820 126.528  0.00  0.00    -0.386 OA
ATOM     16  H   LIG A   1      -3.220   4.362 125.775  0.00  0.00    +0.210 HD
ENDBRANCH   2  15
BRANCH   1  17
ATOM     17  O   LIG A   1      -5.933   4.873 128.496  0.00  0.00    -0.456 OA
BRANCH  17  19
ATOM     18  O   LIG A   1      -5.544   3.614 130.373  0.00  0.00    -0.246 OA
ATOM     19  C   LIG A   1      -5.674   4.682 129.810  0.00  0.00    +0.332 C 
BRANCH  19  20
ATOM     20  C   LIG A   1      -5.484   6.051 130.409  0.00  0.00    +0.092 C 
ATOM     21  C   LIG A   1      -6.380   6.817 131.069  0.00  0.00    +0.015 C 
BRANCH  21  22
ATOM     22  C   LIG A   1      -7.805   6.579 131.361  0.00  0.00    -0.021 A 
ATOM     23  C   LIG A   1      -8.240   5.845 132.470  0.00  0.00    +0.057 A 
ATOM     24  C   LIG A   1      -9.590   5.570 132.646  0.00  0.00    +0.159 A 
ATOM     25  C   LIG A   1     -10.533   6.108 131.783  0.00  0.00    +0.158 A 
ATOM     26  C   LIG A   1     -10.142   6.924 130.735  0.00  0.00    +0.050 A 
ATOM     27  C   LIG A   1      -8.777   7.155 130.521  0.00  0.00    +0.012 A 
BRANCH  24  28
ATOM     28  O   LIG A   1     -10.026   4.760 133.658  0.00  0.00    -0.503 OA
ATOM     29  H   LIG A   1      -9.384   4.833 134.387  0.00  0.00    +0.292 HD
ENDBRANCH  24  28
BRANCH  25  30
ATOM     30  O   LIG A   1     -11.856   5.832 131.973  0.00  0.00    -0.503 OA
ATOM     31  H   LIG A   1     -12.044   5.119 131.329  0.00  0.00    +0.292 HD
ENDBRANCH  25  30
ENDBRANCH  21  22
ENDBRANCH  19  20
ENDBRANCH  17  19
ENDBRANCH   1  17
TORSDOF 11
ENDMDL
MODEL 3
REMARK VINA RESULT:      -6.7      5.441      8.091
REMARK  Name = NuBBE_248
REMARK  12 active torsions:
REMARK  status: ('A' for Active; 'I' for Inactive)
REMARK    1  A    between atoms: C_2  and  C_3
REMARK    2  A    between atoms: C_2  and  O_13
REMARK    3  A    between atoms: C_4  and  C_5
REMARK    4  A    between atoms: C_7  and  O_8
REMARK    5  A    between atoms: C_9  and  O_12
REMARK    6  A    between atoms: O_13  and  C_14
REMARK    7  A    between atoms: C_16  and  O_29
REMARK    8  A    between atoms: C_18  and  O_28
REMARK    9  A    between atoms: C_21  and  O_22
REMARK   10  A    between atoms: C_21  and  C_24
REMARK   11  A    between atoms: C_24  and  O_25
REMARK   12  A    between atoms: O_25  and  C_26
REMARK                            x       y       z     vdW  Elec       q    Type
REMARK                         _______ _______ _______ _____ _____    ______ ____
ROOT
ATOM      1  C   LIG A   1      -8.793   3.463 131.204  0.00  0.00    +0.211 C 
ATOM      2  C   LIG A   1      -8.886   4.205 132.549  0.00  0.00    +0.184 C 
ATOM      3  C   LIG A   1      -9.147   5.699 132.340  0.00  0.00    +0.150 C 
ATOM      4  C   LIG A   1     -10.460   5.921 131.593  0.00  0.00    +0.080 C 
ATOM      5  C   LIG A   1     -10.511   5.176 130.254  0.00  0.00    +0.168 C 
ATOM      6  C   LIG A   1     -10.068   3.705 130.375  0.00  0.00    +0.093 C 
ENDROOT
BRANCH   5   7
ATOM      7  O   LIG A   1     -11.893   5.132 129.840  0.00  0.00    -0.377 OA
ATOM      8  H   LIG A   1     -11.904   4.784 128.928  0.00  0.00    +0.211 HD
ENDBRANCH   5   7
BRANCH   5   9
ATOM      9  C   LIG A   1      -9.699   5.998 129.217  0.00  0.00    +0.339 C 
ATOM     10  O   LIG A   1      -9.029   5.539 128.301  0.00  0.00    -0.248 OA
BRANCH   9  11
ATOM     11  O   LIG A   1      -9.704   7.320 129.575  0.00  0.00    -0.466 OA
ATOM     12  C   LIG A   1     -10.344   8.183 128.631  0.00  0.00    +0.280 C 
ENDBRANCH   9  11
ENDBRANCH   5   9
BRANCH   3  13
ATOM     13  O   LIG A   1      -9.260   6.327 133.623  0.00  0.00    -0.389 OA
ATOM     14  H   LIG A   1     -10.150   6.120 133.965  0.00  0.00    +0.210 HD
ENDBRANCH   3  13
BRANCH   2  15
ATOM     15  O   LIG A   1      -9.967   3.637 133.315  0.00  0.00    -0.386 OA
ATOM     16  H   LIG A   1     -10.260   4.340 133.927  0.00  0.00    +0.210 HD
ENDBRANCH   2  15
BRANCH   1  17
ATOM     17  O   LIG A   1      -7.661   3.755 130.351  0.00  0.00    -0.456 OA
BRANCH  17  19
ATOM     18  O   LIG A   1      -7.342   2.396 128.531  0.00  0.00    -0.246 OA
ATOM     19  C   LIG A   1      -7.085   2.741 129.667  0.00  0.00    +0.332 C 
BRANCH  19  20
ATOM     20  C   LIG A   1      -5.998   2.192 130.555  0.00  0.00    +0.092 C 
ATOM     21  C   LIG A   1      -4.715   2.601 130.672  0.00  0.00    +0.015 C 
BRANCH  21  22
ATOM     22  C   LIG A   1      -3.981   3.655 129.949  0.00  0.00    -0.021 A 
ATOM     23  C   LIG A   1      -3.412   3.454 128.687  0.00  0.00    +0.057 A 
ATOM     24  C   LIG A   1      -2.649   4.451 128.093  0.00  0.00    +0.159 A 
ATOM     25  C   LIG A   1      -2.531   5.695 128.694  0.00  0.00    +0.158 A 
ATOM     26  C   LIG A   1      -3.168   5.959 129.895  0.00  0.00    +0.050 A 
ATOM     27  C   LIG A   1      -3.889   4.936 130.525  0.00  0.00    +0.012 A 
BRANCH  24  28
ATOM     28  O   LIG A   1      -1.989   4.237 126.913  0.00  0.00    -0.503 OA
ATOM     29  H   LIG A   1      -2.655   3.983 126.249  0.00  0.00    +0.292 HD
ENDBRANCH  24  28
BRANCH  25  30
ATOM     30  O   LIG A   1      -1.782   6.665 128.094  0.00  0.00    -0.503 OA
ATOM     31  H   LIG A   1      -2.351   7.461 128.130  0.00  0.00    +0.292 HD
ENDBRANCH  25  30
ENDBRANCH  21  22
ENDBRANCH  19  20
ENDBRANCH  17  19
ENDBRANCH   1  17
TORSDOF 11
ENDMDL
MODEL 4
REMARK VINA RESULT:      -6.7      2.399      7.466
REMARK  Name = NuBBE_248
REMARK  12 active torsions:
REMARK  status: ('A' for Active; 'I' for Inactive)
REMARK    1  A    between atoms: C_2  and  C_3
REMARK    2  A    between atoms: C_2  and  O_13
REMARK    3  A    between atoms: C_4  and  C_5
REMARK    4  A    between atoms: C_7  and  O_8
REMARK    5  A    between atoms: C_9  and  O_12
REMARK    6  A    between atoms: O_13  and  C_14
REMARK    7  A    between atoms: C_16  and  O_29
REMARK    8  A    between atoms: C_18  and  O_28
REMARK    9  A    between atoms: C_21  and  O_22
REMARK   10  A    between atoms: C_21  and  C_24
REMARK   11  A    between atoms: C_24  and  O_25
REMARK   12  A    between atoms: O_25  and  C_26
REMARK                            x       y       z     vdW  Elec       q    Type
REMARK                         _______ _______ _______ _____ _____    ______ ____
ROOT
ATOM      1  C   LIG A   1      -5.926   3.628 125.879  0.00  0.00    +0.211 C 
ATOM      2  C   LIG A   1      -5.679   4.469 124.614  0.00  0.00    +0.184 C 
ATOM      3  C   LIG A   1      -6.128   3.721 123.356  0.00  0.00    +0.150 C 
ATOM      4  C   LIG A   1      -7.619   3.399 123.419  0.00  0.00    +0.080 C 
ATOM      5  C   LIG A   1      -8.000   2.609 124.677  0.00  0.00    +0.168 C 
ATOM      6  C   LIG A   1      -7.408   3.217 125.962  0.00  0.00    +0.093 C 
ENDROOT
BRANCH   5   7
ATOM      7  O   LIG A   1      -9.433   2.706 124.826  0.00  0.00    -0.377 OA
ATOM      8  H   LIG A   1      -9.620   2.663 125.783  0.00  0.00    +0.211 HD
ENDBRANCH   5   7
BRANCH   5   9
ATOM      9  C   LIG A   1      -7.616   1.123 124.444  0.00  0.00    +0.339 C 
ATOM     10  O   LIG A   1      -7.395   0.598 123.360  0.00  0.00    -0.248 OA
BRANCH   9  11
ATOM     11  O   LIG A   1      -7.723   0.432 125.622  0.00  0.00    -0.466 OA
ATOM     12  C   LIG A   1      -8.619  -0.681 125.573  0.00  0.00    +0.280 C 
ENDBRANCH   9  11
ENDBRANCH   5   9
BRANCH   3  13
ATOM     13  O   LIG A   1      -5.908   4.566 122.219  0.00  0.00    -0.389 OA
ATOM     14  H   LIG A   1      -5.911   3.990 121.431  0.00  0.00    +0.210 HD
ENDBRANCH   3  13
BRANCH   2  15
ATOM     15  O   LIG A   1      -6.424   5.698 124.726  0.00  0.00    -0.386 OA
ATOM     16  H   LIG A   1      -7.310   5.509 124.360  0.00  0.00    +0.210 HD
ENDBRANCH   2  15
BRANCH   1  17
ATOM     17  O   LIG A   1      -5.134   2.430 126.056  0.00  0.00    -0.456 OA
BRANCH  17  19
ATOM     18  O   LIG A   1      -4.599   1.780 128.190  0.00  0.00    -0.246 OA
ATOM     19  C   LIG A   1      -4.334   2.335 127.142  0.00  0.00    +0.332 C 
BRANCH  19  20
ATOM     20  C   LIG A   1      -3.020   2.965 126.759  0.00  0.00    +0.092 C 
ATOM     21  C   LIG A   1      -2.422   4.058 127.283  0.00  0.00    +0.015 C 
BRANCH  21  22
ATOM     22  C   LIG A   1      -2.879   4.982 128.336  0.00  0.00    -0.021 A 
ATOM     23  C   LIG A   1      -3.377   6.260 128.061  0.00  0.00    +0.057 A 
ATOM     24  C   LIG A   1      -3.704   7.125 129.097  0.00  0.00    +0.159 A 
ATOM     25  C   LIG A   1      -3.643   6.697 130.415  0.00  0.00    +0.158 A 
ATOM     26  C   LIG A   1      -3.252   5.402 130.715  0.00  0.00    +0.050 A 
ATOM     27  C   LIG A   1      -2.865   4.547 129.676  0.00  0.00    +0.012 A 
BRANCH  24  28
ATOM     28  O   LIG A   1      -4.083   8.417 128.854  0.00  0.00    -0.503 OA
ATOM     29  H   LIG A   1      -5.049   8.465 128.973  0.00  0.00    +0.292 HD
ENDBRANCH  24  28
BRANCH  25  30
ATOM     30  O   LIG A   1      -3.973   7.558 131.420  0.00  0.00    -0.503 OA
ATOM     31  H   LIG A   1      -4.558   8.214 130.988  0.00  0.00    +0.292 HD
ENDBRANCH  25  30
ENDBRANCH  21  22
ENDBRANCH  19  20
ENDBRANCH  17  19
ENDBRANCH   1  17
TORSDOF 11
ENDMDL
MODEL 5
REMARK VINA RESULT:      -6.7      4.207      6.866
REMARK  Name = NuBBE_248
REMARK  12 active torsions:
REMARK  status: ('A' for Active; 'I' for Inactive)
REMARK    1  A    between atoms: C_2  and  C_3
REMARK    2  A    between atoms: C_2  and  O_13
REMARK    3  A    between atoms: C_4  and  C_5
REMARK    4  A    between atoms: C_7  and  O_8
REMARK    5  A    between atoms: C_9  and  O_12
REMARK    6  A    between atoms: O_13  and  C_14
REMARK    7  A    between atoms: C_16  and  O_29
REMARK    8  A    between atoms: C_18  and  O_28
REMARK    9  A    between atoms: C_21  and  O_22
REMARK   10  A    between atoms: C_21  and  C_24
REMARK   11  A    between atoms: C_24  and  O_25
REMARK   12  A    between atoms: O_25  and  C_26
REMARK                            x       y       z     vdW  Elec       q    Type
REMARK                         _______ _______ _______ _____ _____    ______ ____
ROOT
ATOM      1  C   LIG A   1      -9.832   4.054 130.288  0.00  0.00    +0.211 C 
ATOM      2  C   LIG A   1      -9.061   4.128 131.618  0.00  0.00    +0.184 C 
ATOM      3  C   LIG A   1      -8.864   5.581 132.064  0.00  0.00    +0.150 C 
ATOM      4  C   LIG A   1     -10.211   6.272 132.265  0.00  0.00    +0.080 C 
ATOM      5  C   LIG A   1     -11.100   6.210 131.017  0.00  0.00    +0.168 C 
ATOM      6  C   LIG A   1     -11.176   4.795 130.413  0.00  0.00    +0.093 C 
ENDROOT
BRANCH   5   7
ATOM      7  O   LIG A   1     -12.445   6.527 131.434  0.00  0.00    -0.377 OA
ATOM      8  H   LIG A   1     -12.505   6.308 132.383  0.00  0.00    +0.211 HD
ENDBRANCH   5   7
BRANCH   5   9
ATOM      9  C   LIG A   1     -10.609   7.297 130.024  0.00  0.00    +0.339 C 
ATOM     10  O   LIG A   1      -9.442   7.603 129.811  0.00  0.00    -0.248 OA
BRANCH   9  11
ATOM     11  O   LIG A   1     -11.684   7.991 129.534  0.00  0.00    -0.466 OA
ATOM     12  C   LIG A   1     -11.523   8.457 128.193  0.00  0.00    +0.280 C 
ENDBRANCH   9  11
ENDBRANCH   5   9
BRANCH   3  13
ATOM     13  O   LIG A   1      -8.176   5.584 133.321  0.00  0.00    -0.389 OA
ATOM     14  H   LIG A   1      -8.800   5.928 133.987  0.00  0.00    +0.210 HD
ENDBRANCH   3  13
BRANCH   2  15
ATOM     15  O   LIG A   1      -9.810   3.420 132.625  0.00  0.00    -0.386 OA
ATOM     16  H   LIG A   1     -10.740   3.432 132.326  0.00  0.00    +0.210 HD
ENDBRANCH   2  15
BRANCH   1  17
ATOM     17  O   LIG A   1      -9.173   4.549 129.099  0.00  0.00    -0.456 OA
BRANCH  17  19
ATOM     18  O   LIG A   1      -6.893   4.774 128.984  0.00  0.00    -0.246 OA
ATOM     19  C   LIG A   1      -7.914   4.133 128.834  0.00  0.00    +0.332 C 
BRANCH  19  20
ATOM     20  C   LIG A   1      -8.023   2.690 128.412  0.00  0.00    +0.092 C 
ATOM     21  C   LIG A   1      -7.747   2.138 127.209  0.00  0.00    +0.015 C 
BRANCH  21  22
ATOM     22  C   LIG A   1      -7.308   2.766 125.951  0.00  0.00    -0.021 A 
ATOM     23  C   LIG A   1      -8.172   2.990 124.873  0.00  0.00    +0.057 A 
ATOM     24  C   LIG A   1      -7.684   3.498 123.675  0.00  0.00    +0.159 A 
ATOM     25  C   LIG A   1      -6.358   3.888 123.567  0.00  0.00    +0.158 A 
ATOM     26  C   LIG A   1      -5.501   3.775 124.649  0.00  0.00    +0.050 A 
ATOM     27  C   LIG A   1      -5.976   3.208 125.840  0.00  0.00    +0.012 A 
BRANCH  24  28
ATOM     28  O   LIG A   1      -8.486   3.618 122.573  0.00  0.00    -0.503 OA
ATOM     29  H   LIG A   1      -9.353   3.236 122.801  0.00  0.00    +0.292 HD
ENDBRANCH  24  28
BRANCH  25  30
ATOM     30  O   LIG A   1      -5.897   4.389 122.385  0.00  0.00    -0.503 OA
ATOM     31  H   LIG A   1      -4.925   4.287 122.446  0.00  0.00    +0.292 HD
ENDBRANCH  25  30
ENDBRANCH  21  22
ENDBRANCH  19  20
ENDBRANCH  17  19
ENDBRANCH   1  17
TORSDOF 11
ENDMDL
MODEL 6
REMARK VINA RESULT:      -6.6      3.128      5.847
REMARK  Name = NuBBE_248
REMARK  12 active torsions:
REMARK  status: ('A' for Active; 'I' for Inactive)
REMARK    1  A    between atoms: C_2  and  C_3
REMARK    2  A    between atoms: C_2  and  O_13
REMARK    3  A    between atoms: C_4  and  C_5
REMARK    4  A    between atoms: C_7  and  O_8
REMARK    5  A    between atoms: C_9  and  O_12
REMARK    6  A    between atoms: O_13  and  C_14
REMARK    7  A    between atoms: C_16  and  O_29
REMARK    8  A    between atoms: C_18  and  O_28
REMARK    9  A    between atoms: C_21  and  O_22
REMARK   10  A    between atoms: C_21  and  C_24
REMARK   11  A    between atoms: C_24  and  O_25
REMARK   12  A    between atoms: O_25  and  C_26
REMARK                            x       y       z     vdW  Elec       q    Type
REMARK                         _______ _______ _______ _____ _____    ______ ____
ROOT
ATOM      1  C   LIG A   1      -8.601   1.698 125.883  0.00  0.00    +0.211 C 
ATOM      2  C   LIG A   1      -8.061   2.905 125.095  0.00  0.00    +0.184 C 
ATOM      3  C   LIG A   1      -7.719   2.516 123.654  0.00  0.00    +0.150 C 
ATOM      4  C   LIG A   1      -8.955   1.995 122.924  0.00  0.00    +0.080 C 
ATOM      5  C   LIG A   1      -9.621   0.822 123.652  0.00  0.00    +0.168 C 
ATOM      6  C   LIG A   1      -9.814   1.089 125.157  0.00  0.00    +0.093 C 
ENDROOT
BRANCH   5   7
ATOM      7  O   LIG A   1     -10.951   0.680 123.109  0.00  0.00    -0.377 OA
ATOM      8  H   LIG A   1     -10.850   0.543 122.148  0.00  0.00    +0.211 HD
ENDBRANCH   5   7
BRANCH   5   9
ATOM      9  C   LIG A   1      -8.807  -0.462 123.336  0.00  0.00    +0.339 C 
ATOM     10  O   LIG A   1      -7.610  -0.511 123.085  0.00  0.00    -0.248 OA
BRANCH   9  11
ATOM     11  O   LIG A   1      -9.660  -1.527 123.214  0.00  0.00    -0.466 OA
ATOM     12  C   LIG A   1      -9.029  -2.804 123.341  0.00  0.00    +0.280 C 
ENDBRANCH   9  11
ENDBRANCH   5   9
BRANCH   3  13
ATOM     13  O   LIG A   1      -7.259   3.684 122.962  0.00  0.00    -0.389 OA
ATOM     14  H   LIG A   1      -7.324   3.494 122.007  0.00  0.00    +0.210 HD
ENDBRANCH   3  13
BRANCH   2  15
ATOM     15  O   LIG A   1      -9.070   3.934 125.081  0.00  0.00    -0.386 OA
ATOM     16  H   LIG A   1      -9.551   3.828 124.237  0.00  0.00    +0.210 HD
ENDBRANCH   2  15
BRANCH   1  17
ATOM     17  O   LIG A   1      -7.682   0.617 126.172  0.00  0.00    -0.456 OA
BRANCH  17  19
ATOM     18  O   LIG A   1      -7.975   0.279 128.421  0.00  0.00    -0.246 OA
ATOM     19  C   LIG A   1      -7.885  -0.129 127.281  0.00  0.00    +0.332 C 
BRANCH  19  20
ATOM     20  C   LIG A   1      -8.077  -1.547 126.809  0.00  0.00    +0.092 C 
ATOM     21  C   LIG A   1      -7.546  -2.684 127.311  0.00  0.00    +0.015 C 
BRANCH  21  22
ATOM     22  C   LIG A   1      -6.598  -2.884 128.422  0.00  0.00    -0.021 A 
ATOM     23  C   LIG A   1      -5.266  -2.461 128.368  0.00  0.00    +0.057 A 
ATOM     24  C   LIG A   1      -4.391  -2.759 129.405  0.00  0.00    +0.159 A 
ATOM     25  C   LIG A   1      -4.851  -3.387 130.553  0.00  0.00    +0.158 A 
ATOM     26  C   LIG A   1      -6.188  -3.727 130.680  0.00  0.00    +0.050 A 
ATOM     27  C   LIG A   1      -7.061  -3.480 129.611  0.00  0.00    +0.012 A 
BRANCH  24  28
ATOM     28  O   LIG A   1      -3.059  -2.456 129.323  0.00  0.00    -0.503 OA
ATOM     29  H   LIG A   1      -2.685  -2.543 130.219  0.00  0.00    +0.292 HD
ENDBRANCH  24  28
BRANCH  25  30
ATOM     30  O   LIG A   1      -3.980  -3.668 131.563  0.00  0.00    -0.503 OA
ATOM     31  H   LIG A   1      -4.049  -2.894 132.160  0.00  0.00    +0.292 HD
ENDBRANCH  25  30
ENDBRANCH  21  22
ENDBRANCH  19  20
ENDBRANCH  17  19
ENDBRANCH   1  17
TORSDOF 11
ENDMDL
MODEL 7
REMARK VINA RESULT:      -6.5      2.067      4.291
REMARK  Name = NuBBE_248
REMARK  12 active torsions:
REMARK  status: ('A' for Active; 'I' for Inactive)
REMARK    1  A    between atoms: C_2  and  C_3
REMARK    2  A    between atoms: C_2  and  O_13
REMARK    3  A    between atoms: C_4  and  C_5
REMARK    4  A    between atoms: C_7  and  O_8
REMARK    5  A    between atoms: C_9  and  O_12
REMARK    6  A    between atoms: O_13  and  C_14
REMARK    7  A    between atoms: C_16  and  O_29
REMARK    8  A    between atoms: C_18  and  O_28
REMARK    9  A    between atoms: C_21  and  O_22
REMARK   10  A    between atoms: C_21  and  C_24
REMARK   11  A    between atoms: C_24  and  O_25
REMARK   12  A    between atoms: O_25  and  C_26
REMARK                            x       y       z     vdW  Elec       q    Type
REMARK                         _______ _______ _______ _____ _____    ______ ____
ROOT
ATOM      1  C   LIG A   1      -8.097   0.624 125.014  0.00  0.00    +0.211 C 
ATOM      2  C   LIG A   1      -6.799   0.828 125.817  0.00  0.00    +0.184 C 
ATOM      3  C   LIG A   1      -5.964   1.973 125.237  0.00  0.00    +0.150 C 
ATOM      4  C   LIG A   1      -6.745   3.285 125.271  0.00  0.00    +0.080 C 
ATOM      5  C   LIG A   1      -8.095   3.188 124.551  0.00  0.00    +0.168 C 
ATOM      6  C   LIG A   1      -8.898   1.938 124.959  0.00  0.00    +0.093 C 
ENDROOT
BRANCH   5   7
ATOM      7  O   LIG A   1      -8.890   4.316 124.976  0.00  0.00    -0.377 OA
ATOM      8  H   LIG A   1      -9.605   4.420 124.319  0.00  0.00    +0.211 HD
ENDBRANCH   5   7
BRANCH   5   9
ATOM      9  C   LIG A   1      -7.833   3.301 123.025  0.00  0.00    +0.339 C 
ATOM     10  O   LIG A   1      -8.627   3.021 122.136  0.00  0.00    -0.248 OA
BRANCH   9  11
ATOM     11  O   LIG A   1      -6.515   3.605 122.807  0.00  0.00    -0.466 OA
ATOM     12  C   LIG A   1      -6.192   3.882 121.442  0.00  0.00    +0.280 C 
ENDBRANCH   9  11
ENDBRANCH   5   9
BRANCH   3  13
ATOM     13  O   LIG A   1      -4.792   2.139 126.044  0.00  0.00    -0.389 OA
ATOM     14  H   LIG A   1      -5.057   2.651 126.831  0.00  0.00    +0.210 HD
ENDBRANCH   3  13
BRANCH   2  15
ATOM     15  O   LIG A   1      -7.145   1.136 127.181  0.00  0.00    -0.386 OA
ATOM     16  H   LIG A   1      -8.103   0.958 127.262  0.00  0.00    +0.210 HD
ENDBRANCH   2  15
BRANCH   1  17
ATOM     17  O   LIG A   1      -7.980   0.131 123.659  0.00  0.00    -0.456 OA
BRANCH  17  19
ATOM     18  O   LIG A   1      -9.957  -0.852 123.040  0.00  0.00    -0.246 OA
ATOM     19  C   LIG A   1      -8.766  -0.899 123.272  0.00  0.00    +0.332 C 
BRANCH  19  20
ATOM     20  C   LIG A   1      -7.854  -2.085 123.093  0.00  0.00    +0.092 C 
ATOM     21  C   LIG A   1      -7.397  -2.948 124.027  0.00  0.00    +0.015 C 
BRANCH  21  22
ATOM     22  C   LIG A   1      -7.603  -2.971 125.486  0.00  0.00    -0.021 A 
ATOM     23  C   LIG A   1      -6.685  -2.428 126.391  0.00  0.00    +0.057 A 
ATOM     24  C   LIG A   1      -6.883  -2.562 127.759  0.00  0.00    +0.159 A 
ATOM     25  C   LIG A   1      -8.045  -3.142 128.246  0.00  0.00    +0.158 A 
ATOM     26  C   LIG A   1      -9.021  -3.597 127.376  0.00  0.00    +0.050 A 
ATOM     27  C   LIG A   1      -8.797  -3.517 125.995  0.00  0.00    +0.012 A 
BRANCH  24  28
ATOM     28  O   LIG A   1      -5.944  -2.140 128.660  0.00  0.00    -0.503 OA
ATOM     29  H   LIG A   1      -5.068  -2.342 128.283  0.00  0.00    +0.292 HD
ENDBRANCH  24  28
BRANCH  25  30
ATOM     30  O   LIG A   1      -8.225  -3.261 129.593  0.00  0.00    -0.503 OA
ATOM     31  H   LIG A   1      -9.160  -3.004 129.731  0.00  0.00    +0.292 HD
ENDBRANCH  25  30
ENDBRANCH  21  22
ENDBRANCH  19  20
ENDBRANCH  17  19
ENDBRANCH   1  17
TORSDOF 11
ENDMDL
MODEL 8
REMARK VINA RESULT:      -6.5      4.112      7.744
REMARK  Name = NuBBE_248
REMARK  12 active torsions:
REMARK  status: ('A' for Active; 'I' for Inactive)
REMARK    1  A    between atoms: C_2  and  C_3
REMARK    2  A    between atoms: C_2  and  O_13
REMARK    3  A    between atoms: C_4  and  C_5
REMARK    4  A    between atoms: C_7  and  O_8
REMARK    5  A    between atoms: C_9  and  O_12
REMARK    6  A    between atoms: O_13  and  C_14
REMARK    7  A    between atoms: C_16  and  O_29
REMARK    8  A    between atoms: C_18  and  O_28
REMARK    9  A    between atoms: C_21  and  O_22
REMARK   10  A    between atoms: C_21  and  C_24
REMARK   11  A    between atoms: C_24  and  O_25
REMARK   12  A    between atoms: O_25  and  C_26
REMARK                            x       y       z     vdW  Elec       q    Type
REMARK                         _______ _______ _______ _____ _____    ______ ____
ROOT
ATOM      1  C   LIG A   1      -7.012   3.530 127.449  0.00  0.00    +0.211 C 
ATOM      2  C   LIG A   1      -7.186   3.831 125.950  0.00  0.00    +0.184 C 
ATOM      3  C   LIG A   1      -6.096   4.781 125.446  0.00  0.00    +0.150 C 
ATOM      4  C   LIG A   1      -4.710   4.170 125.643  0.00  0.00    +0.080 C 
ATOM      5  C   LIG A   1      -4.442   3.770 127.099  0.00  0.00    +0.168 C 
ATOM      6  C   LIG A   1      -5.603   2.970 127.719  0.00  0.00    +0.093 C 
ENDROOT
BRANCH   5   7
ATOM      7  O   LIG A   1      -3.311   2.873 127.095  0.00  0.00    -0.377 OA
ATOM      8  H   LIG A   1      -2.516   3.421 127.237  0.00  0.00    +0.211 HD
ENDBRANCH   5   7
BRANCH   5   9
ATOM      9  C   LIG A   1      -4.066   5.053 127.887  0.00  0.00    +0.339 C 
ATOM     10  O   LIG A   1      -4.177   6.204 127.483  0.00  0.00    -0.248 OA
BRANCH   9  11
ATOM     11  O   LIG A   1      -3.429   4.707 129.050  0.00  0.00    -0.466 OA
ATOM     12  C   LIG A   1      -4.095   5.145 130.238  0.00  0.00    +0.280 C 
ENDBRANCH   9  11
ENDBRANCH   5   9
BRANCH   3  13
ATOM     13  O   LIG A   1      -6.287   4.994 124.042  0.00  0.00    -0.389 OA
ATOM     14  H   LIG A   1      -6.088   5.932 123.866  0.00  0.00    +0.210 HD
ENDBRANCH   3  13
BRANCH   2  15
ATOM     15  O   LIG A   1      -7.109   2.591 125.220  0.00  0.00    -0.386 OA
ATOM     16  H   LIG A   1      -7.941   2.114 125.411  0.00  0.00    +0.210 HD
ENDBRANCH   2  15
BRANCH   1  17
ATOM     17  O   LIG A   1      -7.233   4.613 128.383  0.00  0.00    -0.456 OA
BRANCH  17  19
ATOM     18  O   LIG A   1      -9.181   3.739 129.220  0.00  0.00    -0.246 OA
ATOM     19  C   LIG A   1      -8.239   4.502 129.280  0.00  0.00    +0.332 C 
BRANCH  19  20
ATOM     20  C   LIG A   1      -7.905   5.441 130.411  0.00  0.00    +0.092 C 
ATOM     21  C   LIG A   1      -8.618   6.490 130.877  0.00  0.00    +0.015 C 
BRANCH  21  22
ATOM     22  C   LIG A   1      -9.892   7.061 130.405  0.00  0.00    -0.021 A 
ATOM     23  C   LIG A   1     -11.094   6.919 131.108  0.00  0.00    +0.057 A 
ATOM     24  C   LIG A   1     -12.283   7.395 130.571  0.00  0.00    +0.159 A 
ATOM     25  C   LIG A   1     -12.279   8.110 129.383  0.00  0.00    +0.158 A 
ATOM     26  C   LIG A   1     -11.092   8.357 128.715  0.00  0.00    +0.050 A 
ATOM     27  C   LIG A   1      -9.898   7.827 129.224  0.00  0.00    +0.012 A 
BRANCH  24  28
ATOM     28  O   LIG A   1     -13.484   7.166 131.185  0.00  0.00    -0.503 OA
ATOM     29  H   LIG A   1     -13.307   7.044 132.135  0.00  0.00    +0.292 HD
ENDBRANCH  24  28
BRANCH  25  30
ATOM     30  O   LIG A   1     -13.456   8.574 128.872  0.00  0.00    -0.503 OA
ATOM     31  H   LIG A   1     -13.880   7.778 128.490  0.00  0.00    +0.292 HD
ENDBRANCH  25  30
ENDBRANCH  21  22
ENDBRANCH  19  20
ENDBRANCH  17  19
ENDBRANCH   1  17
TORSDOF 11
ENDMDL
MODEL 9
REMARK VINA RESULT:      -6.4      2.485      4.443
REMARK  Name = NuBBE_248
REMARK  12 active torsions:
REMARK  status: ('A' for Active; 'I' for Inactive)
REMARK    1  A    between atoms: C_2  and  C_3
REMARK    2  A    between atoms: C_2  and  O_13
REMARK    3  A    between atoms: C_4  and  C_5
REMARK    4  A    between atoms: C_7  and  O_8
REMARK    5  A    between atoms: C_9  and  O_12
REMARK    6  A    between atoms: O_13  and  C_14
REMARK    7  A    between atoms: C_16  and  O_29
REMARK    8  A    between atoms: C_18  and  O_28
REMARK    9  A    between atoms: C_21  and  O_22
REMARK   10  A    between atoms: C_21  and  C_24
REMARK   11  A    between atoms: C_24  and  O_25
REMARK   12  A    between atoms: O_25  and  C_26
REMARK                            x       y       z     vdW  Elec       q    Type
REMARK                         _______ _______ _______ _____ _____    ______ ____
ROOT
ATOM      1  C   LIG A   1      -8.084  -0.130 123.254  0.00  0.00    +0.211 C 
ATOM      2  C   LIG A   1      -9.569   0.275 123.297  0.00  0.00    +0.184 C 
ATOM      3  C   LIG A   1      -9.862   1.169 124.506  0.00  0.00    +0.150 C 
ATOM      4  C   LIG A   1      -9.030   2.448 124.448  0.00  0.00    +0.080 C 
ATOM      5  C   LIG A   1      -7.526   2.171 124.341  0.00  0.00    +0.168 C 
ATOM      6  C   LIG A   1      -7.191   1.124 123.260  0.00  0.00    +0.093 C 
ENDROOT
BRANCH   5   7
ATOM      7  O   LIG A   1      -6.895   3.393 123.905  0.00  0.00    -0.377 OA
ATOM      8  H   LIG A   1      -6.341   3.165 123.134  0.00  0.00    +0.211 HD
ENDBRANCH   5   7
BRANCH   5   9
ATOM      9  C   LIG A   1      -7.003   1.809 125.756  0.00  0.00    +0.339 C 
ATOM     10  O   LIG A   1      -7.543   2.094 126.818  0.00  0.00    -0.248 OA
BRANCH   9  11
ATOM     11  O   LIG A   1      -5.751   1.261 125.656  0.00  0.00    -0.466 OA
ATOM     12  C   LIG A   1      -4.777   1.858 126.517  0.00  0.00    +0.280 C 
ENDBRANCH   9  11
ENDBRANCH   5   9
BRANCH   3  13
ATOM     13  O   LIG A   1     -11.246   1.542 124.472  0.00  0.00    -0.389 OA
ATOM     14  H   LIG A   1     -11.298   2.404 124.017  0.00  0.00    +0.210 HD
ENDBRANCH   3  13
BRANCH   2  15
ATOM     15  O   LIG A   1      -9.886   0.991 122.088  0.00  0.00    -0.386 OA
ATOM     16  H   LIG A   1      -9.079   0.960 121.538  0.00  0.00    +0.210 HD
ENDBRANCH   2  15
BRANCH   1  17
ATOM     17  O   LIG A   1      -7.597  -1.015 124.291  0.00  0.00    -0.456 OA
BRANCH  17  19
ATOM     18  O   LIG A   1      -6.517  -2.909 123.579  0.00  0.00    -0.246 OA
ATOM     19  C   LIG A   1      -7.492  -2.336 124.021  0.00  0.00    +0.332 C 
BRANCH  19  20
ATOM     20  C   LIG A   1      -8.786  -2.964 124.471  0.00  0.00    +0.092 C 
ATOM     21  C   LIG A   1      -9.258  -3.122 125.727  0.00  0.00    +0.015 C 
BRANCH  21  22
ATOM     22  C   LIG A   1      -8.647  -2.779 127.024  0.00  0.00    -0.021 A 
ATOM     23  C   LIG A   1      -8.080  -1.528 127.289  0.00  0.00    +0.057 A 
ATOM     24  C   LIG A   1      -7.434  -1.290 128.495  0.00  0.00    +0.159 A 
ATOM     25  C   LIG A   1      -7.434  -2.253 129.493  0.00  0.00    +0.158 A 
ATOM     26  C   LIG A   1      -8.076  -3.465 129.300  0.00  0.00    +0.050 A 
ATOM     27  C   LIG A   1      -8.678  -3.730 128.062  0.00  0.00    +0.012 A 
BRANCH  24  28
ATOM     28  O   LIG A   1      -6.774  -0.115 128.730  0.00  0.00    -0.503 OA
ATOM     29  H   LIG A   1      -6.071  -0.300 129.379  0.00  0.00    +0.292 HD
ENDBRANCH  24  28
BRANCH  25  30
ATOM     30  O   LIG A   1      -6.798  -2.001 130.673  0.00  0.00    -0.503 OA
ATOM     31  H   LIG A   1      -6.199  -1.255 130.466  0.00  0.00    +0.292 HD
ENDBRANCH  25  30
ENDBRANCH  21  22
ENDBRANCH  19  20
ENDBRANCH  17  19
ENDBRANCH   1  17
TORSDOF 11
ENDMDL
