MODEL 1
REMARK VINA RESULT:      -8.3      0.000      0.000
REMARK  Name = NuBBE_412
REMARK  13 active torsions:
REMARK  status: ('A' for Active; 'I' for Inactive)
REMARK    1  A    between atoms: C_1  and  O_2
REMARK    2  A    between atoms: O_2  and  C_3
REMARK    3  A    between atoms: C_5  and  C_6
REMARK    4  A    between atoms: C_6  and  C_7
REMARK    5  A    between atoms: C_7  and  C_8
REMARK    6  A    between atoms: C_8  and  O_9
REMARK    7  A    between atoms: O_9  and  C_10
REMARK    8  A    between atoms: C_13  and  C_21
REMARK    9  A    between atoms: C_15  and  O_20
REMARK   10  A    between atoms: C_17  and  O_19
REMARK   11  A    between atoms: C_21  and  O_22
REMARK   12  A    between atoms: C_23  and  O_25
REMARK   13  A    between atoms: C_30  and  C_31
REMARK                            x       y       z     vdW  Elec       q    Type
REMARK                         _______ _______ _______ _____ _____    ______ ____
ROOT
ATOM      1  C   LIG A   1      -8.674   0.647 126.310  0.00  0.00    +0.163 A 
ATOM      2  C   LIG A   1      -8.550   0.724 127.711  0.00  0.00    +0.053 A 
ATOM      3  C   LIG A   1      -7.874   1.770 128.352  0.00  0.00    -0.043 A 
ATOM      4  C   LIG A   1      -7.320   2.812 127.595  0.00  0.00    +0.015 A 
ATOM      5  C   LIG A   1      -7.446   2.776 126.186  0.00  0.00    +0.025 A 
ATOM      6  C   LIG A   1      -8.107   1.709 125.594  0.00  0.00    +0.177 A 
ATOM      7  O   LIG A   1      -8.111   1.872 124.243  0.00  0.00    -0.451 OA
ATOM      8  C   LIG A   1      -7.464   3.033 123.946  0.00  0.00    +0.137 A 
ATOM      9  C   LIG A   1      -7.029   3.630 125.131  0.00  0.00    +0.058 A 
ENDROOT
BRANCH   8  10
ATOM     10  C   LIG A   1      -7.355   3.400 122.545  0.00  0.00    +0.021 A 
ATOM     11  C   LIG A   1      -8.495   3.508 121.732  0.00  0.00    +0.061 A 
ATOM     12  C   LIG A   1      -8.344   3.865 120.412  0.00  0.00    +0.167 A 
ATOM     13  C   LIG A   1      -7.107   4.117 119.865  0.00  0.00    +0.166 A 
ATOM     14  C   LIG A   1      -5.963   4.022 120.616  0.00  0.00    +0.050 A 
ATOM     15  C   LIG A   1      -6.089   3.662 121.964  0.00  0.00    +0.015 A 
ATOM     16  O   LIG A   1      -7.176   4.456 118.548  0.00  0.00    -0.453 OA
ATOM     17  C   LIG A   1      -8.602   4.399 118.327  0.00  0.00    +0.466 C 
ATOM     18  O   LIG A   1      -9.347   4.016 119.498  0.00  0.00    -0.453 OA
ENDBRANCH   8  10
BRANCH   1  20
ATOM     19  C   LIG A   1      -8.485  -1.459 125.235  0.00  0.00    +0.277 C 
ATOM     20  O   LIG A   1      -9.303  -0.365 125.636  0.00  0.00    -0.491 OA
ENDBRANCH   1  20
BRANCH   3  21
ATOM     21  C   LIG A   1      -7.779   1.782 129.865  0.00  0.00    +0.037 C 
BRANCH  21  22
ATOM     22  C   LIG A   1      -8.284   3.097 130.473  0.00  0.00    +0.033 C 
BRANCH  22  23
ATOM     23  C   LIG A   1      -9.800   3.243 130.365  0.00  0.00    +0.163 C 
BRANCH  23  24
ATOM     24  O   LIG A   1     -10.122   4.414 129.617  0.00  0.00    -0.349 OA
BRANCH  24  25
ATOM     25  C   LIG A   1     -11.348   5.015 130.049  0.00  0.00    +0.282 C 
ATOM     26  O   LIG A   1     -12.079   5.620 128.980  0.00  0.00    -0.341 OA
ATOM     27  C   LIG A   1     -11.702   6.938 128.542  0.00  0.00    +0.178 C 
ATOM     28  C   LIG A   1     -11.158   7.910 129.610  0.00  0.00    +0.177 C 
ATOM     29  C   LIG A   1     -10.325   7.225 130.694  0.00  0.00    +0.179 C 
ATOM     30  C   LIG A   1     -11.074   5.989 131.209  0.00  0.00    +0.201 C 
BRANCH  29  31
ATOM     31  O   LIG A   1      -9.026   6.933 130.182  0.00  0.00    -0.386 OA
ATOM     32  H   LIG A   1      -8.371   7.310 130.797  0.00  0.00    +0.210 HD
ENDBRANCH  29  31
BRANCH  28  33
ATOM     33  O   LIG A   1     -12.283   8.535 130.261  0.00  0.00    -0.387 OA
ATOM     34  H   LIG A   1     -12.101   8.513 131.221  0.00  0.00    +0.210 HD
ENDBRANCH  28  33
BRANCH  30  35
ATOM     35  O   LIG A   1     -12.302   6.364 131.857  0.00  0.00    -0.384 OA
ATOM     36  H   LIG A   1     -13.028   5.870 131.416  0.00  0.00    +0.210 HD
ENDBRANCH  30  35
BRANCH  27  37
ATOM     37  C   LIG A   1     -10.810   6.872 127.297  0.00  0.00    +0.190 C 
BRANCH  37  38
ATOM     38  O   LIG A   1      -9.596   6.183 127.610  0.00  0.00    -0.392 OA
ATOM     39  H   LIG A   1      -9.856   5.276 127.858  0.00  0.00    +0.209 HD
ENDBRANCH  37  38
ENDBRANCH  27  37
ENDBRANCH  24  25
ENDBRANCH  23  24
ENDBRANCH  22  23
ENDBRANCH  21  22
ENDBRANCH   3  21
TORSDOF 12
ENDMDL
MODEL 2
REMARK VINA RESULT:      -7.9      2.210      3.500
REMARK  Name = NuBBE_412
REMARK  13 active torsions:
REMARK  status: ('A' for Active; 'I' for Inactive)
REMARK    1  A    between atoms: C_1  and  O_2
REMARK    2  A    between atoms: O_2  and  C_3
REMARK    3  A    between atoms: C_5  and  C_6
REMARK    4  A    between atoms: C_6  and  C_7
REMARK    5  A    between atoms: C_7  and  C_8
REMARK    6  A    between atoms: C_8  and  O_9
REMARK    7  A    between atoms: O_9  and  C_10
REMARK    8  A    between atoms: C_13  and  C_21
REMARK    9  A    between atoms: C_15  and  O_20
REMARK   10  A    between atoms: C_17  and  O_19
REMARK   11  A    between atoms: C_21  and  O_22
REMARK   12  A    between atoms: C_23  and  O_25
REMARK   13  A    between atoms: C_30  and  C_31
REMARK                            x       y       z     vdW  Elec       q    Type
REMARK                         _______ _______ _______ _____ _____    ______ ____
ROOT
ATOM      1  C   LIG A   1      -4.455   2.954 126.808  0.00  0.00    +0.163 A 
ATOM      2  C   LIG A   1      -4.629   2.224 128.000  0.00  0.00    +0.053 A 
ATOM      3  C   LIG A   1      -5.695   1.336 128.193  0.00  0.00    -0.043 A 
ATOM      4  C   LIG A   1      -6.622   1.122 127.162  0.00  0.00    +0.015 A 
ATOM      5  C   LIG A   1      -6.463   1.824 125.944  0.00  0.00    +0.025 A 
ATOM      6  C   LIG A   1      -5.403   2.707 125.806  0.00  0.00    +0.177 A 
ATOM      7  O   LIG A   1      -5.440   3.271 124.567  0.00  0.00    -0.451 OA
ATOM      8  C   LIG A   1      -6.510   2.764 123.895  0.00  0.00    +0.137 A 
ATOM      9  C   LIG A   1      -7.180   1.856 124.719  0.00  0.00    +0.058 A 
ENDROOT
BRANCH   8  10
ATOM     10  C   LIG A   1      -6.735   3.236 122.540  0.00  0.00    +0.021 A 
ATOM     11  C   LIG A   1      -8.027   3.282 121.992  0.00  0.00    +0.061 A 
ATOM     12  C   LIG A   1      -8.192   3.743 120.706  0.00  0.00    +0.167 A 
ATOM     13  C   LIG A   1      -7.127   4.159 119.942  0.00  0.00    +0.166 A 
ATOM     14  C   LIG A   1      -5.845   4.130 120.429  0.00  0.00    +0.050 A 
ATOM     15  C   LIG A   1      -5.649   3.666 121.736  0.00  0.00    +0.015 A 
ATOM     16  O   LIG A   1      -7.504   4.579 118.703  0.00  0.00    -0.453 OA
ATOM     17  C   LIG A   1      -8.934   4.391 118.775  0.00  0.00    +0.466 C 
ATOM     18  O   LIG A   1      -9.376   3.854 120.036  0.00  0.00    -0.453 OA
ENDBRANCH   8  10
BRANCH   1  20
ATOM     19  C   LIG A   1      -2.126   3.398 126.875  0.00  0.00    +0.277 C 
ATOM     20  O   LIG A   1      -3.445   3.848 126.580  0.00  0.00    -0.491 OA
ENDBRANCH   1  20
BRANCH   3  21
ATOM     21  C   LIG A   1      -5.817   0.589 129.507  0.00  0.00    +0.037 C 
BRANCH  21  22
ATOM     22  C   LIG A   1      -6.293   1.493 130.651  0.00  0.00    +0.033 C 
BRANCH  22  23
ATOM     23  C   LIG A   1      -7.775   1.842 130.538  0.00  0.00    +0.163 C 
BRANCH  23  24
ATOM     24  O   LIG A   1      -8.016   3.126 131.110  0.00  0.00    -0.349 OA
BRANCH  24  25
ATOM     25  C   LIG A   1      -7.759   4.190 130.185  0.00  0.00    +0.282 C 
ATOM     26  O   LIG A   1      -7.161   5.332 130.803  0.00  0.00    -0.341 OA
ATOM     27  C   LIG A   1      -8.007   6.269 131.494  0.00  0.00    +0.178 C 
ATOM     28  C   LIG A   1      -9.429   6.483 130.934  0.00  0.00    +0.177 C 
ATOM     29  C   LIG A   1     -10.054   5.217 130.348  0.00  0.00    +0.179 C 
ATOM     30  C   LIG A   1      -9.045   4.536 129.413  0.00  0.00    +0.201 C 
BRANCH  29  31
ATOM     31  O   LIG A   1     -10.509   4.377 131.407  0.00  0.00    -0.386 OA
ATOM     32  H   LIG A   1      -9.976   3.560 131.390  0.00  0.00    +0.210 HD
ENDBRANCH  29  31
BRANCH  28  33
ATOM     33  O   LIG A   1      -9.351   7.457 129.873  0.00  0.00    -0.387 OA
ATOM     34  H   LIG A   1      -8.476   7.348 129.455  0.00  0.00    +0.210 HD
ENDBRANCH  28  33
BRANCH  30  35
ATOM     35  O   LIG A   1      -8.747   5.369 128.281  0.00  0.00    -0.384 OA
ATOM     36  H   LIG A   1      -8.560   6.272 128.622  0.00  0.00    +0.210 HD
ENDBRANCH  30  35
BRANCH  27  37
ATOM     37  C   LIG A   1      -8.000   6.010 133.004  0.00  0.00    +0.190 C 
BRANCH  37  38
ATOM     38  O   LIG A   1      -9.313   6.219 133.534  0.00  0.00    -0.392 OA
ATOM     39  H   LIG A   1      -9.189   6.485 134.465  0.00  0.00    +0.209 HD
ENDBRANCH  37  38
ENDBRANCH  27  37
ENDBRANCH  24  25
ENDBRANCH  23  24
ENDBRANCH  22  23
ENDBRANCH  21  22
ENDBRANCH   3  21
TORSDOF 12
ENDMDL
MODEL 3
REMARK VINA RESULT:      -7.9      2.599      4.283
REMARK  Name = NuBBE_412
REMARK  13 active torsions:
REMARK  status: ('A' for Active; 'I' for Inactive)
REMARK    1  A    between atoms: C_1  and  O_2
REMARK    2  A    between atoms: O_2  and  C_3
REMARK    3  A    between atoms: C_5  and  C_6
REMARK    4  A    between atoms: C_6  and  C_7
REMARK    5  A    between atoms: C_7  and  C_8
REMARK    6  A    between atoms: C_8  and  O_9
REMARK    7  A    between atoms: O_9  and  C_10
REMARK    8  A    between atoms: C_13  and  C_21
REMARK    9  A    between atoms: C_15  and  O_20
REMARK   10  A    between atoms: C_17  and  O_19
REMARK   11  A    between atoms: C_21  and  O_22
REMARK   12  A    between atoms: C_23  and  O_25
REMARK   13  A    between atoms: C_30  and  C_31
REMARK                            x       y       z     vdW  Elec       q    Type
REMARK                         _______ _______ _______ _____ _____    ______ ____
ROOT
ATOM      1  C   LIG A   1      -4.528   5.044 128.102  0.00  0.00    +0.163 A 
ATOM      2  C   LIG A   1      -4.423   4.421 129.361  0.00  0.00    +0.053 A 
ATOM      3  C   LIG A   1      -4.818   3.095 129.583  0.00  0.00    -0.043 A 
ATOM      4  C   LIG A   1      -5.310   2.325 128.519  0.00  0.00    +0.015 A 
ATOM      5  C   LIG A   1      -5.407   2.914 127.237  0.00  0.00    +0.025 A 
ATOM      6  C   LIG A   1      -5.022   4.236 127.069  0.00  0.00    +0.177 A 
ATOM      7  O   LIG A   1      -5.199   4.599 125.769  0.00  0.00    -0.451 OA
ATOM      8  C   LIG A   1      -5.692   3.529 125.086  0.00  0.00    +0.137 A 
ATOM      9  C   LIG A   1      -5.839   2.454 125.965  0.00  0.00    +0.058 A 
ENDROOT
BRANCH   8  10
ATOM     10  C   LIG A   1      -5.953   3.702 123.668  0.00  0.00    +0.021 A 
ATOM     11  C   LIG A   1      -5.156   4.548 122.880  0.00  0.00    +0.061 A 
ATOM     12  C   LIG A   1      -5.438   4.676 121.540  0.00  0.00    +0.167 A 
ATOM     13  C   LIG A   1      -6.480   4.000 120.949  0.00  0.00    +0.166 A 
ATOM     14  C   LIG A   1      -7.291   3.164 121.675  0.00  0.00    +0.050 A 
ATOM     15  C   LIG A   1      -7.024   3.015 123.042  0.00  0.00    +0.015 A 
ATOM     16  O   LIG A   1      -6.586   4.262 119.617  0.00  0.00    -0.453 OA
ATOM     17  C   LIG A   1      -5.484   5.176 119.431  0.00  0.00    +0.466 C 
ATOM     18  O   LIG A   1      -4.758   5.451 120.644  0.00  0.00    -0.453 OA
ENDBRANCH   8  10
BRANCH   1  20
ATOM     19  C   LIG A   1      -2.841   6.709 128.163  0.00  0.00    +0.277 C 
ATOM     20  O   LIG A   1      -4.178   6.341 127.840  0.00  0.00    -0.491 OA
ENDBRANCH   1  20
BRANCH   3  21
ATOM     21  C   LIG A   1      -4.679   2.496 130.969  0.00  0.00    +0.037 C 
BRANCH  21  22
ATOM     22  C   LIG A   1      -5.543   3.221 132.009  0.00  0.00    +0.033 C 
BRANCH  22  23
ATOM     23  C   LIG A   1      -6.964   2.668 132.071  0.00  0.00    +0.163 C 
BRANCH  23  24
ATOM     24  O   LIG A   1      -7.899   3.741 132.157  0.00  0.00    -0.349 OA
BRANCH  24  25
ATOM     25  C   LIG A   1      -7.980   4.492 130.940  0.00  0.00    +0.282 C 
ATOM     26  O   LIG A   1      -8.486   5.815 131.134  0.00  0.00    -0.341 OA
ATOM     27  C   LIG A   1      -9.909   6.005 131.230  0.00  0.00    +0.178 C 
ATOM     28  C   LIG A   1     -10.806   5.064 130.398  0.00  0.00    +0.177 C 
ATOM     29  C   LIG A   1     -10.257   3.642 130.278  0.00  0.00    +0.179 C 
ATOM     30  C   LIG A   1      -8.775   3.699 129.887  0.00  0.00    +0.201 C 
BRANCH  29  31
ATOM     31  O   LIG A   1     -10.502   2.934 131.492  0.00  0.00    -0.386 OA
ATOM     32  H   LIG A   1     -10.427   1.981 131.301  0.00  0.00    +0.210 HD
ENDBRANCH  29  31
BRANCH  28  33
ATOM     33  O   LIG A   1     -10.905   5.603 129.063  0.00  0.00    -0.387 OA
ATOM     34  H   LIG A   1     -11.323   6.482 129.146  0.00  0.00    +0.210 HD
ENDBRANCH  28  33
BRANCH  30  35
ATOM     35  O   LIG A   1      -8.607   4.279 128.583  0.00  0.00    -0.384 OA
ATOM     36  H   LIG A   1      -7.644   4.293 128.390  0.00  0.00    +0.210 HD
ENDBRANCH  30  35
BRANCH  27  37
ATOM     37  C   LIG A   1     -10.356   6.104 132.692  0.00  0.00    +0.190 C 
BRANCH  37  38
ATOM     38  O   LIG A   1      -9.209   6.221 133.540  0.00  0.00    -0.392 OA
ATOM     39  H   LIG A   1      -8.515   6.643 132.998  0.00  0.00    +0.209 HD
ENDBRANCH  37  38
ENDBRANCH  27  37
ENDBRANCH  24  25
ENDBRANCH  23  24
ENDBRANCH  22  23
ENDBRANCH  21  22
ENDBRANCH   3  21
TORSDOF 12
ENDMDL
MODEL 4
REMARK VINA RESULT:      -7.9      1.866      3.219
REMARK  Name = NuBBE_412
REMARK  13 active torsions:
REMARK  status: ('A' for Active; 'I' for Inactive)
REMARK    1  A    between atoms: C_1  and  O_2
REMARK    2  A    between atoms: O_2  and  C_3
REMARK    3  A    between atoms: C_5  and  C_6
REMARK    4  A    between atoms: C_6  and  C_7
REMARK    5  A    between atoms: C_7  and  C_8
REMARK    6  A    between atoms: C_8  and  O_9
REMARK    7  A    between atoms: O_9  and  C_10
REMARK    8  A    between atoms: C_13  and  C_21
REMARK    9  A    between atoms: C_15  and  O_20
REMARK   10  A    between atoms: C_17  and  O_19
REMARK   11  A    between atoms: C_21  and  O_22
REMARK   12  A    between atoms: C_23  and  O_25
REMARK   13  A    between atoms: C_30  and  C_31
REMARK                            x       y       z     vdW  Elec       q    Type
REMARK                         _______ _______ _______ _____ _____    ______ ____
ROOT
ATOM      1  C   LIG A   1      -8.614  -0.834 125.397  0.00  0.00    +0.163 A 
ATOM      2  C   LIG A   1      -8.341  -1.171 126.737  0.00  0.00    +0.053 A 
ATOM      3  C   LIG A   1      -7.521  -0.387 127.560  0.00  0.00    -0.043 A 
ATOM      4  C   LIG A   1      -6.966   0.802 127.065  0.00  0.00    +0.015 A 
ATOM      5  C   LIG A   1      -7.239   1.179 125.729  0.00  0.00    +0.025 A 
ATOM      6  C   LIG A   1      -8.040   0.362 124.946  0.00  0.00    +0.177 A 
ATOM      7  O   LIG A   1      -8.171   0.907 123.705  0.00  0.00    -0.451 OA
ATOM      8  C   LIG A   1      -7.467   2.072 123.671  0.00  0.00    +0.137 A 
ATOM      9  C   LIG A   1      -6.866   2.281 124.914  0.00  0.00    +0.058 A 
ENDROOT
BRANCH   8  10
ATOM     10  C   LIG A   1      -7.474   2.822 122.427  0.00  0.00    +0.021 A 
ATOM     11  C   LIG A   1      -6.287   3.335 121.881  0.00  0.00    +0.061 A 
ATOM     12  C   LIG A   1      -6.341   4.034 120.698  0.00  0.00    +0.167 A 
ATOM     13  C   LIG A   1      -7.527   4.246 120.034  0.00  0.00    +0.166 A 
ATOM     14  C   LIG A   1      -8.716   3.769 120.527  0.00  0.00    +0.050 A 
ATOM     15  C   LIG A   1      -8.688   3.053 121.731  0.00  0.00    +0.015 A 
ATOM     16  O   LIG A   1      -7.364   4.956 118.884  0.00  0.00    -0.453 OA
ATOM     17  C   LIG A   1      -5.934   5.161 118.891  0.00  0.00    +0.466 C 
ATOM     18  O   LIG A   1      -5.281   4.589 120.040  0.00  0.00    -0.453 OA
ENDBRANCH   8  10
BRANCH   1  20
ATOM     19  C   LIG A   1      -8.743  -2.669 123.900  0.00  0.00    +0.277 C 
ATOM     20  O   LIG A   1      -9.388  -1.578 124.548  0.00  0.00    -0.491 OA
ENDBRANCH   1  20
BRANCH   3  21
ATOM     21  C   LIG A   1      -7.270  -0.817 128.992  0.00  0.00    +0.037 C 
BRANCH  21  22
ATOM     22  C   LIG A   1      -8.112  -0.021 129.998  0.00  0.00    +0.033 C 
BRANCH  22  23
ATOM     23  C   LIG A   1      -7.511   1.349 130.304  0.00  0.00    +0.163 C 
BRANCH  23  24
ATOM     24  O   LIG A   1      -8.550   2.320 130.418  0.00  0.00    -0.349 OA
BRANCH  24  25
ATOM     25  C   LIG A   1      -8.042   3.658 130.467  0.00  0.00    +0.282 C 
ATOM     26  O   LIG A   1      -7.730   4.086 131.795  0.00  0.00    -0.341 OA
ATOM     27  C   LIG A   1      -8.794   4.564 132.637  0.00  0.00    +0.178 C 
ATOM     28  C   LIG A   1      -9.955   5.314 131.951  0.00  0.00    +0.177 C 
ATOM     29  C   LIG A   1     -10.297   4.775 130.562  0.00  0.00    +0.179 C 
ATOM     30  C   LIG A   1      -9.008   4.613 129.745  0.00  0.00    +0.201 C 
BRANCH  29  31
ATOM     31  O   LIG A   1     -11.047   3.568 130.692  0.00  0.00    -0.386 OA
ATOM     32  H   LIG A   1     -11.265   3.452 131.635  0.00  0.00    +0.210 HD
ENDBRANCH  29  31
BRANCH  28  33
ATOM     33  O   LIG A   1      -9.566   6.695 131.794  0.00  0.00    -0.387 OA
ATOM     34  H   LIG A   1     -10.297   7.235 132.152  0.00  0.00    +0.210 HD
ENDBRANCH  28  33
BRANCH  30  35
ATOM     35  O   LIG A   1      -8.383   5.886 129.512  0.00  0.00    -0.384 OA
ATOM     36  H   LIG A   1      -7.616   5.952 130.124  0.00  0.00    +0.210 HD
ENDBRANCH  30  35
BRANCH  27  37
ATOM     37  C   LIG A   1      -9.282   3.466 133.588  0.00  0.00    +0.190 C 
BRANCH  37  38
ATOM     38  O   LIG A   1      -9.895   2.414 132.836  0.00  0.00    -0.392 OA
ATOM     39  H   LIG A   1     -10.850   2.461 133.035  0.00  0.00    +0.209 HD
ENDBRANCH  37  38
ENDBRANCH  27  37
ENDBRANCH  24  25
ENDBRANCH  23  24
ENDBRANCH  22  23
ENDBRANCH  21  22
ENDBRANCH   3  21
TORSDOF 12
ENDMDL
MODEL 5
REMARK VINA RESULT:      -7.8      3.412      8.764
REMARK  Name = NuBBE_412
REMARK  13 active torsions:
REMARK  status: ('A' for Active; 'I' for Inactive)
REMARK    1  A    between atoms: C_1  and  O_2
REMARK    2  A    between atoms: O_2  and  C_3
REMARK    3  A    between atoms: C_5  and  C_6
REMARK    4  A    between atoms: C_6  and  C_7
REMARK    5  A    between atoms: C_7  and  C_8
REMARK    6  A    between atoms: C_8  and  O_9
REMARK    7  A    between atoms: O_9  and  C_10
REMARK    8  A    between atoms: C_13  and  C_21
REMARK    9  A    between atoms: C_15  and  O_20
REMARK   10  A    between atoms: C_17  and  O_19
REMARK   11  A    between atoms: C_21  and  O_22
REMARK   12  A    between atoms: C_23  and  O_25
REMARK   13  A    between atoms: C_30  and  C_31
REMARK                            x       y       z     vdW  Elec       q    Type
REMARK                         _______ _______ _______ _____ _____    ______ ____
ROOT
ATOM      1  C   LIG A   1      -7.516   2.665 128.331  0.00  0.00    +0.163 A 
ATOM      2  C   LIG A   1      -7.026   1.381 128.638  0.00  0.00    +0.053 A 
ATOM      3  C   LIG A   1      -7.472   0.648 129.746  0.00  0.00    -0.043 A 
ATOM      4  C   LIG A   1      -8.469   1.177 130.579  0.00  0.00    +0.015 A 
ATOM      5  C   LIG A   1      -8.998   2.455 130.285  0.00  0.00    +0.025 A 
ATOM      6  C   LIG A   1      -8.512   3.153 129.189  0.00  0.00    +0.177 A 
ATOM      7  O   LIG A   1      -9.152   4.350 129.092  0.00  0.00    -0.451 OA
ATOM      8  C   LIG A   1     -10.051   4.442 130.111  0.00  0.00    +0.137 A 
ATOM      9  C   LIG A   1      -9.987   3.280 130.883  0.00  0.00    +0.058 A 
ENDROOT
BRANCH   8  10
ATOM     10  C   LIG A   1     -10.848   5.653 130.193  0.00  0.00    +0.021 A 
ATOM     11  C   LIG A   1     -10.970   6.518 129.094  0.00  0.00    +0.061 A 
ATOM     12  C   LIG A   1     -11.742   7.650 129.216  0.00  0.00    +0.167 A 
ATOM     13  C   LIG A   1     -12.396   7.960 130.385  0.00  0.00    +0.166 A 
ATOM     14  C   LIG A   1     -12.307   7.150 131.489  0.00  0.00    +0.050 A 
ATOM     15  C   LIG A   1     -11.528   5.989 131.391  0.00  0.00    +0.015 A 
ATOM     16  O   LIG A   1     -13.106   9.119 130.297  0.00  0.00    -0.453 OA
ATOM     17  C   LIG A   1     -12.832   9.502 128.932  0.00  0.00    +0.466 C 
ATOM     18  O   LIG A   1     -11.962   8.584 128.244  0.00  0.00    -0.453 OA
ENDBRANCH   8  10
BRANCH   1  20
ATOM     19  C   LIG A   1      -6.477   2.732 126.200  0.00  0.00    +0.277 C 
ATOM     20  O   LIG A   1      -7.097   3.429 127.276  0.00  0.00    -0.491 OA
ENDBRANCH   1  20
BRANCH   3  21
ATOM     21  C   LIG A   1      -6.893  -0.727 130.014  0.00  0.00    +0.037 C 
BRANCH  21  22
ATOM     22  C   LIG A   1      -7.938  -1.841 129.864  0.00  0.00    +0.033 C 
BRANCH  22  23
ATOM     23  C   LIG A   1      -7.690  -2.708 128.632  0.00  0.00    +0.163 C 
BRANCH  23  24
ATOM     24  O   LIG A   1      -8.287  -2.105 127.486  0.00  0.00    -0.349 OA
BRANCH  24  25
ATOM     25  C   LIG A   1      -7.382  -2.028 126.378  0.00  0.00    +0.282 C 
ATOM     26  O   LIG A   1      -7.347  -0.730 125.778  0.00  0.00    -0.341 OA
ATOM     27  C   LIG A   1      -8.375  -0.375 124.836  0.00  0.00    +0.178 C 
ATOM     28  C   LIG A   1      -8.943  -1.504 123.950  0.00  0.00    +0.177 C 
ATOM     29  C   LIG A   1      -9.026  -2.856 124.659  0.00  0.00    +0.179 C 
ATOM     30  C   LIG A   1      -7.695  -3.144 125.366  0.00  0.00    +0.201 C 
BRANCH  29  31
ATOM     31  O   LIG A   1     -10.152  -2.866 125.534  0.00  0.00    -0.386 OA
ATOM     32  H   LIG A   1     -10.553  -3.753 125.495  0.00  0.00    +0.210 HD
ENDBRANCH  29  31
BRANCH  28  33
ATOM     33  O   LIG A   1      -8.069  -1.665 122.814  0.00  0.00    -0.387 OA
ATOM     34  H   LIG A   1      -7.363  -0.996 122.905  0.00  0.00    +0.210 HD
ENDBRANCH  28  33
BRANCH  30  35
ATOM     35  O   LIG A   1      -6.626  -3.281 124.415  0.00  0.00    -0.384 OA
ATOM     36  H   LIG A   1      -6.204  -4.155 124.573  0.00  0.00    +0.210 HD
ENDBRANCH  30  35
BRANCH  27  37
ATOM     37  C   LIG A   1      -9.473   0.458 125.505  0.00  0.00    +0.190 C 
BRANCH  37  38
ATOM     38  O   LIG A   1     -10.426   0.877 124.522  0.00  0.00    -0.392 OA
ATOM     39  H   LIG A   1     -10.021   1.635 124.059  0.00  0.00    +0.209 HD
ENDBRANCH  37  38
ENDBRANCH  27  37
ENDBRANCH  24  25
ENDBRANCH  23  24
ENDBRANCH  22  23
ENDBRANCH  21  22
ENDBRANCH   3  21
TORSDOF 12
ENDMDL
MODEL 6
REMARK VINA RESULT:      -7.8      4.819      9.263
REMARK  Name = NuBBE_412
REMARK  13 active torsions:
REMARK  status: ('A' for Active; 'I' for Inactive)
REMARK    1  A    between atoms: C_1  and  O_2
REMARK    2  A    between atoms: O_2  and  C_3
REMARK    3  A    between atoms: C_5  and  C_6
REMARK    4  A    between atoms: C_6  and  C_7
REMARK    5  A    between atoms: C_7  and  C_8
REMARK    6  A    between atoms: C_8  and  O_9
REMARK    7  A    between atoms: O_9  and  C_10
REMARK    8  A    between atoms: C_13  and  C_21
REMARK    9  A    between atoms: C_15  and  O_20
REMARK   10  A    between atoms: C_17  and  O_19
REMARK   11  A    between atoms: C_21  and  O_22
REMARK   12  A    between atoms: C_23  and  O_25
REMARK   13  A    between atoms: C_30  and  C_31
REMARK                            x       y       z     vdW  Elec       q    Type
REMARK                         _______ _______ _______ _____ _____    ______ ____
ROOT
ATOM      1  C   LIG A   1      -6.102   3.957 123.072  0.00  0.00    +0.163 A 
ATOM      2  C   LIG A   1      -7.198   3.426 122.364  0.00  0.00    +0.053 A 
ATOM      3  C   LIG A   1      -8.226   2.708 122.991  0.00  0.00    -0.043 A 
ATOM      4  C   LIG A   1      -8.203   2.526 124.381  0.00  0.00    +0.015 A 
ATOM      5  C   LIG A   1      -7.127   3.065 125.124  0.00  0.00    +0.025 A 
ATOM      6  C   LIG A   1      -6.123   3.752 124.458  0.00  0.00    +0.177 A 
ATOM      7  O   LIG A   1      -5.194   4.180 125.356  0.00  0.00    -0.451 OA
ATOM      8  C   LIG A   1      -5.581   3.784 126.600  0.00  0.00    +0.137 A 
ATOM      9  C   LIG A   1      -6.784   3.081 126.502  0.00  0.00    +0.058 A 
ENDROOT
BRANCH   8  10
ATOM     10  C   LIG A   1      -4.722   4.143 127.714  0.00  0.00    +0.021 A 
ATOM     11  C   LIG A   1      -3.941   5.309 127.683  0.00  0.00    +0.061 A 
ATOM     12  C   LIG A   1      -3.147   5.612 128.765  0.00  0.00    +0.167 A 
ATOM     13  C   LIG A   1      -3.096   4.803 129.877  0.00  0.00    +0.166 A 
ATOM     14  C   LIG A   1      -3.838   3.651 129.956  0.00  0.00    +0.050 A 
ATOM     15  C   LIG A   1      -4.656   3.320 128.868  0.00  0.00    +0.015 A 
ATOM     16  O   LIG A   1      -2.254   5.282 130.834  0.00  0.00    -0.453 OA
ATOM     17  C   LIG A   1      -1.785   6.493 130.203  0.00  0.00    +0.466 C 
ATOM     18  O   LIG A   1      -2.337   6.704 128.890  0.00  0.00    -0.453 OA
ENDBRANCH   8  10
BRANCH   1  20
ATOM     19  C   LIG A   1      -5.023   4.660 121.080  0.00  0.00    +0.277 C 
ATOM     20  O   LIG A   1      -5.065   4.645 122.504  0.00  0.00    -0.491 OA
ENDBRANCH   1  20
BRANCH   3  21
ATOM     21  C   LIG A   1      -9.371   2.164 122.160  0.00  0.00    +0.037 C 
BRANCH  21  22
ATOM     22  C   LIG A   1     -10.273   1.214 122.959  0.00  0.00    +0.033 C 
BRANCH  22  23
ATOM     23  C   LIG A   1     -10.065  -0.248 122.572  0.00  0.00    +0.163 C 
BRANCH  23  24
ATOM     24  O   LIG A   1      -9.215  -0.886 123.524  0.00  0.00    -0.349 OA
BRANCH  24  25
ATOM     25  C   LIG A   1      -8.328  -1.830 122.914  0.00  0.00    +0.282 C 
ATOM     26  O   LIG A   1      -8.468  -3.149 123.446  0.00  0.00    -0.341 OA
ATOM     27  C   LIG A   1      -7.805  -3.472 124.681  0.00  0.00    +0.178 C 
ATOM     28  C   LIG A   1      -6.452  -2.782 124.959  0.00  0.00    +0.177 C 
ATOM     29  C   LIG A   1      -6.376  -1.349 124.433  0.00  0.00    +0.179 C 
ATOM     30  C   LIG A   1      -6.881  -1.310 122.984  0.00  0.00    +0.201 C 
BRANCH  29  31
ATOM     31  O   LIG A   1      -7.092  -0.481 125.311  0.00  0.00    -0.386 OA
ATOM     32  H   LIG A   1      -6.588  -0.417 126.143  0.00  0.00    +0.210 HD
ENDBRANCH  29  31
BRANCH  28  33
ATOM     33  O   LIG A   1      -5.418  -3.541 124.299  0.00  0.00    -0.387 OA
ATOM     34  H   LIG A   1      -5.439  -4.438 124.684  0.00  0.00    +0.210 HD
ENDBRANCH  28  33
BRANCH  30  35
ATOM     35  O   LIG A   1      -6.025  -2.076 122.120  0.00  0.00    -0.384 OA
ATOM     36  H   LIG A   1      -5.183  -1.577 122.025  0.00  0.00    +0.210 HD
ENDBRANCH  30  35
BRANCH  27  37
ATOM     37  C   LIG A   1      -8.770  -3.377 125.868  0.00  0.00    +0.190 C 
BRANCH  37  38
ATOM     38  O   LIG A   1     -10.071  -3.004 125.402  0.00  0.00    -0.392 OA
ATOM     39  H   LIG A   1     -10.703  -3.565 125.891  0.00  0.00    +0.209 HD
ENDBRANCH  37  38
ENDBRANCH  27  37
ENDBRANCH  24  25
ENDBRANCH  23  24
ENDBRANCH  22  23
ENDBRANCH  21  22
ENDBRANCH   3  21
TORSDOF 12
ENDMDL
MODEL 7
REMARK VINA RESULT:      -7.8      3.444      8.735
REMARK  Name = NuBBE_412
REMARK  13 active torsions:
REMARK  status: ('A' for Active; 'I' for Inactive)
REMARK    1  A    between atoms: C_1  and  O_2
REMARK    2  A    between atoms: O_2  and  C_3
REMARK    3  A    between atoms: C_5  and  C_6
REMARK    4  A    between atoms: C_6  and  C_7
REMARK    5  A    between atoms: C_7  and  C_8
REMARK    6  A    between atoms: C_8  and  O_9
REMARK    7  A    between atoms: O_9  and  C_10
REMARK    8  A    between atoms: C_13  and  C_21
REMARK    9  A    between atoms: C_15  and  O_20
REMARK   10  A    between atoms: C_17  and  O_19
REMARK   11  A    between atoms: C_21  and  O_22
REMARK   12  A    between atoms: C_23  and  O_25
REMARK   13  A    between atoms: C_30  and  C_31
REMARK                            x       y       z     vdW  Elec       q    Type
REMARK                         _______ _______ _______ _____ _____    ______ ____
ROOT
ATOM      1  C   LIG A   1      -7.528   2.863 128.409  0.00  0.00    +0.163 A 
ATOM      2  C   LIG A   1      -7.057   1.567 128.693  0.00  0.00    +0.053 A 
ATOM      3  C   LIG A   1      -7.564   0.792 129.744  0.00  0.00    -0.043 A 
ATOM      4  C   LIG A   1      -8.606   1.290 130.540  0.00  0.00    +0.015 A 
ATOM      5  C   LIG A   1      -9.117   2.581 130.268  0.00  0.00    +0.025 A 
ATOM      6  C   LIG A   1      -8.570   3.319 129.229  0.00  0.00    +0.177 A 
ATOM      7  O   LIG A   1      -9.203   4.521 129.144  0.00  0.00    -0.451 OA
ATOM      8  C   LIG A   1     -10.158   4.575 130.113  0.00  0.00    +0.137 A 
ATOM      9  C   LIG A   1     -10.139   3.384 130.841  0.00  0.00    +0.058 A 
ENDROOT
BRANCH   8  10
ATOM     10  C   LIG A   1     -10.958   5.784 130.198  0.00  0.00    +0.021 A 
ATOM     11  C   LIG A   1     -11.082   6.652 129.101  0.00  0.00    +0.061 A 
ATOM     12  C   LIG A   1     -11.856   7.782 129.226  0.00  0.00    +0.167 A 
ATOM     13  C   LIG A   1     -12.512   8.087 130.396  0.00  0.00    +0.166 A 
ATOM     14  C   LIG A   1     -12.420   7.275 131.498  0.00  0.00    +0.050 A 
ATOM     15  C   LIG A   1     -11.639   6.116 131.397  0.00  0.00    +0.015 A 
ATOM     16  O   LIG A   1     -13.224   9.245 130.311  0.00  0.00    -0.453 OA
ATOM     17  C   LIG A   1     -12.951   9.632 128.947  0.00  0.00    +0.466 C 
ATOM     18  O   LIG A   1     -12.079   8.718 128.257  0.00  0.00    -0.453 OA
ENDBRANCH   8  10
BRANCH   1  20
ATOM     19  C   LIG A   1      -5.771   3.327 126.886  0.00  0.00    +0.277 C 
ATOM     20  O   LIG A   1      -7.051   3.667 127.410  0.00  0.00    -0.491 OA
ENDBRANCH   1  20
BRANCH   3  21
ATOM     21  C   LIG A   1      -7.002  -0.595 129.989  0.00  0.00    +0.037 C 
BRANCH  21  22
ATOM     22  C   LIG A   1      -7.849  -1.693 129.333  0.00  0.00    +0.033 C 
BRANCH  22  23
ATOM     23  C   LIG A   1      -7.118  -2.382 128.184  0.00  0.00    +0.163 C 
BRANCH  23  24
ATOM     24  O   LIG A   1      -7.203  -1.582 127.006  0.00  0.00    -0.349 OA
BRANCH  24  25
ATOM     25  C   LIG A   1      -8.549  -1.452 126.533  0.00  0.00    +0.282 C 
ATOM     26  O   LIG A   1      -8.993  -2.593 125.796  0.00  0.00    -0.341 OA
ATOM     27  C   LIG A   1      -8.622  -2.711 124.411  0.00  0.00    +0.178 C 
ATOM     28  C   LIG A   1      -8.492  -1.403 123.600  0.00  0.00    +0.177 C 
ATOM     29  C   LIG A   1      -7.947  -0.230 124.414  0.00  0.00    +0.179 C 
ATOM     30  C   LIG A   1      -8.703  -0.138 125.746  0.00  0.00    +0.201 C 
BRANCH  29  31
ATOM     31  O   LIG A   1      -6.536  -0.371 124.566  0.00  0.00    -0.386 OA
ATOM     32  H   LIG A   1      -6.269   0.132 125.357  0.00  0.00    +0.210 HD
ENDBRANCH  29  31
BRANCH  28  33
ATOM     33  O   LIG A   1      -9.806  -1.033 123.134  0.00  0.00    -0.387 OA
ATOM     34  H   LIG A   1     -10.432  -1.257 123.850  0.00  0.00    +0.210 HD
ENDBRANCH  28  33
BRANCH  30  35
ATOM     35  O   LIG A   1     -10.091   0.164 125.531  0.00  0.00    -0.384 OA
ATOM     36  H   LIG A   1     -10.615  -0.447 126.095  0.00  0.00    +0.210 HD
ENDBRANCH  30  35
BRANCH  27  37
ATOM     37  C   LIG A   1      -7.410  -3.633 124.239  0.00  0.00    +0.190 C 
BRANCH  37  38
ATOM     38  O   LIG A   1      -6.264  -3.042 124.859  0.00  0.00    -0.392 OA
ATOM     39  H   LIG A   1      -6.580  -2.655 125.698  0.00  0.00    +0.209 HD
ENDBRANCH  37  38
ENDBRANCH  27  37
ENDBRANCH  24  25
ENDBRANCH  23  24
ENDBRANCH  22  23
ENDBRANCH  21  22
ENDBRANCH   3  21
TORSDOF 12
ENDMDL
MODEL 8
REMARK VINA RESULT:      -7.8      2.246      3.211
REMARK  Name = NuBBE_412
REMARK  13 active torsions:
REMARK  status: ('A' for Active; 'I' for Inactive)
REMARK    1  A    between atoms: C_1  and  O_2
REMARK    2  A    between atoms: O_2  and  C_3
REMARK    3  A    between atoms: C_5  and  C_6
REMARK    4  A    between atoms: C_6  and  C_7
REMARK    5  A    between atoms: C_7  and  C_8
REMARK    6  A    between atoms: C_8  and  O_9
REMARK    7  A    between atoms: O_9  and  C_10
REMARK    8  A    between atoms: C_13  and  C_21
REMARK    9  A    between atoms: C_15  and  O_20
REMARK   10  A    between atoms: C_17  and  O_19
REMARK   11  A    between atoms: C_21  and  O_22
REMARK   12  A    between atoms: C_23  and  O_25
REMARK   13  A    between atoms: C_30  and  C_31
REMARK                            x       y       z     vdW  Elec       q    Type
REMARK                         _______ _______ _______ _____ _____    ______ ____
ROOT
ATOM      1  C   LIG A   1      -4.445   3.468 126.867  0.00  0.00    +0.163 A 
ATOM      2  C   LIG A   1      -4.563   2.757 128.078  0.00  0.00    +0.053 A 
ATOM      3  C   LIG A   1      -5.526   1.760 128.277  0.00  0.00    -0.043 A 
ATOM      4  C   LIG A   1      -6.399   1.413 127.235  0.00  0.00    +0.015 A 
ATOM      5  C   LIG A   1      -6.292   2.093 125.999  0.00  0.00    +0.025 A 
ATOM      6  C   LIG A   1      -5.335   3.087 125.855  0.00  0.00    +0.177 A 
ATOM      7  O   LIG A   1      -5.407   3.608 124.599  0.00  0.00    -0.451 OA
ATOM      8  C   LIG A   1      -6.397   2.964 123.922  0.00  0.00    +0.137 A 
ATOM      9  C   LIG A   1      -6.979   2.010 124.759  0.00  0.00    +0.058 A 
ENDROOT
BRANCH   8  10
ATOM     10  C   LIG A   1      -6.642   3.369 122.549  0.00  0.00    +0.021 A 
ATOM     11  C   LIG A   1      -7.940   3.373 122.013  0.00  0.00    +0.061 A 
ATOM     12  C   LIG A   1      -8.125   3.771 120.709  0.00  0.00    +0.167 A 
ATOM     13  C   LIG A   1      -7.074   4.164 119.914  0.00  0.00    +0.166 A 
ATOM     14  C   LIG A   1      -5.786   4.174 120.388  0.00  0.00    +0.050 A 
ATOM     15  C   LIG A   1      -5.570   3.775 121.714  0.00  0.00    +0.015 A 
ATOM     16  O   LIG A   1      -7.469   4.520 118.661  0.00  0.00    -0.453 OA
ATOM     17  C   LIG A   1      -8.896   4.318 118.758  0.00  0.00    +0.466 C 
ATOM     18  O   LIG A   1      -9.318   3.834 120.047  0.00  0.00    -0.453 OA
ENDBRANCH   8  10
BRANCH   1  20
ATOM     19  C   LIG A   1      -3.132   5.229 127.764  0.00  0.00    +0.277 C 
ATOM     20  O   LIG A   1      -3.537   4.465 126.632  0.00  0.00    -0.491 OA
ENDBRANCH   1  20
BRANCH   3  21
ATOM     21  C   LIG A   1      -5.594   1.041 129.610  0.00  0.00    +0.037 C 
BRANCH  21  22
ATOM     22  C   LIG A   1      -7.017   1.002 130.182  0.00  0.00    +0.033 C 
BRANCH  22  23
ATOM     23  C   LIG A   1      -7.260   2.101 131.213  0.00  0.00    +0.163 C 
BRANCH  23  24
ATOM     24  O   LIG A   1      -8.153   3.077 130.679  0.00  0.00    -0.349 OA
BRANCH  24  25
ATOM     25  C   LIG A   1      -9.265   3.329 131.547  0.00  0.00    +0.282 C 
ATOM     26  O   LIG A   1     -10.305   4.081 130.915  0.00  0.00    -0.341 OA
ATOM     27  C   LIG A   1     -10.172   5.511 130.831  0.00  0.00    +0.178 C 
ATOM     28  C   LIG A   1      -9.446   6.224 131.992  0.00  0.00    +0.177 C 
ATOM     29  C   LIG A   1      -8.298   5.410 132.588  0.00  0.00    +0.179 C 
ATOM     30  C   LIG A   1      -8.773   3.975 132.855  0.00  0.00    +0.201 C 
BRANCH  29  31
ATOM     31  O   LIG A   1      -7.164   5.484 131.725  0.00  0.00    -0.386 OA
ATOM     32  H   LIG A   1      -7.490   5.560 130.810  0.00  0.00    +0.210 HD
ENDBRANCH  29  31
BRANCH  28  33
ATOM     33  O   LIG A   1     -10.404   6.454 133.046  0.00  0.00    -0.387 OA
ATOM     34  H   LIG A   1     -10.121   5.912 133.807  0.00  0.00    +0.210 HD
ENDBRANCH  28  33
BRANCH  30  35
ATOM     35  O   LIG A   1      -9.809   3.953 133.851  0.00  0.00    -0.384 OA
ATOM     36  H   LIG A   1      -9.377   4.083 134.725  0.00  0.00    +0.210 HD
ENDBRANCH  30  35
BRANCH  27  37
ATOM     37  C   LIG A   1      -9.646   5.937 129.457  0.00  0.00    +0.190 C 
BRANCH  37  38
ATOM     38  O   LIG A   1      -9.481   7.358 129.424  0.00  0.00    -0.392 OA
ATOM     39  H   LIG A   1      -9.911   7.699 130.231  0.00  0.00    +0.209 HD
ENDBRANCH  37  38
ENDBRANCH  27  37
ENDBRANCH  24  25
ENDBRANCH  23  24
ENDBRANCH  22  23
ENDBRANCH  21  22
ENDBRANCH   3  21
TORSDOF 12
ENDMDL
MODEL 9
REMARK VINA RESULT:      -7.7      7.355     10.635
REMARK  Name = NuBBE_412
REMARK  13 active torsions:
REMARK  status: ('A' for Active; 'I' for Inactive)
REMARK    1  A    between atoms: C_1  and  O_2
REMARK    2  A    between atoms: O_2  and  C_3
REMARK    3  A    between atoms: C_5  and  C_6
REMARK    4  A    between atoms: C_6  and  C_7
REMARK    5  A    between atoms: C_7  and  C_8
REMARK    6  A    between atoms: C_8  and  O_9
REMARK    7  A    between atoms: O_9  and  C_10
REMARK    8  A    between atoms: C_13  and  C_21
REMARK    9  A    between atoms: C_15  and  O_20
REMARK   10  A    between atoms: C_17  and  O_19
REMARK   11  A    between atoms: C_21  and  O_22
REMARK   12  A    between atoms: C_23  and  O_25
REMARK   13  A    between atoms: C_30  and  C_31
REMARK                            x       y       z     vdW  Elec       q    Type
REMARK                         _______ _______ _______ _____ _____    ______ ____
ROOT
ATOM      1  C   LIG A   1      -4.034   7.139 130.320  0.00  0.00    +0.163 A 
ATOM      2  C   LIG A   1      -2.818   6.842 130.967  0.00  0.00    +0.053 A 
ATOM      3  C   LIG A   1      -2.763   6.288 132.252  0.00  0.00    -0.043 A 
ATOM      4  C   LIG A   1      -3.951   5.975 132.930  0.00  0.00    +0.015 A 
ATOM      5  C   LIG A   1      -5.188   6.241 132.299  0.00  0.00    +0.025 A 
ATOM      6  C   LIG A   1      -5.194   6.809 131.033  0.00  0.00    +0.177 A 
ATOM      7  O   LIG A   1      -6.479   6.979 130.617  0.00  0.00    -0.451 OA
ATOM      8  C   LIG A   1      -7.312   6.528 131.595  0.00  0.00    +0.137 A 
ATOM      9  C   LIG A   1      -6.548   6.058 132.666  0.00  0.00    +0.058 A 
ENDROOT
BRANCH   8  10
ATOM     10  C   LIG A   1      -8.740   6.618 131.352  0.00  0.00    +0.021 A 
ATOM     11  C   LIG A   1      -9.243   7.237 130.196  0.00  0.00    +0.061 A 
ATOM     12  C   LIG A   1     -10.604   7.293 130.005  0.00  0.00    +0.167 A 
ATOM     13  C   LIG A   1     -11.488   6.761 130.915  0.00  0.00    +0.166 A 
ATOM     14  C   LIG A   1     -11.048   6.148 132.061  0.00  0.00    +0.050 A 
ATOM     15  C   LIG A   1      -9.666   6.076 132.280  0.00  0.00    +0.015 A 
ATOM     16  O   LIG A   1     -12.786   6.918 130.538  0.00  0.00    -0.453 OA
ATOM     17  C   LIG A   1     -12.622   7.605 129.278  0.00  0.00    +0.466 C 
ATOM     18  O   LIG A   1     -11.246   7.854 128.938  0.00  0.00    -0.453 OA
ENDBRANCH   8  10
BRANCH   1  20
ATOM     19  C   LIG A   1      -3.406   7.066 128.033  0.00  0.00    +0.277 C 
ATOM     20  O   LIG A   1      -4.139   7.701 129.076  0.00  0.00    -0.491 OA
ENDBRANCH   1  20
BRANCH   3  21
ATOM     21  C   LIG A   1      -1.416   6.000 132.885  0.00  0.00    +0.037 C 
BRANCH  21  22
ATOM     22  C   LIG A   1      -0.385   7.096 132.589  0.00  0.00    +0.033 C 
BRANCH  22  23
ATOM     23  C   LIG A   1      -0.337   8.161 133.682  0.00  0.00    +0.163 C 
BRANCH  23  24
ATOM     24  O   LIG A   1      -0.334   9.461 133.094  0.00  0.00    -0.349 OA
BRANCH  24  25
ATOM     25  C   LIG A   1      -1.567  10.157 133.306  0.00  0.00    +0.282 C 
ATOM     26  O   LIG A   1      -1.745  11.258 132.411  0.00  0.00    -0.341 OA
ATOM     27  C   LIG A   1      -1.101  12.508 132.714  0.00  0.00    +0.178 C 
ATOM     28  C   LIG A   1      -0.943  12.879 134.204  0.00  0.00    +0.177 C 
ATOM     29  C   LIG A   1      -0.684  11.676 135.111  0.00  0.00    +0.179 C 
ATOM     30  C   LIG A   1      -1.691  10.565 134.785  0.00  0.00    +0.201 C 
BRANCH  29  31
ATOM     31  O   LIG A   1       0.677  11.269 134.984  0.00  0.00    -0.386 OA
ATOM     32  H   LIG A   1       0.773  10.812 134.128  0.00  0.00    +0.210 HD
ENDBRANCH  29  31
BRANCH  28  33
ATOM     33  O   LIG A   1      -2.170  13.497 134.645  0.00  0.00    -0.387 OA
ATOM     34  H   LIG A   1      -1.919  14.216 135.256  0.00  0.00    +0.210 HD
ENDBRANCH  28  33
BRANCH  30  35
ATOM     35  O   LIG A   1      -3.034  10.982 135.084  0.00  0.00    -0.384 OA
ATOM     36  H   LIG A   1      -2.997  11.518 135.907  0.00  0.00    +0.210 HD
ENDBRANCH  30  35
BRANCH  27  37
ATOM     37  C   LIG A   1       0.205  12.662 131.927  0.00  0.00    +0.190 C 
BRANCH  37  38
ATOM     38  O   LIG A   1       1.142  11.667 132.350  0.00  0.00    -0.392 OA
ATOM     39  H   LIG A   1       1.524  11.994 133.187  0.00  0.00    +0.209 HD
ENDBRANCH  37  38
ENDBRANCH  27  37
ENDBRANCH  24  25
ENDBRANCH  23  24
ENDBRANCH  22  23
ENDBRANCH  21  22
ENDBRANCH   3  21
TORSDOF 12
ENDMDL
