MODEL 1
REMARK VINA RESULT:      -7.6      0.000      0.000
REMARK  Name = NuBBE_126
REMARK  6 active torsions:
REMARK  status: ('A' for Active; 'I' for Inactive)
REMARK    1  A    between atoms: O_1  and  C_2
REMARK    2  A    between atoms: C_5  and  C_6
REMARK    3  A    between atoms: C_10  and  O_11
REMARK    4  A    between atoms: C_12  and  O_13
REMARK    5  A    between atoms: C_14  and  O_15
REMARK    6  A    between atoms: O_15  and  C_16
REMARK                            x       y       z     vdW  Elec       q    Type
REMARK                         _______ _______ _______ _____ _____    ______ ____
ROOT
ATOM      1  C   LIG A   1      -7.068   6.604 131.535  0.00  0.00    +0.139 A 
ATOM      2  O   LIG A   1      -7.683   7.229 130.456  0.00  0.00    -0.454 OA
ATOM      3  C   LIG A   1      -9.053   7.186 130.364  0.00  0.00    +0.146 A 
ATOM      4  C   LIG A   1      -9.851   6.538 131.297  0.00  0.00    +0.109 A 
ATOM      5  C   LIG A   1     -11.236   6.531 131.143  0.00  0.00    +0.177 A 
ATOM      6  C   LIG A   1     -11.829   7.176 130.050  0.00  0.00    +0.202 A 
ATOM      7  C   LIG A   1     -11.039   7.833 129.103  0.00  0.00    +0.169 A 
ATOM      8  C   LIG A   1      -9.644   7.830 129.273  0.00  0.00    +0.096 A 
ATOM      9  C   LIG A   1      -7.738   5.962 132.506  0.00  0.00    +0.098 A 
ATOM     10  C   LIG A   1      -9.202   5.879 132.432  0.00  0.00    +0.197 A 
ATOM     11  O   LIG A   1      -9.860   5.288 133.280  0.00  0.00    -0.287 OA
ENDROOT
BRANCH   1  15
ATOM     12  C   LIG A   1      -2.788   6.930 131.616  0.00  0.00    +0.117 A 
ATOM     13  C   LIG A   1      -3.453   6.292 132.656  0.00  0.00    +0.046 A 
ATOM     14  C   LIG A   1      -4.849   6.191 132.622  0.00  0.00    +0.015 A 
ATOM     15  C   LIG A   1      -5.590   6.724 131.553  0.00  0.00    +0.018 A 
ATOM     16  C   LIG A   1      -4.889   7.379 130.525  0.00  0.00    +0.015 A 
ATOM     17  C   LIG A   1      -3.495   7.475 130.554  0.00  0.00    +0.046 A 
BRANCH  12  18
ATOM     18  O   LIG A   1      -1.430   7.048 131.602  0.00  0.00    -0.507 OA
ATOM     19  H   LIG A   1      -1.103   6.782 130.729  0.00  0.00    +0.292 HD
ENDBRANCH  12  18
ENDBRANCH   1  15
BRANCH   5  20
ATOM     20  O   LIG A   1     -12.090   5.907 132.025  0.00  0.00    -0.503 OA
ATOM     21  H   LIG A   1     -12.143   6.467 132.835  0.00  0.00    +0.292 HD
ENDBRANCH   5  20
BRANCH   6  22
ATOM     22  O   LIG A   1     -13.196   7.126 129.972  0.00  0.00    -0.501 OA
ATOM     23  H   LIG A   1     -13.392   6.292 129.497  0.00  0.00    +0.292 HD
ENDBRANCH   6  22
BRANCH   7  24
ATOM     24  O   LIG A   1     -11.441   8.508 127.982  0.00  0.00    -0.491 OA
ATOM     25  C   LIG A   1     -11.151   7.931 126.716  0.00  0.00    +0.277 C 
ENDBRANCH   7  24
TORSDOF 5
ENDMDL
MODEL 2
REMARK VINA RESULT:      -7.5      9.236     10.891
REMARK  Name = NuBBE_126
REMARK  6 active torsions:
REMARK  status: ('A' for Active; 'I' for Inactive)
REMARK    1  A    between atoms: O_1  and  C_2
REMARK    2  A    between atoms: C_5  and  C_6
REMARK    3  A    between atoms: C_10  and  O_11
REMARK    4  A    between atoms: C_12  and  O_13
REMARK    5  A    between atoms: C_14  and  O_15
REMARK    6  A    between atoms: O_15  and  C_16
REMARK                            x       y       z     vdW  Elec       q    Type
REMARK                         _______ _______ _______ _____ _____    ______ ____
ROOT
ATOM      1  C   LIG A   1      -7.234   2.834 122.472  0.00  0.00    +0.139 A 
ATOM      2  O   LIG A   1      -6.824   1.505 122.434  0.00  0.00    -0.454 OA
ATOM      3  C   LIG A   1      -7.181   0.676 123.469  0.00  0.00    +0.146 A 
ATOM      4  C   LIG A   1      -7.928   1.107 124.557  0.00  0.00    +0.109 A 
ATOM      5  C   LIG A   1      -8.255   0.212 125.575  0.00  0.00    +0.177 A 
ATOM      6  C   LIG A   1      -7.836  -1.122 125.505  0.00  0.00    +0.202 A 
ATOM      7  C   LIG A   1      -7.084  -1.571 124.416  0.00  0.00    +0.169 A 
ATOM      8  C   LIG A   1      -6.762  -0.656 123.399  0.00  0.00    +0.096 A 
ATOM      9  C   LIG A   1      -7.972   3.357 123.465  0.00  0.00    +0.098 A 
ATOM     10  C   LIG A   1      -8.358   2.506 124.597  0.00  0.00    +0.197 A 
ATOM     11  O   LIG A   1      -9.012   2.938 125.539  0.00  0.00    -0.287 OA
ENDROOT
BRANCH   1  15
ATOM     12  C   LIG A   1      -6.048   5.165 119.068  0.00  0.00    +0.117 A 
ATOM     13  C   LIG A   1      -7.316   4.597 119.111  0.00  0.00    +0.046 A 
ATOM     14  C   LIG A   1      -7.694   3.838 120.224  0.00  0.00    +0.015 A 
ATOM     15  C   LIG A   1      -6.813   3.640 121.302  0.00  0.00    +0.018 A 
ATOM     16  C   LIG A   1      -5.532   4.212 121.220  0.00  0.00    +0.015 A 
ATOM     17  C   LIG A   1      -5.155   4.976 120.112  0.00  0.00    +0.046 A 
BRANCH  12  18
ATOM     18  O   LIG A   1      -5.638   5.916 118.008  0.00  0.00    -0.507 OA
ATOM     19  H   LIG A   1      -6.245   6.666 117.903  0.00  0.00    +0.292 HD
ENDBRANCH  12  18
ENDBRANCH   1  15
BRANCH   5  20
ATOM     20  O   LIG A   1      -8.988   0.569 126.684  0.00  0.00    -0.503 OA
ATOM     21  H   LIG A   1      -9.377  -0.256 127.062  0.00  0.00    +0.292 HD
ENDBRANCH   5  20
BRANCH   6  22
ATOM     22  O   LIG A   1      -8.201  -1.938 126.543  0.00  0.00    -0.501 OA
ATOM     23  H   LIG A   1      -7.364  -2.147 127.008  0.00  0.00    +0.292 HD
ENDBRANCH   6  22
BRANCH   7  24
ATOM     24  O   LIG A   1      -6.592  -2.826 124.183  0.00  0.00    -0.491 OA
ATOM     25  C   LIG A   1      -5.301  -2.939 123.599  0.00  0.00    +0.277 C 
ENDBRANCH   7  24
TORSDOF 5
ENDMDL
MODEL 3
REMARK VINA RESULT:      -7.2      1.582      6.843
REMARK  Name = NuBBE_126
REMARK  6 active torsions:
REMARK  status: ('A' for Active; 'I' for Inactive)
REMARK    1  A    between atoms: O_1  and  C_2
REMARK    2  A    between atoms: C_5  and  C_6
REMARK    3  A    between atoms: C_10  and  O_11
REMARK    4  A    between atoms: C_12  and  O_13
REMARK    5  A    between atoms: C_14  and  O_15
REMARK    6  A    between atoms: O_15  and  C_16
REMARK                            x       y       z     vdW  Elec       q    Type
REMARK                         _______ _______ _______ _____ _____    ______ ____
ROOT
ATOM      1  C   LIG A   1      -9.457   6.794 130.976  0.00  0.00    +0.139 A 
ATOM      2  O   LIG A   1      -8.224   7.206 130.481  0.00  0.00    -0.454 OA
ATOM      3  C   LIG A   1      -7.089   6.868 131.176  0.00  0.00    +0.146 A 
ATOM      4  C   LIG A   1      -7.118   6.138 132.358  0.00  0.00    +0.109 A 
ATOM      5  C   LIG A   1      -5.928   5.830 133.015  0.00  0.00    +0.177 A 
ATOM      6  C   LIG A   1      -4.701   6.250 132.488  0.00  0.00    +0.202 A 
ATOM      7  C   LIG A   1      -4.655   6.984 131.299  0.00  0.00    +0.169 A 
ATOM      8  C   LIG A   1      -5.864   7.287 130.650  0.00  0.00    +0.096 A 
ATOM      9  C   LIG A   1      -9.605   6.072 132.099  0.00  0.00    +0.098 A 
ATOM     10  C   LIG A   1      -8.416   5.707 132.879  0.00  0.00    +0.197 A 
ATOM     11  O   LIG A   1      -8.498   5.068 133.921  0.00  0.00    -0.287 OA
ENDROOT
BRANCH   1  15
ATOM     12  C   LIG A   1     -12.838   7.937 128.591  0.00  0.00    +0.117 A 
ATOM     13  C   LIG A   1     -13.025   7.166 129.732  0.00  0.00    +0.046 A 
ATOM     14  C   LIG A   1     -11.917   6.797 130.503  0.00  0.00    +0.015 A 
ATOM     15  C   LIG A   1     -10.617   7.194 130.144  0.00  0.00    +0.018 A 
ATOM     16  C   LIG A   1     -10.460   7.959 128.975  0.00  0.00    +0.015 A 
ATOM     17  C   LIG A   1     -11.566   8.333 128.206  0.00  0.00    +0.046 A 
BRANCH  12  18
ATOM     18  O   LIG A   1     -13.887   8.325 127.812  0.00  0.00    -0.507 OA
ATOM     19  H   LIG A   1     -14.593   7.664 127.887  0.00  0.00    +0.292 HD
ENDBRANCH  12  18
ENDBRANCH   1  15
BRANCH   5  20
ATOM     20  O   LIG A   1      -5.880   5.115 134.190  0.00  0.00    -0.503 OA
ATOM     21  H   LIG A   1      -6.446   5.584 134.848  0.00  0.00    +0.292 HD
ENDBRANCH   5  20
BRANCH   6  22
ATOM     22  O   LIG A   1      -3.577   5.904 133.191  0.00  0.00    -0.501 OA
ATOM     23  H   LIG A   1      -3.373   4.989 132.907  0.00  0.00    +0.292 HD
ENDBRANCH   6  22
BRANCH   7  24
ATOM     24  O   LIG A   1      -3.558   7.475 130.645  0.00  0.00    -0.491 OA
ATOM     25  C   LIG A   1      -3.744   8.017 129.345  0.00  0.00    +0.277 C 
ENDBRANCH   7  24
TORSDOF 5
ENDMDL
MODEL 4
REMARK VINA RESULT:      -7.2      8.342     10.383
REMARK  Name = NuBBE_126
REMARK  6 active torsions:
REMARK  status: ('A' for Active; 'I' for Inactive)
REMARK    1  A    between atoms: O_1  and  C_2
REMARK    2  A    between atoms: C_5  and  C_6
REMARK    3  A    between atoms: C_10  and  O_11
REMARK    4  A    between atoms: C_12  and  O_13
REMARK    5  A    between atoms: C_14  and  O_15
REMARK    6  A    between atoms: O_15  and  C_16
REMARK                            x       y       z     vdW  Elec       q    Type
REMARK                         _______ _______ _______ _____ _____    ______ ____
ROOT
ATOM      1  C   LIG A   1      -7.656   2.826 122.370  0.00  0.00    +0.139 A 
ATOM      2  O   LIG A   1      -6.704   2.478 123.324  0.00  0.00    -0.454 OA
ATOM      3  C   LIG A   1      -7.096   1.717 124.398  0.00  0.00    +0.146 A 
ATOM      4  C   LIG A   1      -8.404   1.286 124.579  0.00  0.00    +0.109 A 
ATOM      5  C   LIG A   1      -8.734   0.517 125.694  0.00  0.00    +0.177 A 
ATOM      6  C   LIG A   1      -7.753   0.175 126.633  0.00  0.00    +0.202 A 
ATOM      7  C   LIG A   1      -6.432   0.601 126.464  0.00  0.00    +0.169 A 
ATOM      8  C   LIG A   1      -6.116   1.376 125.335  0.00  0.00    +0.096 A 
ATOM      9  C   LIG A   1      -8.944   2.452 122.434  0.00  0.00    +0.098 A 
ATOM     10  C   LIG A   1      -9.404   1.654 123.577  0.00  0.00    +0.197 A 
ATOM     11  O   LIG A   1     -10.573   1.305 123.693  0.00  0.00    -0.287 OA
ENDROOT
BRANCH   1  15
ATOM     12  C   LIG A   1      -6.163   5.157 119.089  0.00  0.00    +0.117 A 
ATOM     13  C   LIG A   1      -7.464   4.670 119.057  0.00  0.00    +0.046 A 
ATOM     14  C   LIG A   1      -7.942   3.910 120.131  0.00  0.00    +0.015 A 
ATOM     15  C   LIG A   1      -7.129   3.631 121.243  0.00  0.00    +0.018 A 
ATOM     16  C   LIG A   1      -5.812   4.122 121.236  0.00  0.00    +0.015 A 
ATOM     17  C   LIG A   1      -5.334   4.886 120.168  0.00  0.00    +0.046 A 
BRANCH  12  18
ATOM     18  O   LIG A   1      -5.655   5.905 118.070  0.00  0.00    -0.507 OA
ATOM     19  H   LIG A   1      -4.788   5.548 117.822  0.00  0.00    +0.292 HD
ENDBRANCH  12  18
ENDBRANCH   1  15
BRANCH   5  20
ATOM     20  O   LIG A   1     -10.008   0.058 125.941  0.00  0.00    -0.503 OA
ATOM     21  H   LIG A   1     -10.298   0.433 126.807  0.00  0.00    +0.292 HD
ENDBRANCH   5  20
BRANCH   6  22
ATOM     22  O   LIG A   1      -8.157  -0.585 127.698  0.00  0.00    -0.501 OA
ATOM     23  H   LIG A   1      -7.328  -0.881 128.128  0.00  0.00    +0.292 HD
ENDBRANCH   6  22
BRANCH   7  24
ATOM     24  O   LIG A   1      -5.354   0.365 127.272  0.00  0.00    -0.491 OA
ATOM     25  C   LIG A   1      -5.149   1.231 128.380  0.00  0.00    +0.277 C 
ENDBRANCH   7  24
TORSDOF 5
ENDMDL
MODEL 5
REMARK VINA RESULT:      -7.0      7.783     10.004
REMARK  Name = NuBBE_126
REMARK  6 active torsions:
REMARK  status: ('A' for Active; 'I' for Inactive)
REMARK    1  A    between atoms: O_1  and  C_2
REMARK    2  A    between atoms: C_5  and  C_6
REMARK    3  A    between atoms: C_10  and  O_11
REMARK    4  A    between atoms: C_12  and  O_13
REMARK    5  A    between atoms: C_14  and  O_15
REMARK    6  A    between atoms: O_15  and  C_16
REMARK                            x       y       z     vdW  Elec       q    Type
REMARK                         _______ _______ _______ _____ _____    ______ ____
ROOT
ATOM      1  C   LIG A   1      -6.271   3.253 122.891  0.00  0.00    +0.139 A 
ATOM      2  O   LIG A   1      -5.442   3.764 123.885  0.00  0.00    -0.454 OA
ATOM      3  C   LIG A   1      -5.473   3.184 125.130  0.00  0.00    +0.146 A 
ATOM      4  C   LIG A   1      -6.302   2.115 125.443  0.00  0.00    +0.109 A 
ATOM      5  C   LIG A   1      -6.284   1.575 126.729  0.00  0.00    +0.177 A 
ATOM      6  C   LIG A   1      -5.433   2.104 127.706  0.00  0.00    +0.202 A 
ATOM      7  C   LIG A   1      -4.592   3.180 127.406  0.00  0.00    +0.169 A 
ATOM      8  C   LIG A   1      -4.623   3.713 126.106  0.00  0.00    +0.096 A 
ATOM      9  C   LIG A   1      -7.100   2.213 123.075  0.00  0.00    +0.098 A 
ATOM     10  C   LIG A   1      -7.174   1.579 124.398  0.00  0.00    +0.197 A 
ATOM     11  O   LIG A   1      -7.929   0.641 124.624  0.00  0.00    -0.287 OA
ENDROOT
BRANCH   1  15
ATOM     12  C   LIG A   1      -5.954   5.216 119.087  0.00  0.00    +0.117 A 
ATOM     13  C   LIG A   1      -7.063   4.428 119.369  0.00  0.00    +0.046 A 
ATOM     14  C   LIG A   1      -7.158   3.791 120.611  0.00  0.00    +0.015 A 
ATOM     15  C   LIG A   1      -6.150   3.935 121.581  0.00  0.00    +0.018 A 
ATOM     16  C   LIG A   1      -5.032   4.724 121.258  0.00  0.00    +0.015 A 
ATOM     17  C   LIG A   1      -4.938   5.366 120.020  0.00  0.00    +0.046 A 
BRANCH  12  18
ATOM     18  O   LIG A   1      -5.820   5.860 117.894  0.00  0.00    -0.507 OA
ATOM     19  H   LIG A   1      -6.601   6.418 117.751  0.00  0.00    +0.292 HD
ENDBRANCH  12  18
ENDBRANCH   1  15
BRANCH   5  20
ATOM     20  O   LIG A   1      -7.079   0.518 127.112  0.00  0.00    -0.503 OA
ATOM     21  H   LIG A   1      -6.662  -0.309 126.771  0.00  0.00    +0.292 HD
ENDBRANCH   5  20
BRANCH   6  22
ATOM     22  O   LIG A   1      -5.472   1.515 128.942  0.00  0.00    -0.501 OA
ATOM     23  H   LIG A   1      -4.612   1.734 129.355  0.00  0.00    +0.292 HD
ENDBRANCH   6  22
BRANCH   7  24
ATOM     24  O   LIG A   1      -3.705   3.820 128.227  0.00  0.00    -0.491 OA
ATOM     25  C   LIG A   1      -2.623   4.518 127.625  0.00  0.00    +0.277 C 
ENDBRANCH   7  24
TORSDOF 5
ENDMDL
MODEL 6
REMARK VINA RESULT:      -6.9      4.042      6.849
REMARK  Name = NuBBE_126
REMARK  6 active torsions:
REMARK  status: ('A' for Active; 'I' for Inactive)
REMARK    1  A    between atoms: O_1  and  C_2
REMARK    2  A    between atoms: C_5  and  C_6
REMARK    3  A    between atoms: C_10  and  O_11
REMARK    4  A    between atoms: C_12  and  O_13
REMARK    5  A    between atoms: C_14  and  O_15
REMARK    6  A    between atoms: O_15  and  C_16
REMARK                            x       y       z     vdW  Elec       q    Type
REMARK                         _______ _______ _______ _____ _____    ______ ____
ROOT
ATOM      1  C   LIG A   1     -10.332   5.589 130.834  0.00  0.00    +0.139 A 
ATOM      2  O   LIG A   1      -9.967   4.622 129.903  0.00  0.00    -0.454 OA
ATOM      3  C   LIG A   1      -9.310   3.499 130.342  0.00  0.00    +0.146 A 
ATOM      4  C   LIG A   1      -8.986   3.289 131.676  0.00  0.00    +0.109 A 
ATOM      5  C   LIG A   1      -8.316   2.126 132.055  0.00  0.00    +0.177 A 
ATOM      6  C   LIG A   1      -7.969   1.167 131.096  0.00  0.00    +0.202 A 
ATOM      7  C   LIG A   1      -8.289   1.363 129.749  0.00  0.00    +0.169 A 
ATOM      8  C   LIG A   1      -8.964   2.541 129.385  0.00  0.00    +0.096 A 
ATOM      9  C   LIG A   1     -10.085   5.485 132.150  0.00  0.00    +0.098 A 
ATOM     10  C   LIG A   1      -9.369   4.307 132.655  0.00  0.00    +0.197 A 
ATOM     11  O   LIG A   1      -9.100   4.174 133.843  0.00  0.00    -0.287 OA
ENDROOT
BRANCH   1  15
ATOM     12  C   LIG A   1     -12.391   8.958 129.150  0.00  0.00    +0.117 A 
ATOM     13  C   LIG A   1     -11.228   8.488 128.552  0.00  0.00    +0.046 A 
ATOM     14  C   LIG A   1     -10.562   7.389 129.108  0.00  0.00    +0.015 A 
ATOM     15  C   LIG A   1     -11.051   6.752 130.262  0.00  0.00    +0.018 A 
ATOM     16  C   LIG A   1     -12.219   7.263 130.853  0.00  0.00    +0.015 A 
ATOM     17  C   LIG A   1     -12.889   8.356 130.295  0.00  0.00    +0.046 A 
BRANCH  12  18
ATOM     18  O   LIG A   1     -13.076  10.020 128.641  0.00  0.00    -0.507 OA
ATOM     19  H   LIG A   1     -12.685  10.264 127.787  0.00  0.00    +0.292 HD
ENDBRANCH  12  18
ENDBRANCH   1  15
BRANCH   5  20
ATOM     20  O   LIG A   1      -7.960   1.852 133.356  0.00  0.00    -0.503 OA
ATOM     21  H   LIG A   1      -8.565   2.361 133.945  0.00  0.00    +0.292 HD
ENDBRANCH   5  20
BRANCH   6  22
ATOM     22  O   LIG A   1      -7.316   0.051 131.549  0.00  0.00    -0.501 OA
ATOM     23  H   LIG A   1      -6.400   0.348 131.725  0.00  0.00    +0.292 HD
ENDBRANCH   6  22
BRANCH   7  24
ATOM     24  O   LIG A   1      -8.030   0.543 128.686  0.00  0.00    -0.491 OA
ATOM     25  C   LIG A   1      -8.324   1.028 127.382  0.00  0.00    +0.277 C 
ENDBRANCH   7  24
TORSDOF 5
ENDMDL
MODEL 7
REMARK VINA RESULT:      -6.8      3.233      6.979
REMARK  Name = NuBBE_126
REMARK  6 active torsions:
REMARK  status: ('A' for Active; 'I' for Inactive)
REMARK    1  A    between atoms: O_1  and  C_2
REMARK    2  A    between atoms: C_5  and  C_6
REMARK    3  A    between atoms: C_10  and  O_11
REMARK    4  A    between atoms: C_12  and  O_13
REMARK    5  A    between atoms: C_14  and  O_15
REMARK    6  A    between atoms: O_15  and  C_16
REMARK                            x       y       z     vdW  Elec       q    Type
REMARK                         _______ _______ _______ _____ _____    ______ ____
ROOT
ATOM      1  C   LIG A   1      -9.773   5.840 131.369  0.00  0.00    +0.139 A 
ATOM      2  O   LIG A   1      -9.949   4.509 131.005  0.00  0.00    -0.454 OA
ATOM      3  C   LIG A   1      -9.236   3.544 131.671  0.00  0.00    +0.146 A 
ATOM      4  C   LIG A   1      -8.338   3.838 132.689  0.00  0.00    +0.109 A 
ATOM      5  C   LIG A   1      -7.644   2.809 133.324  0.00  0.00    +0.177 A 
ATOM      6  C   LIG A   1      -7.849   1.478 132.941  0.00  0.00    +0.202 A 
ATOM      7  C   LIG A   1      -8.750   1.165 131.919  0.00  0.00    +0.169 A 
ATOM      8  C   LIG A   1      -9.441   2.215 131.290  0.00  0.00    +0.096 A 
ATOM      9  C   LIG A   1      -8.945   6.240 132.348  0.00  0.00    +0.098 A 
ATOM     10  C   LIG A   1      -8.151   5.239 133.071  0.00  0.00    +0.197 A 
ATOM     11  O   LIG A   1      -7.366   5.552 133.957  0.00  0.00    -0.287 OA
ENDROOT
BRANCH   1  15
ATOM     12  C   LIG A   1     -12.199   8.620 129.174  0.00  0.00    +0.117 A 
ATOM     13  C   LIG A   1     -12.729   7.957 130.275  0.00  0.00    +0.046 A 
ATOM     14  C   LIG A   1     -11.931   7.052 130.984  0.00  0.00    +0.015 A 
ATOM     15  C   LIG A   1     -10.601   6.802 130.603  0.00  0.00    +0.018 A 
ATOM     16  C   LIG A   1     -10.100   7.475 129.475  0.00  0.00    +0.015 A 
ATOM     17  C   LIG A   1     -10.893   8.384 128.769  0.00  0.00    +0.046 A 
BRANCH  12  18
ATOM     18  O   LIG A   1     -12.935   9.514 128.456  0.00  0.00    -0.507 OA
ATOM     19  H   LIG A   1     -13.573   9.941 129.050  0.00  0.00    +0.292 HD
ENDBRANCH  12  18
ENDBRANCH   1  15
BRANCH   5  20
ATOM     20  O   LIG A   1      -6.737   3.024 134.337  0.00  0.00    -0.503 OA
ATOM     21  H   LIG A   1      -7.245   3.282 135.142  0.00  0.00    +0.292 HD
ENDBRANCH   5  20
BRANCH   6  22
ATOM     22  O   LIG A   1      -7.132   0.525 133.616  0.00  0.00    -0.501 OA
ATOM     23  H   LIG A   1      -7.747   0.181 134.297  0.00  0.00    +0.292 HD
ENDBRANCH   6  22
BRANCH   7  24
ATOM     24  O   LIG A   1      -9.073  -0.066 131.418  0.00  0.00    -0.491 OA
ATOM     25  C   LIG A   1      -8.124  -0.716 130.583  0.00  0.00    +0.277 C 
ENDBRANCH   7  24
TORSDOF 5
ENDMDL
MODEL 8
REMARK VINA RESULT:      -6.8      9.232     10.396
REMARK  Name = NuBBE_126
REMARK  6 active torsions:
REMARK  status: ('A' for Active; 'I' for Inactive)
REMARK    1  A    between atoms: O_1  and  C_2
REMARK    2  A    between atoms: C_5  and  C_6
REMARK    3  A    between atoms: C_10  and  O_11
REMARK    4  A    between atoms: C_12  and  O_13
REMARK    5  A    between atoms: C_14  and  O_15
REMARK    6  A    between atoms: O_15  and  C_16
REMARK                            x       y       z     vdW  Elec       q    Type
REMARK                         _______ _______ _______ _____ _____    ______ ____
ROOT
ATOM      1  C   LIG A   1      -7.272   1.074 123.853  0.00  0.00    +0.139 A 
ATOM      2  O   LIG A   1      -6.791   0.687 125.099  0.00  0.00    -0.454 OA
ATOM      3  C   LIG A   1      -7.366  -0.394 125.720  0.00  0.00    +0.146 A 
ATOM      4  C   LIG A   1      -8.415  -1.114 125.162  0.00  0.00    +0.109 A 
ATOM      5  C   LIG A   1      -8.955  -2.201 125.848  0.00  0.00    +0.177 A 
ATOM      6  C   LIG A   1      -8.444  -2.573 127.097  0.00  0.00    +0.202 A 
ATOM      7  C   LIG A   1      -7.389  -1.859 127.672  0.00  0.00    +0.169 A 
ATOM      8  C   LIG A   1      -6.856  -0.766 126.968  0.00  0.00    +0.096 A 
ATOM      9  C   LIG A   1      -8.269   0.444 123.211  0.00  0.00    +0.098 A 
ATOM     10  C   LIG A   1      -8.922  -0.705 123.852  0.00  0.00    +0.197 A 
ATOM     11  O   LIG A   1      -9.850  -1.302 123.319  0.00  0.00    -0.287 OA
ENDROOT
BRANCH   1  15
ATOM     12  C   LIG A   1      -5.240   4.460 122.168  0.00  0.00    +0.117 A 
ATOM     13  C   LIG A   1      -5.423   4.376 123.543  0.00  0.00    +0.046 A 
ATOM     14  C   LIG A   1      -6.088   3.269 124.084  0.00  0.00    +0.015 A 
ATOM     15  C   LIG A   1      -6.572   2.238 123.259  0.00  0.00    +0.018 A 
ATOM     16  C   LIG A   1      -6.387   2.361 121.871  0.00  0.00    +0.015 A 
ATOM     17  C   LIG A   1      -5.718   3.463 121.330  0.00  0.00    +0.046 A 
BRANCH  12  18
ATOM     18  O   LIG A   1      -4.594   5.515 121.597  0.00  0.00    -0.507 OA
ATOM     19  H   LIG A   1      -5.208   6.264 121.544  0.00  0.00    +0.292 HD
ENDBRANCH  12  18
ENDBRANCH   1  15
BRANCH   5  20
ATOM     20  O   LIG A   1      -9.996  -2.958 125.359  0.00  0.00    -0.503 OA
ATOM     21  H   LIG A   1     -10.683  -3.013 126.066  0.00  0.00    +0.292 HD
ENDBRANCH   5  20
BRANCH   6  22
ATOM     22  O   LIG A   1      -9.027  -3.654 127.704  0.00  0.00    -0.501 OA
ATOM     23  H   LIG A   1      -8.612  -4.435 127.284  0.00  0.00    +0.292 HD
ENDBRANCH   6  22
BRANCH   7  24
ATOM     24  O   LIG A   1      -6.770  -2.076 128.872  0.00  0.00    -0.491 OA
ATOM     25  C   LIG A   1      -5.556  -2.816 128.873  0.00  0.00    +0.277 C 
ENDBRANCH   7  24
TORSDOF 5
ENDMDL
MODEL 9
REMARK VINA RESULT:      -6.7      1.522      2.438
REMARK  Name = NuBBE_126
REMARK  6 active torsions:
REMARK  status: ('A' for Active; 'I' for Inactive)
REMARK    1  A    between atoms: O_1  and  C_2
REMARK    2  A    between atoms: C_5  and  C_6
REMARK    3  A    between atoms: C_10  and  O_11
REMARK    4  A    between atoms: C_12  and  O_13
REMARK    5  A    between atoms: C_14  and  O_15
REMARK    6  A    between atoms: O_15  and  C_16
REMARK                            x       y       z     vdW  Elec       q    Type
REMARK                         _______ _______ _______ _____ _____    ______ ____
ROOT
ATOM      1  C   LIG A   1      -5.372   5.999 132.737  0.00  0.00    +0.139 A 
ATOM      2  O   LIG A   1      -6.165   6.619 131.777  0.00  0.00    -0.454 OA
ATOM      3  C   LIG A   1      -7.519   6.396 131.797  0.00  0.00    +0.146 A 
ATOM      4  C   LIG A   1      -8.133   5.569 132.730  0.00  0.00    +0.109 A 
ATOM      5  C   LIG A   1      -9.514   5.384 132.693  0.00  0.00    +0.177 A 
ATOM      6  C   LIG A   1     -10.288   6.029 131.720  0.00  0.00    +0.202 A 
ATOM      7  C   LIG A   1      -9.685   6.864 130.776  0.00  0.00    +0.169 A 
ATOM      8  C   LIG A   1      -8.292   7.039 130.826  0.00  0.00    +0.096 A 
ATOM      9  C   LIG A   1      -5.857   5.193 133.695  0.00  0.00    +0.098 A 
ATOM     10  C   LIG A   1      -7.298   4.915 133.738  0.00  0.00    +0.197 A 
ATOM     11  O   LIG A   1      -7.788   4.171 134.579  0.00  0.00    -0.287 OA
ENDROOT
BRANCH   1  15
ATOM     12  C   LIG A   1      -1.189   6.911 132.423  0.00  0.00    +0.117 A 
ATOM     13  C   LIG A   1      -1.820   6.198 131.411  0.00  0.00    +0.046 A 
ATOM     14  C   LIG A   1      -3.183   5.904 131.522  0.00  0.00    +0.015 A 
ATOM     15  C   LIG A   1      -3.928   6.319 132.640  0.00  0.00    +0.018 A 
ATOM     16  C   LIG A   1      -3.256   7.022 133.655  0.00  0.00    +0.015 A 
ATOM     17  C   LIG A   1      -1.895   7.322 133.543  0.00  0.00    +0.046 A 
BRANCH  12  18
ATOM     18  O   LIG A   1       0.136   7.225 132.357  0.00  0.00    -0.507 OA
ATOM     19  H   LIG A   1       0.435   7.502 133.237  0.00  0.00    +0.292 HD
ENDBRANCH  12  18
ENDBRANCH   1  15
BRANCH   5  20
ATOM     20  O   LIG A   1     -10.190   4.578 133.581  0.00  0.00    -0.503 OA
ATOM     21  H   LIG A   1     -11.049   5.018 133.789  0.00  0.00    +0.292 HD
ENDBRANCH   5  20
BRANCH   6  22
ATOM     22  O   LIG A   1     -11.638   5.798 131.754  0.00  0.00    -0.501 OA
ATOM     23  H   LIG A   1     -12.041   6.675 131.920  0.00  0.00    +0.292 HD
ENDBRANCH   6  22
BRANCH   7  24
ATOM     24  O   LIG A   1     -10.278   7.567 129.762  0.00  0.00    -0.491 OA
ATOM     25  C   LIG A   1     -10.410   6.931 128.498  0.00  0.00    +0.277 C 
ENDBRANCH   7  24
TORSDOF 5
ENDMDL
