MODEL 1
REMARK VINA RESULT:      -8.0      0.000      0.000
REMARK  Name = NuBBE_1484
REMARK  4 active torsions:
REMARK  status: ('A' for Active; 'I' for Inactive)
REMARK    1  A    between atoms: C_1  and  C_2
REMARK    2  A    between atoms: C_2  and  C_3
REMARK    3  A    between atoms: C_7  and  O_20
REMARK    4  A    between atoms: N_10  and  C_19
REMARK                            x       y       z     vdW  Elec       q    Type
REMARK                         _______ _______ _______ _____ _____    ______ ____
ROOT
ATOM      1  C   LIG A   1      -2.206   3.051 126.251  0.00  0.00    +0.060 C 
ATOM      2  C   LIG A   1      -3.258   3.661 127.193  0.00  0.00    +0.123 C 
ATOM      3  C   LIG A   1      -2.572   4.689 128.100  0.00  0.00    +0.060 C 
ATOM      4  O   LIG A   1      -4.239   4.388 126.411  0.00  0.00    -0.481 OA
ATOM      5  C   LIG A   1      -5.147   3.580 125.760  0.00  0.00    +0.134 A 
ATOM      6  C   LIG A   1      -5.707   4.100 124.606  0.00  0.00    +0.092 A 
ATOM      7  C   LIG A   1      -6.586   3.314 123.873  0.00  0.00    +0.133 A 
ATOM      8  C   LIG A   1      -6.865   1.987 124.264  0.00  0.00    +0.088 A 
ATOM      9  C   LIG A   1      -6.239   1.411 125.404  0.00  0.00    +0.067 A 
ATOM     10  N   LIG A   1      -6.388   0.015 125.644  0.00  0.00    -0.342 N 
ATOM     11  C   LIG A   1      -7.253  -0.813 124.881  0.00  0.00    +0.053 A 
ATOM     12  C   LIG A   1      -7.417  -2.191 125.125  0.00  0.00    +0.026 A 
ATOM     13  C   LIG A   1      -8.288  -2.979 124.362  0.00  0.00    +0.002 A 
ATOM     14  C   LIG A   1      -9.041  -2.402 123.348  0.00  0.00    +0.001 A 
ATOM     15  C   LIG A   1      -8.904  -1.044 123.087  0.00  0.00    +0.014 A 
ATOM     16  C   LIG A   1      -8.008  -0.263 123.840  0.00  0.00    +0.046 A 
ATOM     17  C   LIG A   1      -7.844   1.164 123.495  0.00  0.00    +0.201 A 
ATOM     18  O   LIG A   1      -8.538   1.624 122.600  0.00  0.00    -0.286 OA
ATOM     19  C   LIG A   1      -5.346  -0.710 126.389  0.00  0.00    +0.149 C 
ATOM     20  C   LIG A   1      -5.474   2.286 126.219  0.00  0.00    +0.041 A 
ATOM     21  C   LIG A   1      -5.029   1.984 127.588  0.00  0.00    +0.013 C 
ATOM     22  C   LIG A   1      -3.938   2.613 128.041  0.00  0.00    +0.020 C 
ENDROOT
BRANCH   7  23
ATOM     23  O   LIG A   1      -7.126   3.849 122.736  0.00  0.00    -0.506 OA
ATOM     24  H   LIG A   1      -6.999   4.810 122.717  0.00  0.00    +0.292 HD
ENDBRANCH   7  23
TORSDOF 1
ENDMDL
MODEL 2
REMARK VINA RESULT:      -7.9      1.583      6.114
REMARK  Name = NuBBE_1484
REMARK  4 active torsions:
REMARK  status: ('A' for Active; 'I' for Inactive)
REMARK    1  A    between atoms: C_1  and  C_2
REMARK    2  A    between atoms: C_2  and  C_3
REMARK    3  A    between atoms: C_7  and  O_20
REMARK    4  A    between atoms: N_10  and  C_19
REMARK                            x       y       z     vdW  Elec       q    Type
REMARK                         _______ _______ _______ _____ _____    ______ ____
ROOT
ATOM      1  C   LIG A   1      -9.203  -2.292 125.754  0.00  0.00    +0.060 C 
ATOM      2  C   LIG A   1      -8.842  -2.099 124.271  0.00  0.00    +0.123 C 
ATOM      3  C   LIG A   1      -9.528  -3.196 123.449  0.00  0.00    +0.060 C 
ATOM      4  O   LIG A   1      -9.380  -0.835 123.806  0.00  0.00    -0.481 OA
ATOM      5  C   LIG A   1      -8.666   0.266 124.226  0.00  0.00    +0.134 A 
ATOM      6  C   LIG A   1      -9.377   1.450 124.330  0.00  0.00    +0.092 A 
ATOM      7  C   LIG A   1      -8.728   2.583 124.801  0.00  0.00    +0.133 A 
ATOM      8  C   LIG A   1      -7.381   2.522 125.220  0.00  0.00    +0.088 A 
ATOM      9  C   LIG A   1      -6.660   1.297 125.192  0.00  0.00    +0.067 A 
ATOM     10  N   LIG A   1      -5.379   1.235 125.813  0.00  0.00    -0.342 N 
ATOM     11  C   LIG A   1      -4.715   2.377 126.334  0.00  0.00    +0.053 A 
ATOM     12  C   LIG A   1      -3.441   2.324 126.933  0.00  0.00    +0.026 A 
ATOM     13  C   LIG A   1      -2.807   3.470 127.428  0.00  0.00    +0.002 A 
ATOM     14  C   LIG A   1      -3.422   4.710 127.312  0.00  0.00    +0.001 A 
ATOM     15  C   LIG A   1      -4.678   4.794 126.723  0.00  0.00    +0.014 A 
ATOM     16  C   LIG A   1      -5.320   3.636 126.251  0.00  0.00    +0.046 A 
ATOM     17  C   LIG A   1      -6.680   3.754 125.684  0.00  0.00    +0.201 A 
ATOM     18  O   LIG A   1      -7.172   4.870 125.597  0.00  0.00    -0.286 OA
ATOM     19  C   LIG A   1      -4.883  -0.051 126.329  0.00  0.00    +0.149 C 
ATOM     20  C   LIG A   1      -7.296   0.198 124.559  0.00  0.00    +0.041 A 
ATOM     21  C   LIG A   1      -6.617  -1.035 124.133  0.00  0.00    +0.013 C 
ATOM     22  C   LIG A   1      -7.351  -2.149 124.037  0.00  0.00    +0.020 C 
ENDROOT
BRANCH   7  23
ATOM     23  O   LIG A   1      -9.450   3.740 124.895  0.00  0.00    -0.506 OA
ATOM     24  H   LIG A   1      -9.042   4.442 124.365  0.00  0.00    +0.292 HD
ENDBRANCH   7  23
TORSDOF 1
ENDMDL
MODEL 3
REMARK VINA RESULT:      -7.8      3.291      5.735
REMARK  Name = NuBBE_1484
REMARK  4 active torsions:
REMARK  status: ('A' for Active; 'I' for Inactive)
REMARK    1  A    between atoms: C_1  and  C_2
REMARK    2  A    between atoms: C_2  and  C_3
REMARK    3  A    between atoms: C_7  and  O_20
REMARK    4  A    between atoms: N_10  and  C_19
REMARK                            x       y       z     vdW  Elec       q    Type
REMARK                         _______ _______ _______ _____ _____    ______ ____
ROOT
ATOM      1  C   LIG A   1      -7.445  -2.024 130.879  0.00  0.00    +0.060 C 
ATOM      2  C   LIG A   1      -6.528  -3.008 130.131  0.00  0.00    +0.123 C 
ATOM      3  C   LIG A   1      -6.041  -4.076 131.115  0.00  0.00    +0.060 C 
ATOM      4  O   LIG A   1      -7.296  -3.701 129.113  0.00  0.00    -0.481 OA
ATOM      5  C   LIG A   1      -7.559  -2.940 127.994  0.00  0.00    +0.134 A 
ATOM      6  C   LIG A   1      -8.698  -3.277 127.284  0.00  0.00    +0.092 A 
ATOM      7  C   LIG A   1      -9.050  -2.513 126.178  0.00  0.00    +0.133 A 
ATOM      8  C   LIG A   1      -8.292  -1.380 125.814  0.00  0.00    +0.088 A 
ATOM      9  C   LIG A   1      -7.164  -0.975 126.579  0.00  0.00    +0.067 A 
ATOM     10  N   LIG A   1      -6.555   0.282 126.301  0.00  0.00    -0.342 N 
ATOM     11  C   LIG A   1      -6.926   1.095 125.197  0.00  0.00    +0.053 A 
ATOM     12  C   LIG A   1      -6.315   2.331 124.908  0.00  0.00    +0.026 A 
ATOM     13  C   LIG A   1      -6.696   3.105 123.804  0.00  0.00    +0.002 A 
ATOM     14  C   LIG A   1      -7.684   2.648 122.942  0.00  0.00    +0.001 A 
ATOM     15  C   LIG A   1      -8.302   1.430 123.200  0.00  0.00    +0.014 A 
ATOM     16  C   LIG A   1      -7.933   0.670 124.324  0.00  0.00    +0.046 A 
ATOM     17  C   LIG A   1      -8.652  -0.591 124.600  0.00  0.00    +0.201 A 
ATOM     18  O   LIG A   1      -9.507  -0.952 123.804  0.00  0.00    -0.286 OA
ATOM     19  C   LIG A   1      -5.833   0.992 127.369  0.00  0.00    +0.149 C 
ATOM     20  C   LIG A   1      -6.737  -1.862 127.602  0.00  0.00    +0.041 A 
ATOM     21  C   LIG A   1      -5.430  -1.803 128.273  0.00  0.00    +0.013 C 
ATOM     22  C   LIG A   1      -5.341  -2.315 129.507  0.00  0.00    +0.020 C 
ENDROOT
BRANCH   7  23
ATOM     23  O   LIG A   1     -10.179  -2.864 125.492  0.00  0.00    -0.506 OA
ATOM     24  H   LIG A   1     -10.882  -3.131 126.105  0.00  0.00    +0.292 HD
ENDBRANCH   7  23
TORSDOF 1
ENDMDL
MODEL 4
REMARK VINA RESULT:      -7.7      3.194      5.808
REMARK  Name = NuBBE_1484
REMARK  4 active torsions:
REMARK  status: ('A' for Active; 'I' for Inactive)
REMARK    1  A    between atoms: C_1  and  C_2
REMARK    2  A    between atoms: C_2  and  C_3
REMARK    3  A    between atoms: C_7  and  O_20
REMARK    4  A    between atoms: N_10  and  C_19
REMARK                            x       y       z     vdW  Elec       q    Type
REMARK                         _______ _______ _______ _____ _____    ______ ____
ROOT
ATOM      1  C   LIG A   1      -6.768   1.932 122.874  0.00  0.00    +0.060 C 
ATOM      2  C   LIG A   1      -8.281   2.157 123.036  0.00  0.00    +0.123 C 
ATOM      3  C   LIG A   1      -8.759   3.111 121.937  0.00  0.00    +0.060 C 
ATOM      4  O   LIG A   1      -8.978   0.902 122.827  0.00  0.00    -0.481 OA
ATOM      5  C   LIG A   1      -8.893   0.029 123.891  0.00  0.00    +0.134 A 
ATOM      6  C   LIG A   1      -9.006  -1.316 123.585  0.00  0.00    +0.092 A 
ATOM      7  C   LIG A   1      -8.873  -2.249 124.606  0.00  0.00    +0.133 A 
ATOM      8  C   LIG A   1      -8.573  -1.840 125.923  0.00  0.00    +0.088 A 
ATOM      9  C   LIG A   1      -8.378  -0.468 126.238  0.00  0.00    +0.067 A 
ATOM     10  N   LIG A   1      -7.878  -0.118 127.525  0.00  0.00    -0.342 N 
ATOM     11  C   LIG A   1      -7.699  -1.064 128.569  0.00  0.00    +0.053 A 
ATOM     12  C   LIG A   1      -7.222  -0.720 129.850  0.00  0.00    +0.026 A 
ATOM     13  C   LIG A   1      -7.067  -1.675 130.862  0.00  0.00    +0.002 A 
ATOM     14  C   LIG A   1      -7.414  -3.000 130.629  0.00  0.00    +0.001 A 
ATOM     15  C   LIG A   1      -7.892  -3.368 129.377  0.00  0.00    +0.014 A 
ATOM     16  C   LIG A   1      -8.020  -2.409 128.356  0.00  0.00    +0.046 A 
ATOM     17  C   LIG A   1      -8.475  -2.846 127.020  0.00  0.00    +0.201 A 
ATOM     18  O   LIG A   1      -8.776  -4.022 126.871  0.00  0.00    -0.286 OA
ATOM     19  C   LIG A   1      -7.122   1.133 127.696  0.00  0.00    +0.149 C 
ATOM     20  C   LIG A   1      -8.678   0.469 125.215  0.00  0.00    +0.041 A 
ATOM     21  C   LIG A   1      -8.863   1.913 125.425  0.00  0.00    +0.013 C 
ATOM     22  C   LIG A   1      -8.629   2.728 124.389  0.00  0.00    +0.020 C 
ENDROOT
BRANCH   7  23
ATOM     23  O   LIG A   1      -8.987  -3.572 124.280  0.00  0.00    -0.506 OA
ATOM     24  H   LIG A   1      -9.132  -3.678 123.327  0.00  0.00    +0.292 HD
ENDBRANCH   7  23
TORSDOF 1
ENDMDL
MODEL 5
REMARK VINA RESULT:      -7.5      2.345      2.618
REMARK  Name = NuBBE_1484
REMARK  4 active torsions:
REMARK  status: ('A' for Active; 'I' for Inactive)
REMARK    1  A    between atoms: C_1  and  C_2
REMARK    2  A    between atoms: C_2  and  C_3
REMARK    3  A    between atoms: C_7  and  O_20
REMARK    4  A    between atoms: N_10  and  C_19
REMARK                            x       y       z     vdW  Elec       q    Type
REMARK                         _______ _______ _______ _____ _____    ______ ____
ROOT
ATOM      1  C   LIG A   1      -5.451   3.555 128.833  0.00  0.00    +0.060 C 
ATOM      2  C   LIG A   1      -6.898   3.959 129.165  0.00  0.00    +0.123 C 
ATOM      3  C   LIG A   1      -6.872   5.046 130.244  0.00  0.00    +0.060 C 
ATOM      4  O   LIG A   1      -7.512   4.552 127.993  0.00  0.00    -0.481 OA
ATOM      5  C   LIG A   1      -7.883   3.636 127.031  0.00  0.00    +0.134 A 
ATOM      6  C   LIG A   1      -7.925   4.106 125.729  0.00  0.00    +0.092 A 
ATOM      7  C   LIG A   1      -8.237   3.219 124.706  0.00  0.00    +0.133 A 
ATOM      8  C   LIG A   1      -8.455   1.851 124.978  0.00  0.00    +0.088 A 
ATOM      9  C   LIG A   1      -8.339   1.339 126.299  0.00  0.00    +0.067 A 
ATOM     10  N   LIG A   1      -8.362  -0.071 126.499  0.00  0.00    -0.342 N 
ATOM     11  C   LIG A   1      -8.642  -0.996 125.458  0.00  0.00    +0.053 A 
ATOM     12  C   LIG A   1      -8.683  -2.390 125.654  0.00  0.00    +0.026 A 
ATOM     13  C   LIG A   1      -8.973  -3.276 124.608  0.00  0.00    +0.002 A 
ATOM     14  C   LIG A   1      -9.258  -2.787 123.340  0.00  0.00    +0.001 A 
ATOM     15  C   LIG A   1      -9.229  -1.414 123.118  0.00  0.00    +0.014 A 
ATOM     16  C   LIG A   1      -8.912  -0.532 124.166  0.00  0.00    +0.046 A 
ATOM     17  C   LIG A   1      -8.831   0.915 123.879  0.00  0.00    +0.201 A 
ATOM     18  O   LIG A   1      -9.101   1.294 122.748  0.00  0.00    -0.286 OA
ATOM     19  C   LIG A   1      -7.679  -0.651 127.666  0.00  0.00    +0.149 C 
ATOM     20  C   LIG A   1      -8.179   2.292 127.340  0.00  0.00    +0.041 A 
ATOM     21  C   LIG A   1      -8.369   2.013 128.771  0.00  0.00    +0.013 C 
ATOM     22  C   LIG A   1      -7.718   2.787 129.648  0.00  0.00    +0.020 C 
ENDROOT
BRANCH   7  23
ATOM     23  O   LIG A   1      -8.272   3.705 123.428  0.00  0.00    -0.506 OA
ATOM     24  H   LIG A   1      -9.122   4.137 123.250  0.00  0.00    +0.292 HD
ENDBRANCH   7  23
TORSDOF 1
ENDMDL
MODEL 6
REMARK VINA RESULT:      -7.3      3.525      5.328
REMARK  Name = NuBBE_1484
REMARK  4 active torsions:
REMARK  status: ('A' for Active; 'I' for Inactive)
REMARK    1  A    between atoms: C_1  and  C_2
REMARK    2  A    between atoms: C_2  and  C_3
REMARK    3  A    between atoms: C_7  and  O_20
REMARK    4  A    between atoms: N_10  and  C_19
REMARK                            x       y       z     vdW  Elec       q    Type
REMARK                         _______ _______ _______ _____ _____    ______ ____
ROOT
ATOM      1  C   LIG A   1      -4.915  -3.069 129.323  0.00  0.00    +0.060 C 
ATOM      2  C   LIG A   1      -6.246  -3.175 130.086  0.00  0.00    +0.123 C 
ATOM      3  C   LIG A   1      -6.010  -3.948 131.388  0.00  0.00    +0.060 C 
ATOM      4  O   LIG A   1      -6.689  -1.847 130.467  0.00  0.00    -0.481 OA
ATOM      5  C   LIG A   1      -7.227  -1.117 129.429  0.00  0.00    +0.134 A 
ATOM      6  C   LIG A   1      -7.136   0.260 129.543  0.00  0.00    +0.092 A 
ATOM      7  C   LIG A   1      -7.609   1.051 128.504  0.00  0.00    +0.133 A 
ATOM      8  C   LIG A   1      -8.126   0.466 127.328  0.00  0.00    +0.088 A 
ATOM      9  C   LIG A   1      -8.155  -0.946 127.164  0.00  0.00    +0.067 A 
ATOM     10  N   LIG A   1      -8.490  -1.487 125.890  0.00  0.00    -0.342 N 
ATOM     11  C   LIG A   1      -8.939  -0.690 124.804  0.00  0.00    +0.053 A 
ATOM     12  C   LIG A   1      -9.288  -1.222 123.547  0.00  0.00    +0.026 A 
ATOM     13  C   LIG A   1      -9.740  -0.410 122.499  0.00  0.00    +0.002 A 
ATOM     14  C   LIG A   1      -9.881   0.959 122.690  0.00  0.00    +0.001 A 
ATOM     15  C   LIG A   1      -9.549   1.512 123.921  0.00  0.00    +0.014 A 
ATOM     16  C   LIG A   1      -9.071   0.694 124.961  0.00  0.00    +0.046 A 
ATOM     17  C   LIG A   1      -8.671   1.324 126.236  0.00  0.00    +0.201 A 
ATOM     18  O   LIG A   1      -8.825   2.531 126.356  0.00  0.00    -0.286 OA
ATOM     19  C   LIG A   1      -7.977  -2.812 125.505  0.00  0.00    +0.149 C 
ATOM     20  C   LIG A   1      -7.816  -1.726 128.301  0.00  0.00    +0.041 A 
ATOM     21  C   LIG A   1      -8.096  -3.162 128.448  0.00  0.00    +0.013 C 
ATOM     22  C   LIG A   1      -7.314  -3.867 129.273  0.00  0.00    +0.020 C 
ENDROOT
BRANCH   7  23
ATOM     23  O   LIG A   1      -7.508   2.409 128.638  0.00  0.00    -0.506 OA
ATOM     24  H   LIG A   1      -6.591   2.697 128.508  0.00  0.00    +0.292 HD
ENDBRANCH   7  23
TORSDOF 1
ENDMDL
MODEL 7
REMARK VINA RESULT:      -7.2      2.435      3.668
REMARK  Name = NuBBE_1484
REMARK  4 active torsions:
REMARK  status: ('A' for Active; 'I' for Inactive)
REMARK    1  A    between atoms: C_1  and  C_2
REMARK    2  A    between atoms: C_2  and  C_3
REMARK    3  A    between atoms: C_7  and  O_20
REMARK    4  A    between atoms: N_10  and  C_19
REMARK                            x       y       z     vdW  Elec       q    Type
REMARK                         _______ _______ _______ _____ _____    ______ ____
ROOT
ATOM      1  C   LIG A   1      -4.950   3.519 125.092  0.00  0.00    +0.060 C 
ATOM      2  C   LIG A   1      -6.311   4.169 125.394  0.00  0.00    +0.123 C 
ATOM      3  C   LIG A   1      -6.213   5.673 125.120  0.00  0.00    +0.060 C 
ATOM      4  O   LIG A   1      -7.307   3.645 124.478  0.00  0.00    -0.481 OA
ATOM      5  C   LIG A   1      -7.735   2.370 124.785  0.00  0.00    +0.134 A 
ATOM      6  C   LIG A   1      -8.198   1.613 123.723  0.00  0.00    +0.092 A 
ATOM      7  C   LIG A   1      -8.591   0.301 123.956  0.00  0.00    +0.133 A 
ATOM      8  C   LIG A   1      -8.471  -0.271 125.240  0.00  0.00    +0.088 A 
ATOM      9  C   LIG A   1      -7.924   0.469 126.324  0.00  0.00    +0.067 A 
ATOM     10  N   LIG A   1      -7.630  -0.205 127.544  0.00  0.00    -0.342 N 
ATOM     11  C   LIG A   1      -7.990  -1.557 127.787  0.00  0.00    +0.053 A 
ATOM     12  C   LIG A   1      -7.717  -2.224 128.998  0.00  0.00    +0.026 A 
ATOM     13  C   LIG A   1      -8.095  -3.555 129.211  0.00  0.00    +0.002 A 
ATOM     14  C   LIG A   1      -8.784  -4.250 128.225  0.00  0.00    +0.001 A 
ATOM     15  C   LIG A   1      -9.071  -3.617 127.021  0.00  0.00    +0.014 A 
ATOM     16  C   LIG A   1      -8.666  -2.288 126.804  0.00  0.00    +0.046 A 
ATOM     17  C   LIG A   1      -8.935  -1.667 125.490  0.00  0.00    +0.201 A 
ATOM     18  O   LIG A   1      -9.553  -2.318 124.661  0.00  0.00    -0.286 OA
ATOM     19  C   LIG A   1      -6.573   0.315 128.426  0.00  0.00    +0.149 C 
ATOM     20  C   LIG A   1      -7.683   1.849 126.095  0.00  0.00    +0.041 A 
ATOM     21  C   LIG A   1      -7.442   2.847 127.149  0.00  0.00    +0.013 C 
ATOM     22  C   LIG A   1      -6.745   3.941 126.822  0.00  0.00    +0.020 C 
ENDROOT
BRANCH   7  23
ATOM     23  O   LIG A   1      -9.045  -0.428 122.892  0.00  0.00    -0.506 OA
ATOM     24  H   LIG A   1      -9.892  -0.850 123.103  0.00  0.00    +0.292 HD
ENDBRANCH   7  23
TORSDOF 1
ENDMDL
MODEL 8
REMARK VINA RESULT:      -7.2      3.298      4.047
REMARK  Name = NuBBE_1484
REMARK  4 active torsions:
REMARK  status: ('A' for Active; 'I' for Inactive)
REMARK    1  A    between atoms: C_1  and  C_2
REMARK    2  A    between atoms: C_2  and  C_3
REMARK    3  A    between atoms: C_7  and  O_20
REMARK    4  A    between atoms: N_10  and  C_19
REMARK                            x       y       z     vdW  Elec       q    Type
REMARK                         _______ _______ _______ _____ _____    ______ ____
ROOT
ATOM      1  C   LIG A   1      -6.039   1.555 130.798  0.00  0.00    +0.060 C 
ATOM      2  C   LIG A   1      -7.377   0.816 130.976  0.00  0.00    +0.123 C 
ATOM      3  C   LIG A   1      -7.888   1.056 132.400  0.00  0.00    +0.060 C 
ATOM      4  O   LIG A   1      -8.363   1.387 130.079  0.00  0.00    -0.481 OA
ATOM      5  C   LIG A   1      -8.213   1.004 128.763  0.00  0.00    +0.134 A 
ATOM      6  C   LIG A   1      -8.693   1.889 127.813  0.00  0.00    +0.092 A 
ATOM      7  C   LIG A   1      -8.522   1.588 126.469  0.00  0.00    +0.133 A 
ATOM      8  C   LIG A   1      -7.823   0.427 126.072  0.00  0.00    +0.088 A 
ATOM      9  C   LIG A   1      -7.257  -0.452 127.035  0.00  0.00    +0.067 A 
ATOM     10  N   LIG A   1      -6.389  -1.493 126.596  0.00  0.00    -0.342 N 
ATOM     11  C   LIG A   1      -6.172  -1.792 125.225  0.00  0.00    +0.053 A 
ATOM     12  C   LIG A   1      -5.329  -2.832 124.785  0.00  0.00    +0.026 A 
ATOM     13  C   LIG A   1      -5.144  -3.109 123.425  0.00  0.00    +0.002 A 
ATOM     14  C   LIG A   1      -5.822  -2.369 122.465  0.00  0.00    +0.001 A 
ATOM     15  C   LIG A   1      -6.664  -1.340 122.869  0.00  0.00    +0.014 A 
ATOM     16  C   LIG A   1      -6.825  -1.049 124.236  0.00  0.00    +0.046 A 
ATOM     17  C   LIG A   1      -7.681   0.090 124.626  0.00  0.00    +0.201 A 
ATOM     18  O   LIG A   1      -8.263   0.703 123.742  0.00  0.00    -0.286 OA
ATOM     19  C   LIG A   1      -5.357  -2.012 127.507  0.00  0.00    +0.149 C 
ATOM     20  C   LIG A   1      -7.585  -0.205 128.394  0.00  0.00    +0.041 A 
ATOM     21  C   LIG A   1      -7.388  -1.161 129.494  0.00  0.00    +0.013 C 
ATOM     22  C   LIG A   1      -7.244  -0.667 130.729  0.00  0.00    +0.020 C 
ENDROOT
BRANCH   7  23
ATOM     23  O   LIG A   1      -9.003   2.477 125.548  0.00  0.00    -0.506 OA
ATOM     24  H   LIG A   1      -8.464   2.462 124.743  0.00  0.00    +0.292 HD
ENDBRANCH   7  23
TORSDOF 1
ENDMDL
MODEL 9
REMARK VINA RESULT:      -7.2      2.048      2.548
REMARK  Name = NuBBE_1484
REMARK  4 active torsions:
REMARK  status: ('A' for Active; 'I' for Inactive)
REMARK    1  A    between atoms: C_1  and  C_2
REMARK    2  A    between atoms: C_2  and  C_3
REMARK    3  A    between atoms: C_7  and  O_20
REMARK    4  A    between atoms: N_10  and  C_19
REMARK                            x       y       z     vdW  Elec       q    Type
REMARK                         _______ _______ _______ _____ _____    ______ ____
ROOT
ATOM      1  C   LIG A   1      -2.718   3.061 127.148  0.00  0.00    +0.060 C 
ATOM      2  C   LIG A   1      -3.897   3.994 127.475  0.00  0.00    +0.123 C 
ATOM      3  C   LIG A   1      -3.364   5.418 127.660  0.00  0.00    +0.060 C 
ATOM      4  O   LIG A   1      -4.805   4.035 126.344  0.00  0.00    -0.481 OA
ATOM      5  C   LIG A   1      -5.597   2.913 126.220  0.00  0.00    +0.134 A 
ATOM      6  C   LIG A   1      -6.034   2.615 124.941  0.00  0.00    +0.092 A 
ATOM      7  C   LIG A   1      -6.789   1.467 124.740  0.00  0.00    +0.133 A 
ATOM      8  C   LIG A   1      -7.064   0.588 125.810  0.00  0.00    +0.088 A 
ATOM      9  C   LIG A   1      -6.558   0.840 127.114  0.00  0.00    +0.067 A 
ATOM     10  N   LIG A   1      -6.682  -0.170 128.111  0.00  0.00    -0.342 N 
ATOM     11  C   LIG A   1      -7.418  -1.367 127.913  0.00  0.00    +0.053 A 
ATOM     12  C   LIG A   1      -7.559  -2.361 128.901  0.00  0.00    +0.026 A 
ATOM     13  C   LIG A   1      -8.302  -3.527 128.678  0.00  0.00    +0.002 A 
ATOM     14  C   LIG A   1      -8.950  -3.718 127.465  0.00  0.00    +0.001 A 
ATOM     15  C   LIG A   1      -8.833  -2.753 126.471  0.00  0.00    +0.014 A 
ATOM     16  C   LIG A   1      -8.063  -1.596 126.692  0.00  0.00    +0.046 A 
ATOM     17  C   LIG A   1      -7.912  -0.620 125.594  0.00  0.00    +0.201 A 
ATOM     18  O   LIG A   1      -8.511  -0.832 124.549  0.00  0.00    -0.286 OA
ATOM     19  C   LIG A   1      -5.711  -0.224 129.216  0.00  0.00    +0.149 C 
ATOM     20  C   LIG A   1      -5.929   2.096 127.322  0.00  0.00    +0.041 A 
ATOM     21  C   LIG A   1      -5.640   2.684 128.638  0.00  0.00    +0.013 C 
ATOM     22  C   LIG A   1      -4.635   3.563 128.720  0.00  0.00    +0.020 C 
ENDROOT
BRANCH   7  23
ATOM     23  O   LIG A   1      -7.209   1.193 123.468  0.00  0.00    -0.506 OA
ATOM     24  H   LIG A   1      -6.586   1.552 122.818  0.00  0.00    +0.292 HD
ENDBRANCH   7  23
TORSDOF 1
ENDMDL
