MODEL 1
REMARK VINA RESULT:      -7.3      0.000      0.000
REMARK  Name = NuBBE_1216
REMARK  11 active torsions:
REMARK  status: ('A' for Active; 'I' for Inactive)
REMARK    1  A    between atoms: C_4  and  C_20
REMARK    2  A    between atoms: C_8  and  O_9
REMARK    3  A    between atoms: O_9  and  C_10
REMARK    4  A    between atoms: C_11  and  O_12
REMARK    5  A    between atoms: O_12  and  C_13
REMARK    6  A    between atoms: C_14  and  O_15
REMARK    7  A    between atoms: O_15  and  C_16
REMARK    8  A    between atoms: C_17  and  O_18
REMARK    9  A    between atoms: O_18  and  C_19
REMARK   10  A    between atoms: C_23  and  O_26
REMARK   11  A    between atoms: O_26  and  C_27
REMARK                            x       y       z     vdW  Elec       q    Type
REMARK                         _______ _______ _______ _____ _____    ______ ____
ROOT
ATOM      1  O   LIG A   1     -10.584   0.894 124.651  0.00  0.00    -0.287 OA
ATOM      2  C   LIG A   1      -9.348   0.995 124.337  0.00  0.00    +0.197 A 
ATOM      3  C   LIG A   1      -8.940   1.875 123.255  0.00  0.00    +0.098 A 
ATOM      4  C   LIG A   1      -7.693   2.373 123.338  0.00  0.00    +0.139 A 
ATOM      5  O   LIG A   1      -6.878   2.139 124.445  0.00  0.00    -0.451 OA
ATOM      6  C   LIG A   1      -7.082   0.987 125.181  0.00  0.00    +0.188 A 
ATOM      7  C   LIG A   1      -8.293   0.282 125.054  0.00  0.00    +0.113 A 
ATOM      8  C   LIG A   1      -8.448  -1.020 125.566  0.00  0.00    +0.180 A 
ATOM      9  C   LIG A   1      -7.363  -1.542 126.332  0.00  0.00    +0.208 A 
ATOM     10  C   LIG A   1      -6.184  -0.747 126.619  0.00  0.00    +0.211 A 
ATOM     11  C   LIG A   1      -6.046   0.532 126.029  0.00  0.00    +0.209 A 
ENDROOT
BRANCH   4  12
ATOM     12  C   LIG A   1      -7.058   3.226 122.281  0.00  0.00    +0.018 A 
ATOM     13  C   LIG A   1      -7.637   3.495 121.029  0.00  0.00    +0.015 A 
ATOM     14  C   LIG A   1      -6.961   4.259 120.063  0.00  0.00    +0.046 A 
ATOM     15  C   LIG A   1      -5.679   4.749 120.313  0.00  0.00    +0.120 A 
ATOM     16  C   LIG A   1      -5.101   4.517 121.554  0.00  0.00    +0.046 A 
ATOM     17  C   LIG A   1      -5.783   3.771 122.522  0.00  0.00    +0.015 A 
BRANCH  15  18
ATOM     18  O   LIG A   1      -5.095   5.470 119.307  0.00  0.00    -0.495 OA
ATOM     19  C   LIG A   1      -5.958   5.788 118.217  0.00  0.00    +0.277 C 
ENDBRANCH  15  18
ENDBRANCH   4  12
BRANCH   8  20
ATOM     20  O   LIG A   1      -9.479  -1.716 124.965  0.00  0.00    -0.490 OA
ATOM     21  C   LIG A   1      -9.299  -2.784 124.028  0.00  0.00    +0.277 C 
ENDBRANCH   8  20
BRANCH   9  22
ATOM     22  O   LIG A   1      -7.242  -2.815 126.864  0.00  0.00    -0.488 OA
ATOM     23  C   LIG A   1      -8.248  -3.210 127.760  0.00  0.00    +0.277 C 
ENDBRANCH   9  22
BRANCH  10  24
ATOM     24  O   LIG A   1      -5.384  -1.278 127.625  0.00  0.00    -0.488 OA
ATOM     25  C   LIG A   1      -5.404  -0.779 128.968  0.00  0.00    +0.277 C 
ENDBRANCH  10  24
BRANCH  11  26
ATOM     26  O   LIG A   1      -5.056   1.483 126.201  0.00  0.00    -0.488 OA
ATOM     27  C   LIG A   1      -5.208   2.345 127.302  0.00  0.00    +0.277 C 
ENDBRANCH  11  26
TORSDOF 6
ENDMDL
MODEL 2
REMARK VINA RESULT:      -6.8      6.695      8.388
REMARK  Name = NuBBE_1216
REMARK  11 active torsions:
REMARK  status: ('A' for Active; 'I' for Inactive)
REMARK    1  A    between atoms: C_4  and  C_20
REMARK    2  A    between atoms: C_8  and  O_9
REMARK    3  A    between atoms: O_9  and  C_10
REMARK    4  A    between atoms: C_11  and  O_12
REMARK    5  A    between atoms: O_12  and  C_13
REMARK    6  A    between atoms: C_14  and  O_15
REMARK    7  A    between atoms: O_15  and  C_16
REMARK    8  A    between atoms: C_17  and  O_18
REMARK    9  A    between atoms: O_18  and  C_19
REMARK   10  A    between atoms: C_23  and  O_26
REMARK   11  A    between atoms: O_26  and  C_27
REMARK                            x       y       z     vdW  Elec       q    Type
REMARK                         _______ _______ _______ _____ _____    ______ ____
ROOT
ATOM      1  O   LIG A   1     -10.080   2.226 131.503  0.00  0.00    -0.287 OA
ATOM      2  C   LIG A   1      -9.752   3.251 130.811  0.00  0.00    +0.197 A 
ATOM      3  C   LIG A   1     -10.732   4.289 130.536  0.00  0.00    +0.098 A 
ATOM      4  C   LIG A   1     -10.241   5.525 130.337  0.00  0.00    +0.139 A 
ATOM      5  O   LIG A   1      -8.884   5.812 130.484  0.00  0.00    -0.451 OA
ATOM      6  C   LIG A   1      -7.970   4.795 130.277  0.00  0.00    +0.188 A 
ATOM      7  C   LIG A   1      -8.398   3.456 130.299  0.00  0.00    +0.113 A 
ATOM      8  C   LIG A   1      -7.578   2.408 129.838  0.00  0.00    +0.180 A 
ATOM      9  C   LIG A   1      -6.245   2.755 129.467  0.00  0.00    +0.208 A 
ATOM     10  C   LIG A   1      -5.741   4.107 129.614  0.00  0.00    +0.211 A 
ATOM     11  C   LIG A   1      -6.621   5.138 130.022  0.00  0.00    +0.209 A 
ENDROOT
BRANCH   4  12
ATOM     12  C   LIG A   1     -11.078   6.710 129.956  0.00  0.00    +0.018 A 
ATOM     13  C   LIG A   1     -10.854   7.501 128.816  0.00  0.00    +0.015 A 
ATOM     14  C   LIG A   1     -11.645   8.631 128.547  0.00  0.00    +0.046 A 
ATOM     15  C   LIG A   1     -12.658   9.015 129.425  0.00  0.00    +0.120 A 
ATOM     16  C   LIG A   1     -12.912   8.231 130.542  0.00  0.00    +0.046 A 
ATOM     17  C   LIG A   1     -12.136   7.096 130.800  0.00  0.00    +0.015 A 
BRANCH  15  18
ATOM     18  O   LIG A   1     -13.365  10.137 129.087  0.00  0.00    -0.495 OA
ATOM     19  C   LIG A   1     -13.500  11.098 130.132  0.00  0.00    +0.277 C 
ENDBRANCH  15  18
ENDBRANCH   4  12
BRANCH   8  20
ATOM     20  O   LIG A   1      -8.292   1.277 129.495  0.00  0.00    -0.490 OA
ATOM     21  C   LIG A   1      -7.962  -0.050 129.919  0.00  0.00    +0.277 C 
ENDBRANCH   8  20
BRANCH   9  22
ATOM     22  O   LIG A   1      -5.284   1.929 128.909  0.00  0.00    -0.488 OA
ATOM     23  C   LIG A   1      -5.469   1.585 127.560  0.00  0.00    +0.277 C 
ENDBRANCH   9  22
BRANCH  10  24
ATOM     24  O   LIG A   1      -4.358   4.202 129.515  0.00  0.00    -0.488 OA
ATOM     25  C   LIG A   1      -3.711   5.015 128.528  0.00  0.00    +0.277 C 
ENDBRANCH  10  24
BRANCH  11  26
ATOM     26  O   LIG A   1      -6.361   6.469 130.288  0.00  0.00    -0.488 OA
ATOM     27  C   LIG A   1      -5.583   6.733 131.430  0.00  0.00    +0.277 C 
ENDBRANCH  11  26
TORSDOF 6
ENDMDL
MODEL 3
REMARK VINA RESULT:      -6.7      6.398      8.161
REMARK  Name = NuBBE_1216
REMARK  11 active torsions:
REMARK  status: ('A' for Active; 'I' for Inactive)
REMARK    1  A    between atoms: C_4  and  C_20
REMARK    2  A    between atoms: C_8  and  O_9
REMARK    3  A    between atoms: O_9  and  C_10
REMARK    4  A    between atoms: C_11  and  O_12
REMARK    5  A    between atoms: O_12  and  C_13
REMARK    6  A    between atoms: C_14  and  O_15
REMARK    7  A    between atoms: O_15  and  C_16
REMARK    8  A    between atoms: C_17  and  O_18
REMARK    9  A    between atoms: O_18  and  C_19
REMARK   10  A    between atoms: C_23  and  O_26
REMARK   11  A    between atoms: O_26  and  C_27
REMARK                            x       y       z     vdW  Elec       q    Type
REMARK                         _______ _______ _______ _____ _____    ______ ____
ROOT
ATOM      1  O   LIG A   1      -7.850   4.362 132.823  0.00  0.00    -0.287 OA
ATOM      2  C   LIG A   1      -8.385   4.515 131.670  0.00  0.00    +0.197 A 
ATOM      3  C   LIG A   1      -9.408   5.529 131.469  0.00  0.00    +0.098 A 
ATOM      4  C   LIG A   1      -9.508   6.026 130.224  0.00  0.00    +0.139 A 
ATOM      5  O   LIG A   1      -8.621   5.663 129.211  0.00  0.00    -0.451 OA
ATOM      6  C   LIG A   1      -8.010   4.425 129.284  0.00  0.00    +0.188 A 
ATOM      7  C   LIG A   1      -7.984   3.729 130.505  0.00  0.00    +0.113 A 
ATOM      8  C   LIG A   1      -7.619   2.371 130.577  0.00  0.00    +0.180 A 
ATOM      9  C   LIG A   1      -7.152   1.769 129.370  0.00  0.00    +0.208 A 
ATOM     10  C   LIG A   1      -7.004   2.534 128.146  0.00  0.00    +0.211 A 
ATOM     11  C   LIG A   1      -7.445   3.878 128.108  0.00  0.00    +0.209 A 
ENDROOT
BRANCH   4  12
ATOM     12  C   LIG A   1     -10.554   7.012 129.795  0.00  0.00    +0.018 A 
ATOM     13  C   LIG A   1     -10.447   7.833 128.660  0.00  0.00    +0.015 A 
ATOM     14  C   LIG A   1     -11.442   8.775 128.346  0.00  0.00    +0.046 A 
ATOM     15  C   LIG A   1     -12.552   8.940 129.174  0.00  0.00    +0.120 A 
ATOM     16  C   LIG A   1     -12.689   8.119 130.285  0.00  0.00    +0.046 A 
ATOM     17  C   LIG A   1     -11.707   7.169 130.587  0.00  0.00    +0.015 A 
BRANCH  15  18
ATOM     18  O   LIG A   1     -13.459   9.891 128.795  0.00  0.00    -0.495 OA
ATOM     19  C   LIG A   1     -13.606  10.977 129.708  0.00  0.00    +0.277 C 
ENDBRANCH  15  18
ENDBRANCH   4  12
BRANCH   8  20
ATOM     20  O   LIG A   1      -8.089   1.746 131.715  0.00  0.00    -0.490 OA
ATOM     21  C   LIG A   1      -9.228   0.880 131.753  0.00  0.00    +0.277 C 
ENDBRANCH   8  20
BRANCH   9  22
ATOM     22  O   LIG A   1      -6.818   0.441 129.165  0.00  0.00    -0.488 OA
ATOM     23  C   LIG A   1      -5.794  -0.073 129.977  0.00  0.00    +0.277 C 
ENDBRANCH   9  22
BRANCH  10  24
ATOM     24  O   LIG A   1      -6.250   1.890 127.173  0.00  0.00    -0.488 OA
ATOM     25  C   LIG A   1      -4.879   2.219 126.918  0.00  0.00    +0.277 C 
ENDBRANCH  10  24
BRANCH  11  26
ATOM     26  O   LIG A   1      -7.352   4.810 127.090  0.00  0.00    -0.488 OA
ATOM     27  C   LIG A   1      -8.029   4.497 125.898  0.00  0.00    +0.277 C 
ENDBRANCH  11  26
TORSDOF 6
ENDMDL
MODEL 4
REMARK VINA RESULT:      -6.7      1.867      2.714
REMARK  Name = NuBBE_1216
REMARK  11 active torsions:
REMARK  status: ('A' for Active; 'I' for Inactive)
REMARK    1  A    between atoms: C_4  and  C_20
REMARK    2  A    between atoms: C_8  and  O_9
REMARK    3  A    between atoms: O_9  and  C_10
REMARK    4  A    between atoms: C_11  and  O_12
REMARK    5  A    between atoms: O_12  and  C_13
REMARK    6  A    between atoms: C_14  and  O_15
REMARK    7  A    between atoms: O_15  and  C_16
REMARK    8  A    between atoms: C_17  and  O_18
REMARK    9  A    between atoms: O_18  and  C_19
REMARK   10  A    between atoms: C_23  and  O_26
REMARK   11  A    between atoms: O_26  and  C_27
REMARK                            x       y       z     vdW  Elec       q    Type
REMARK                         _______ _______ _______ _____ _____    ______ ____
ROOT
ATOM      1  O   LIG A   1     -10.147   0.059 125.467  0.00  0.00    -0.287 OA
ATOM      2  C   LIG A   1      -9.127   0.779 125.188  0.00  0.00    +0.197 A 
ATOM      3  C   LIG A   1      -8.914   1.246 123.827  0.00  0.00    +0.098 A 
ATOM      4  C   LIG A   1      -8.225   2.394 123.699  0.00  0.00    +0.139 A 
ATOM      5  O   LIG A   1      -7.825   3.142 124.806  0.00  0.00    -0.451 OA
ATOM      6  C   LIG A   1      -7.621   2.484 126.005  0.00  0.00    +0.188 A 
ATOM      7  C   LIG A   1      -8.159   1.199 126.198  0.00  0.00    +0.113 A 
ATOM      8  C   LIG A   1      -7.764   0.386 127.277  0.00  0.00    +0.180 A 
ATOM      9  C   LIG A   1      -6.889   0.976 128.238  0.00  0.00    +0.208 A 
ATOM     10  C   LIG A   1      -6.475   2.363 128.140  0.00  0.00    +0.211 A 
ATOM     11  C   LIG A   1      -6.846   3.121 127.003  0.00  0.00    +0.209 A 
ENDROOT
BRANCH   4  12
ATOM     12  C   LIG A   1      -7.828   2.992 122.382  0.00  0.00    +0.018 A 
ATOM     13  C   LIG A   1      -6.507   3.310 122.026  0.00  0.00    +0.015 A 
ATOM     14  C   LIG A   1      -6.212   3.920 120.795  0.00  0.00    +0.046 A 
ATOM     15  C   LIG A   1      -7.230   4.253 119.903  0.00  0.00    +0.120 A 
ATOM     16  C   LIG A   1      -8.540   3.923 120.226  0.00  0.00    +0.046 A 
ATOM     17  C   LIG A   1      -8.831   3.299 121.444  0.00  0.00    +0.015 A 
BRANCH  15  18
ATOM     18  O   LIG A   1      -6.847   4.857 118.736  0.00  0.00    -0.495 OA
ATOM     19  C   LIG A   1      -5.701   5.699 118.845  0.00  0.00    +0.277 C 
ENDBRANCH  15  18
ENDBRANCH   4  12
BRANCH   8  20
ATOM     20  O   LIG A   1      -8.010  -0.955 127.059  0.00  0.00    -0.490 OA
ATOM     21  C   LIG A   1      -7.011  -1.915 126.698  0.00  0.00    +0.277 C 
ENDBRANCH   8  20
BRANCH   9  22
ATOM     22  O   LIG A   1      -6.299   0.361 129.330  0.00  0.00    -0.488 OA
ATOM     23  C   LIG A   1      -7.175  -0.175 130.287  0.00  0.00    +0.277 C 
ENDBRANCH   9  22
BRANCH  10  24
ATOM     24  O   LIG A   1      -5.898   2.858 129.303  0.00  0.00    -0.488 OA
ATOM     25  C   LIG A   1      -6.583   3.764 130.177  0.00  0.00    +0.277 C 
ENDBRANCH  10  24
BRANCH  11  26
ATOM     26  O   LIG A   1      -6.625   4.456 126.721  0.00  0.00    -0.488 OA
ATOM     27  C   LIG A   1      -5.300   4.816 126.416  0.00  0.00    +0.277 C 
ENDBRANCH  11  26
TORSDOF 6
ENDMDL
MODEL 5
REMARK VINA RESULT:      -6.5      5.399      8.570
REMARK  Name = NuBBE_1216
REMARK  11 active torsions:
REMARK  status: ('A' for Active; 'I' for Inactive)
REMARK    1  A    between atoms: C_4  and  C_20
REMARK    2  A    between atoms: C_8  and  O_9
REMARK    3  A    between atoms: O_9  and  C_10
REMARK    4  A    between atoms: C_11  and  O_12
REMARK    5  A    between atoms: O_12  and  C_13
REMARK    6  A    between atoms: C_14  and  O_15
REMARK    7  A    between atoms: O_15  and  C_16
REMARK    8  A    between atoms: C_17  and  O_18
REMARK    9  A    between atoms: O_18  and  C_19
REMARK   10  A    between atoms: C_23  and  O_26
REMARK   11  A    between atoms: O_26  and  C_27
REMARK                            x       y       z     vdW  Elec       q    Type
REMARK                         _______ _______ _______ _____ _____    ______ ____
ROOT
ATOM      1  O   LIG A   1      -5.609  -5.019 131.799  0.00  0.00    -0.287 OA
ATOM      2  C   LIG A   1      -6.018  -3.928 131.271  0.00  0.00    +0.197 A 
ATOM      3  C   LIG A   1      -6.556  -3.928 129.920  0.00  0.00    +0.098 A 
ATOM      4  C   LIG A   1      -7.451  -2.964 129.642  0.00  0.00    +0.139 A 
ATOM      5  O   LIG A   1      -7.909  -2.078 130.618  0.00  0.00    -0.451 OA
ATOM      6  C   LIG A   1      -7.084  -1.799 131.692  0.00  0.00    +0.188 A 
ATOM      7  C   LIG A   1      -6.006  -2.654 131.987  0.00  0.00    +0.113 A 
ATOM      8  C   LIG A   1      -4.991  -2.281 132.888  0.00  0.00    +0.180 A 
ATOM      9  C   LIG A   1      -5.174  -1.050 133.586  0.00  0.00    +0.208 A 
ATOM     10  C   LIG A   1      -6.374  -0.252 133.420  0.00  0.00    +0.211 A 
ATOM     11  C   LIG A   1      -7.337  -0.635 132.455  0.00  0.00    +0.209 A 
ENDROOT
BRANCH   4  12
ATOM     12  C   LIG A   1      -8.053  -2.743 128.287  0.00  0.00    +0.018 A 
ATOM     13  C   LIG A   1      -8.811  -3.702 127.593  0.00  0.00    +0.015 A 
ATOM     14  C   LIG A   1      -9.300  -3.447 126.301  0.00  0.00    +0.046 A 
ATOM     15  C   LIG A   1      -9.021  -2.242 125.658  0.00  0.00    +0.120 A 
ATOM     16  C   LIG A   1      -8.296  -1.271 126.338  0.00  0.00    +0.046 A 
ATOM     17  C   LIG A   1      -7.825  -1.518 127.631  0.00  0.00    +0.015 A 
BRANCH  15  18
ATOM     18  O   LIG A   1      -9.528  -2.091 124.396  0.00  0.00    -0.495 OA
ATOM     19  C   LIG A   1      -9.452  -3.255 123.576  0.00  0.00    +0.277 C 
ENDBRANCH  15  18
ENDBRANCH   4  12
BRANCH   8  20
ATOM     20  O   LIG A   1      -3.821  -2.991 132.704  0.00  0.00    -0.490 OA
ATOM     21  C   LIG A   1      -3.078  -3.617 133.756  0.00  0.00    +0.277 C 
ENDBRANCH   8  20
BRANCH   9  22
ATOM     22  O   LIG A   1      -4.287  -0.432 134.451  0.00  0.00    -0.488 OA
ATOM     23  C   LIG A   1      -3.182   0.202 133.859  0.00  0.00    +0.277 C 
ENDBRANCH   9  22
BRANCH  10  24
ATOM     24  O   LIG A   1      -6.533   0.727 134.393  0.00  0.00    -0.488 OA
ATOM     25  C   LIG A   1      -6.445   2.127 134.098  0.00  0.00    +0.277 C 
ENDBRANCH  10  24
BRANCH  11  26
ATOM     26  O   LIG A   1      -8.568  -0.077 132.165  0.00  0.00    -0.488 OA
ATOM     27  C   LIG A   1      -8.554   1.066 131.346  0.00  0.00    +0.277 C 
ENDBRANCH  11  26
TORSDOF 6
ENDMDL
MODEL 6
REMARK VINA RESULT:      -6.5      2.123      7.708
REMARK  Name = NuBBE_1216
REMARK  11 active torsions:
REMARK  status: ('A' for Active; 'I' for Inactive)
REMARK    1  A    between atoms: C_4  and  C_20
REMARK    2  A    between atoms: C_8  and  O_9
REMARK    3  A    between atoms: O_9  and  C_10
REMARK    4  A    between atoms: C_11  and  O_12
REMARK    5  A    between atoms: O_12  and  C_13
REMARK    6  A    between atoms: C_14  and  O_15
REMARK    7  A    between atoms: O_15  and  C_16
REMARK    8  A    between atoms: C_17  and  O_18
REMARK    9  A    between atoms: O_18  and  C_19
REMARK   10  A    between atoms: C_23  and  O_26
REMARK   11  A    between atoms: O_26  and  C_27
REMARK                            x       y       z     vdW  Elec       q    Type
REMARK                         _______ _______ _______ _____ _____    ______ ____
ROOT
ATOM      1  O   LIG A   1      -7.853  -2.051 122.892  0.00  0.00    -0.287 OA
ATOM      2  C   LIG A   1      -7.682  -1.448 124.006  0.00  0.00    +0.197 A 
ATOM      3  C   LIG A   1      -7.563  -2.211 125.238  0.00  0.00    +0.098 A 
ATOM      4  C   LIG A   1      -6.847  -1.636 126.221  0.00  0.00    +0.139 A 
ATOM      5  O   LIG A   1      -6.177  -0.427 126.035  0.00  0.00    -0.451 OA
ATOM      6  C   LIG A   1      -6.667   0.458 125.093  0.00  0.00    +0.188 A 
ATOM      7  C   LIG A   1      -7.559   0.005 124.105  0.00  0.00    +0.113 A 
ATOM      8  C   LIG A   1      -8.287   0.900 123.298  0.00  0.00    +0.180 A 
ATOM      9  C   LIG A   1      -7.981   2.286 123.441  0.00  0.00    +0.208 A 
ATOM     10  C   LIG A   1      -6.930   2.746 124.330  0.00  0.00    +0.211 A 
ATOM     11  C   LIG A   1      -6.271   1.815 125.168  0.00  0.00    +0.209 A 
ENDROOT
BRANCH   4  12
ATOM     12  C   LIG A   1      -6.681  -2.222 127.592  0.00  0.00    +0.018 A 
ATOM     13  C   LIG A   1      -5.439  -2.445 128.210  0.00  0.00    +0.015 A 
ATOM     14  C   LIG A   1      -5.355  -3.048 129.477  0.00  0.00    +0.046 A 
ATOM     15  C   LIG A   1      -6.505  -3.469 130.143  0.00  0.00    +0.120 A 
ATOM     16  C   LIG A   1      -7.743  -3.233 129.560  0.00  0.00    +0.046 A 
ATOM     17  C   LIG A   1      -7.828  -2.616 128.307  0.00  0.00    +0.015 A 
BRANCH  15  18
ATOM     18  O   LIG A   1      -6.322  -4.059 131.364  0.00  0.00    -0.495 OA
ATOM     19  C   LIG A   1      -5.337  -5.090 131.391  0.00  0.00    +0.277 C 
ENDBRANCH  15  18
ENDBRANCH   4  12
BRANCH   8  20
ATOM     20  O   LIG A   1      -9.415   0.329 122.744  0.00  0.00    -0.490 OA
ATOM     21  C   LIG A   1     -10.756   0.744 123.026  0.00  0.00    +0.277 C 
ENDBRANCH   8  20
BRANCH   9  22
ATOM     22  O   LIG A   1      -8.610   3.357 122.828  0.00  0.00    -0.488 OA
ATOM     23  C   LIG A   1      -8.577   3.374 121.424  0.00  0.00    +0.277 C 
ENDBRANCH   9  22
BRANCH  10  24
ATOM     24  O   LIG A   1      -6.552   4.065 124.114  0.00  0.00    -0.488 OA
ATOM     25  C   LIG A   1      -5.363   4.418 123.395  0.00  0.00    +0.277 C 
ENDBRANCH  10  24
BRANCH  11  26
ATOM     26  O   LIG A   1      -5.213   2.003 126.038  0.00  0.00    -0.488 OA
ATOM     27  C   LIG A   1      -5.468   2.814 127.159  0.00  0.00    +0.277 C 
ENDBRANCH  11  26
TORSDOF 6
ENDMDL
MODEL 7
REMARK VINA RESULT:      -6.4      1.921      3.924
REMARK  Name = NuBBE_1216
REMARK  11 active torsions:
REMARK  status: ('A' for Active; 'I' for Inactive)
REMARK    1  A    between atoms: C_4  and  C_20
REMARK    2  A    between atoms: C_8  and  O_9
REMARK    3  A    between atoms: O_9  and  C_10
REMARK    4  A    between atoms: C_11  and  O_12
REMARK    5  A    between atoms: O_12  and  C_13
REMARK    6  A    between atoms: C_14  and  O_15
REMARK    7  A    between atoms: O_15  and  C_16
REMARK    8  A    between atoms: C_17  and  O_18
REMARK    9  A    between atoms: O_18  and  C_19
REMARK   10  A    between atoms: C_23  and  O_26
REMARK   11  A    between atoms: O_26  and  C_27
REMARK                            x       y       z     vdW  Elec       q    Type
REMARK                         _______ _______ _______ _____ _____    ______ ____
ROOT
ATOM      1  O   LIG A   1      -4.025   3.593 126.486  0.00  0.00    -0.287 OA
ATOM      2  C   LIG A   1      -5.097   3.188 125.919  0.00  0.00    +0.197 A 
ATOM      3  C   LIG A   1      -5.499   3.744 124.637  0.00  0.00    +0.098 A 
ATOM      4  C   LIG A   1      -6.240   2.941 123.852  0.00  0.00    +0.139 A 
ATOM      5  O   LIG A   1      -6.523   1.621 124.205  0.00  0.00    -0.451 OA
ATOM      6  C   LIG A   1      -6.548   1.290 125.547  0.00  0.00    +0.188 A 
ATOM      7  C   LIG A   1      -5.943   2.141 126.489  0.00  0.00    +0.113 A 
ATOM      8  C   LIG A   1      -6.167   1.994 127.871  0.00  0.00    +0.180 A 
ATOM      9  C   LIG A   1      -6.933   0.862 128.279  0.00  0.00    +0.208 A 
ATOM     10  C   LIG A   1      -7.407  -0.121 127.323  0.00  0.00    +0.211 A 
ATOM     11  C   LIG A   1      -7.212   0.104 125.939  0.00  0.00    +0.209 A 
ENDROOT
BRANCH   4  12
ATOM     12  C   LIG A   1      -6.824   3.360 122.536  0.00  0.00    +0.018 A 
ATOM     13  C   LIG A   1      -8.193   3.300 122.224  0.00  0.00    +0.015 A 
ATOM     14  C   LIG A   1      -8.665   3.658 120.950  0.00  0.00    +0.046 A 
ATOM     15  C   LIG A   1      -7.780   4.056 119.948  0.00  0.00    +0.120 A 
ATOM     16  C   LIG A   1      -6.427   4.147 120.245  0.00  0.00    +0.046 A 
ATOM     17  C   LIG A   1      -5.959   3.808 121.520  0.00  0.00    +0.015 A 
BRANCH  15  18
ATOM     18  O   LIG A   1      -8.332   4.370 118.736  0.00  0.00    -0.495 OA
ATOM     19  C   LIG A   1      -9.754   4.482 118.735  0.00  0.00    +0.277 C 
ENDBRANCH  15  18
ENDBRANCH   4  12
BRANCH   8  20
ATOM     20  O   LIG A   1      -5.902   3.146 128.585  0.00  0.00    -0.490 OA
ATOM     21  C   LIG A   1      -6.904   4.020 129.117  0.00  0.00    +0.277 C 
ENDBRANCH   8  20
BRANCH   9  22
ATOM     22  O   LIG A   1      -7.356   0.547 129.559  0.00  0.00    -0.488 OA
ATOM     23  C   LIG A   1      -6.346   0.341 130.513  0.00  0.00    +0.277 C 
ENDBRANCH   9  22
BRANCH  10  24
ATOM     24  O   LIG A   1      -7.848  -1.302 127.907  0.00  0.00    -0.488 OA
ATOM     25  C   LIG A   1      -7.110  -2.528 127.820  0.00  0.00    +0.277 C 
ENDBRANCH  10  24
BRANCH  11  26
ATOM     26  O   LIG A   1      -7.515  -0.706 124.860  0.00  0.00    -0.488 OA
ATOM     27  C   LIG A   1      -8.883  -0.919 124.609  0.00  0.00    +0.277 C 
ENDBRANCH  11  26
TORSDOF 6
ENDMDL
MODEL 8
REMARK VINA RESULT:      -6.4      2.814      8.007
REMARK  Name = NuBBE_1216
REMARK  11 active torsions:
REMARK  status: ('A' for Active; 'I' for Inactive)
REMARK    1  A    between atoms: C_4  and  C_20
REMARK    2  A    between atoms: C_8  and  O_9
REMARK    3  A    between atoms: O_9  and  C_10
REMARK    4  A    between atoms: C_11  and  O_12
REMARK    5  A    between atoms: O_12  and  C_13
REMARK    6  A    between atoms: C_14  and  O_15
REMARK    7  A    between atoms: O_15  and  C_16
REMARK    8  A    between atoms: C_17  and  O_18
REMARK    9  A    between atoms: O_18  and  C_19
REMARK   10  A    between atoms: C_23  and  O_26
REMARK   11  A    between atoms: O_26  and  C_27
REMARK                            x       y       z     vdW  Elec       q    Type
REMARK                         _______ _______ _______ _____ _____    ______ ____
ROOT
ATOM      1  O   LIG A   1      -5.584  -1.788 123.470  0.00  0.00    -0.287 OA
ATOM      2  C   LIG A   1      -6.081  -1.517 124.617  0.00  0.00    +0.197 A 
ATOM      3  C   LIG A   1      -5.835  -2.400 125.746  0.00  0.00    +0.098 A 
ATOM      4  C   LIG A   1      -5.864  -1.826 126.961  0.00  0.00    +0.139 A 
ATOM      5  O   LIG A   1      -6.022  -0.449 127.123  0.00  0.00    -0.451 OA
ATOM      6  C   LIG A   1      -6.695   0.255 126.143  0.00  0.00    +0.188 A 
ATOM      7  C   LIG A   1      -6.872  -0.314 124.869  0.00  0.00    +0.113 A 
ATOM      8  C   LIG A   1      -7.766   0.235 123.930  0.00  0.00    +0.180 A 
ATOM      9  C   LIG A   1      -8.388   1.469 124.283  0.00  0.00    +0.208 A 
ATOM     10  C   LIG A   1      -8.070   2.155 125.521  0.00  0.00    +0.211 A 
ATOM     11  C   LIG A   1      -7.214   1.532 126.462  0.00  0.00    +0.209 A 
ENDROOT
BRANCH   4  12
ATOM     12  C   LIG A   1      -5.722  -2.580 128.250  0.00  0.00    +0.018 A 
ATOM     13  C   LIG A   1      -4.493  -2.992 128.792  0.00  0.00    +0.015 A 
ATOM     14  C   LIG A   1      -4.436  -3.743 129.978  0.00  0.00    +0.046 A 
ATOM     15  C   LIG A   1      -5.604  -4.126 130.635  0.00  0.00    +0.120 A 
ATOM     16  C   LIG A   1      -6.827  -3.706 130.130  0.00  0.00    +0.046 A 
ATOM     17  C   LIG A   1      -6.883  -2.942 128.959  0.00  0.00    +0.015 A 
BRANCH  15  18
ATOM     18  O   LIG A   1      -5.449  -4.869 131.774  0.00  0.00    -0.495 OA
ATOM     19  C   LIG A   1      -5.793  -4.194 132.982  0.00  0.00    +0.277 C 
ENDBRANCH  15  18
ENDBRANCH   4  12
BRANCH   8  20
ATOM     20  O   LIG A   1      -8.160  -0.673 122.967  0.00  0.00    -0.490 OA
ATOM     21  C   LIG A   1      -9.356  -1.457 123.031  0.00  0.00    +0.277 C 
ENDBRANCH   8  20
BRANCH   9  22
ATOM     22  O   LIG A   1      -9.358   2.157 123.574  0.00  0.00    -0.488 OA
ATOM     23  C   LIG A   1      -8.961   2.689 122.336  0.00  0.00    +0.277 C 
ENDBRANCH   9  22
BRANCH  10  24
ATOM     24  O   LIG A   1      -8.510   3.472 125.560  0.00  0.00    -0.488 OA
ATOM     25  C   LIG A   1      -7.608   4.586 125.566  0.00  0.00    +0.277 C 
ENDBRANCH  10  24
BRANCH  11  26
ATOM     26  O   LIG A   1      -6.725   2.010 127.663  0.00  0.00    -0.488 OA
ATOM     27  C   LIG A   1      -7.680   2.268 128.664  0.00  0.00    +0.277 C 
ENDBRANCH  11  26
TORSDOF 6
ENDMDL
MODEL 9
REMARK VINA RESULT:      -6.3      3.304      5.850
REMARK  Name = NuBBE_1216
REMARK  11 active torsions:
REMARK  status: ('A' for Active; 'I' for Inactive)
REMARK    1  A    between atoms: C_4  and  C_20
REMARK    2  A    between atoms: C_8  and  O_9
REMARK    3  A    between atoms: O_9  and  C_10
REMARK    4  A    between atoms: C_11  and  O_12
REMARK    5  A    between atoms: O_12  and  C_13
REMARK    6  A    between atoms: C_14  and  O_15
REMARK    7  A    between atoms: O_15  and  C_16
REMARK    8  A    between atoms: C_17  and  O_18
REMARK    9  A    between atoms: O_18  and  C_19
REMARK   10  A    between atoms: C_23  and  O_26
REMARK   11  A    between atoms: O_26  and  C_27
REMARK                            x       y       z     vdW  Elec       q    Type
REMARK                         _______ _______ _______ _____ _____    ______ ____
ROOT
ATOM      1  O   LIG A   1      -2.854   3.580 127.470  0.00  0.00    -0.287 OA
ATOM      2  C   LIG A   1      -3.995   3.872 126.971  0.00  0.00    +0.197 A 
ATOM      3  C   LIG A   1      -4.156   3.975 125.530  0.00  0.00    +0.098 A 
ATOM      4  C   LIG A   1      -5.387   3.714 125.054  0.00  0.00    +0.139 A 
ATOM      5  O   LIG A   1      -6.420   3.275 125.882  0.00  0.00    -0.451 OA
ATOM      6  C   LIG A   1      -6.387   3.629 127.218  0.00  0.00    +0.188 A 
ATOM      7  C   LIG A   1      -5.185   4.077 127.794  0.00  0.00    +0.113 A 
ATOM      8  C   LIG A   1      -5.155   4.695 129.059  0.00  0.00    +0.180 A 
ATOM      9  C   LIG A   1      -6.383   4.729 129.785  0.00  0.00    +0.208 A 
ATOM     10  C   LIG A   1      -7.588   4.105 129.272  0.00  0.00    +0.211 A 
ATOM     11  C   LIG A   1      -7.585   3.553 127.968  0.00  0.00    +0.209 A 
ENDROOT
BRANCH   4  12
ATOM     12  C   LIG A   1      -5.776   3.851 123.612  0.00  0.00    +0.018 A 
ATOM     13  C   LIG A   1      -6.968   3.346 123.065  0.00  0.00    +0.015 A 
ATOM     14  C   LIG A   1      -7.245   3.463 121.692  0.00  0.00    +0.046 A 
ATOM     15  C   LIG A   1      -6.327   4.059 120.829  0.00  0.00    +0.120 A 
ATOM     16  C   LIG A   1      -5.155   4.587 121.355  0.00  0.00    +0.046 A 
ATOM     17  C   LIG A   1      -4.888   4.488 122.725  0.00  0.00    +0.015 A 
BRANCH  15  18
ATOM     18  O   LIG A   1      -6.678   4.113 119.507  0.00  0.00    -0.495 OA
ATOM     19  C   LIG A   1      -6.232   5.278 118.815  0.00  0.00    +0.277 C 
ENDBRANCH  15  18
ENDBRANCH   4  12
BRANCH   8  20
ATOM     20  O   LIG A   1      -4.028   5.469 129.253  0.00  0.00    -0.490 OA
ATOM     21  C   LIG A   1      -3.176   5.389 130.400  0.00  0.00    +0.277 C 
ENDBRANCH   8  20
BRANCH   9  22
ATOM     22  O   LIG A   1      -6.627   5.348 130.999  0.00  0.00    -0.488 OA
ATOM     23  C   LIG A   1      -6.673   6.752 130.981  0.00  0.00    +0.277 C 
ENDBRANCH   9  22
BRANCH  10  24
ATOM     24  O   LIG A   1      -8.587   3.951 130.225  0.00  0.00    -0.488 OA
ATOM     25  C   LIG A   1      -8.824   2.709 130.899  0.00  0.00    +0.277 C 
ENDBRANCH  10  24
BRANCH  11  26
ATOM     26  O   LIG A   1      -8.578   2.862 127.298  0.00  0.00    -0.488 OA
ATOM     27  C   LIG A   1      -8.638   1.476 127.534  0.00  0.00    +0.277 C 
ENDBRANCH  11  26
TORSDOF 6
ENDMDL
