MODEL 1
REMARK VINA RESULT:      -7.5      0.000      0.000
REMARK  Name = NuBBE_1575
REMARK  14 active torsions:
REMARK  status: ('A' for Active; 'I' for Inactive)
REMARK    1  A    between atoms: C_1  and  C_2
REMARK    2  A    between atoms: C_4  and  O_5
REMARK    3  A    between atoms: O_5  and  C_6
REMARK    4  A    between atoms: C_6  and  C_8
REMARK    5  A    between atoms: C_9  and  O_23
REMARK    6  A    between atoms: C_13  and  O_22
REMARK    7  A    between atoms: C_19  and  C_20
REMARK    8  A    between atoms: C_19  and  O_21
REMARK    9  A    between atoms: O_23  and  C_24
REMARK   10  A    between atoms: C_24  and  C_26
REMARK   11  A    between atoms: C_27  and  C_28
REMARK   12  A    between atoms: C_27  and  C_32
REMARK   13  A    between atoms: C_28  and  O_30
REMARK   14  A    between atoms: O_30  and  C_31
REMARK                            x       y       z     vdW  Elec       q    Type
REMARK                         _______ _______ _______ _____ _____    ______ ____
ROOT
ATOM      1  C   LIG A   1      -6.023  -1.114 126.378  0.00  0.00    +0.012 C 
ATOM      2  C   LIG A   1      -7.440  -0.745 126.891  0.00  0.00    -0.021 C 
ATOM      3  C   LIG A   1      -7.510  -0.702 128.475  0.00  0.00    +0.056 C 
ATOM      4  C   LIG A   1      -6.624   0.471 129.023  0.00  0.00    +0.222 C 
ATOM      5  C   LIG A   1      -7.094   1.837 128.418  0.00  0.00    +0.223 C 
ATOM      6  C   LIG A   1      -6.961   1.816 126.861  0.00  0.00    +0.073 C 
ATOM      7  C   LIG A   1      -7.873   0.672 126.312  0.00  0.00    +0.012 C 
ATOM      8  C   LIG A   1      -7.972   0.699 124.769  0.00  0.00    +0.088 C 
ATOM      9  C   LIG A   1      -8.461   2.047 124.265  0.00  0.00    +0.240 C 
ATOM     10  C   LIG A   1      -7.507   3.089 124.691  0.00  0.00    +0.039 C 
ATOM     11  C   LIG A   1      -7.051   3.731 123.612  0.00  0.00    +0.100 C 
ATOM     12  C   LIG A   1      -7.671   3.108 122.442  0.00  0.00    +0.335 C 
ATOM     13  O   LIG A   1      -7.462   3.431 121.288  0.00  0.00    -0.245 OA
ATOM     14  O   LIG A   1      -8.452   2.076 122.847  0.00  0.00    -0.425 OA
ATOM     15  C   LIG A   1      -7.147   3.221 126.151  0.00  0.00    +0.097 C 
ATOM     16  C   LIG A   1      -5.847   4.041 126.304  0.00  0.00    +0.047 C 
ATOM     17  C   LIG A   1      -7.428  -2.114 129.195  0.00  0.00    +0.072 C 
ATOM     18  C   LIG A   1      -7.933  -2.048 130.665  0.00  0.00    +0.023 C 
ATOM     19  C   LIG A   1      -8.423  -3.095 128.514  0.00  0.00    +0.018 C 
ATOM     20  C   LIG A   1      -8.320  -3.170 127.007  0.00  0.00    +0.002 C 
ATOM     21  C   LIG A   1      -8.446  -1.801 126.367  0.00  0.00    +0.007 C 
ENDROOT
BRANCH  15  22
ATOM     22  O   LIG A   1      -8.207   3.959 126.742  0.00  0.00    -0.384 OA
ATOM     23  H   LIG A   1      -9.047   3.700 126.323  0.00  0.00    +0.211 HD
ENDBRANCH  15  22
BRANCH   9  24
ATOM     24  O   LIG A   1      -9.763   2.337 124.723  0.00  0.00    -0.352 OA
ATOM     25  H   LIG A   1      -9.660   2.946 125.471  0.00  0.00    +0.214 HD
ENDBRANCH   9  24
BRANCH  17  26
ATOM     26  C   LIG A   1      -6.024  -2.753 129.265  0.00  0.00    +0.313 C 
ATOM     27  O   LIG A   1      -4.967  -2.202 129.046  0.00  0.00    -0.250 OA
BRANCH  26  28
ATOM     28  O   LIG A   1      -6.160  -4.038 129.718  0.00  0.00    -0.468 OA
ATOM     29  C   LIG A   1      -5.264  -4.520 130.716  0.00  0.00    +0.280 C 
ENDBRANCH  26  28
ENDBRANCH  17  26
BRANCH   4  30
ATOM     30  O   LIG A   1      -6.715   0.521 130.465  0.00  0.00    -0.458 OA
BRANCH  30  31
ATOM     31  C   LIG A   1      -5.771   1.267 131.112  0.00  0.00    +0.304 C 
ATOM     32  O   LIG A   1      -5.997   2.239 131.815  0.00  0.00    -0.251 OA
ATOM     33  C   LIG A   1      -4.382   0.787 130.794  0.00  0.00    +0.136 C 
ENDBRANCH  30  31
ENDBRANCH   4  30
BRANCH   5  34
ATOM     34  O   LIG A   1      -8.493   1.999 128.790  0.00  0.00    -0.457 OA
BRANCH  34  35
ATOM     35  C   LIG A   1      -8.815   2.951 129.702  0.00  0.00    +0.304 C 
ATOM     36  O   LIG A   1      -8.554   4.140 129.587  0.00  0.00    -0.251 OA
ATOM     37  C   LIG A   1      -9.556   2.363 130.866  0.00  0.00    +0.136 C 
ENDBRANCH  34  35
ENDBRANCH   5  34
TORSDOF 8
ENDMDL
MODEL 2
REMARK VINA RESULT:      -7.4      3.130      5.959
REMARK  Name = NuBBE_1575
REMARK  14 active torsions:
REMARK  status: ('A' for Active; 'I' for Inactive)
REMARK    1  A    between atoms: C_1  and  C_2
REMARK    2  A    between atoms: C_4  and  O_5
REMARK    3  A    between atoms: O_5  and  C_6
REMARK    4  A    between atoms: C_6  and  C_8
REMARK    5  A    between atoms: C_9  and  O_23
REMARK    6  A    between atoms: C_13  and  O_22
REMARK    7  A    between atoms: C_19  and  C_20
REMARK    8  A    between atoms: C_19  and  O_21
REMARK    9  A    between atoms: O_23  and  C_24
REMARK   10  A    between atoms: C_24  and  C_26
REMARK   11  A    between atoms: C_27  and  C_28
REMARK   12  A    between atoms: C_27  and  C_32
REMARK   13  A    between atoms: C_28  and  O_30
REMARK   14  A    between atoms: O_30  and  C_31
REMARK                            x       y       z     vdW  Elec       q    Type
REMARK                         _______ _______ _______ _____ _____    ______ ____
ROOT
ATOM      1  C   LIG A   1      -7.188   0.183 127.222  0.00  0.00    +0.012 C 
ATOM      2  C   LIG A   1      -6.263   0.168 125.976  0.00  0.00    -0.021 C 
ATOM      3  C   LIG A   1      -7.045  -0.230 124.655  0.00  0.00    +0.056 C 
ATOM      4  C   LIG A   1      -8.096   0.877 124.295  0.00  0.00    +0.222 C 
ATOM      5  C   LIG A   1      -7.388   2.262 124.114  0.00  0.00    +0.223 C 
ATOM      6  C   LIG A   1      -6.675   2.684 125.438  0.00  0.00    +0.073 C 
ATOM      7  C   LIG A   1      -5.601   1.600 125.777  0.00  0.00    +0.012 C 
ATOM      8  C   LIG A   1      -4.698   2.028 126.958  0.00  0.00    +0.088 C 
ATOM      9  C   LIG A   1      -4.027   3.365 126.691  0.00  0.00    +0.240 C 
ATOM     10  C   LIG A   1      -5.070   4.392 126.505  0.00  0.00    +0.039 C 
ATOM     11  C   LIG A   1      -4.889   5.366 127.401  0.00  0.00    +0.100 C 
ATOM     12  C   LIG A   1      -3.737   4.992 128.223  0.00  0.00    +0.335 C 
ATOM     13  O   LIG A   1      -3.305   5.644 129.154  0.00  0.00    -0.245 OA
ATOM     14  O   LIG A   1      -3.282   3.777 127.826  0.00  0.00    -0.425 OA
ATOM     15  C   LIG A   1      -6.151   4.180 125.474  0.00  0.00    +0.097 C 
ATOM     16  C   LIG A   1      -7.340   5.125 125.751  0.00  0.00    +0.047 C 
ATOM     17  C   LIG A   1      -7.485  -1.752 124.562  0.00  0.00    +0.072 C 
ATOM     18  C   LIG A   1      -7.838  -2.169 123.105  0.00  0.00    +0.023 C 
ATOM     19  C   LIG A   1      -6.272  -2.660 124.913  0.00  0.00    +0.018 C 
ATOM     20  C   LIG A   1      -5.559  -2.307 126.200  0.00  0.00    +0.002 C 
ATOM     21  C   LIG A   1      -5.124  -0.854 126.220  0.00  0.00    +0.007 C 
ENDROOT
BRANCH  15  22
ATOM     22  O   LIG A   1      -5.573   4.551 124.231  0.00  0.00    -0.384 OA
ATOM     23  H   LIG A   1      -6.262   4.531 123.542  0.00  0.00    +0.211 HD
ENDBRANCH  15  22
BRANCH   9  24
ATOM     24  O   LIG A   1      -3.169   3.309 125.574  0.00  0.00    -0.352 OA
ATOM     25  H   LIG A   1      -3.491   3.977 124.949  0.00  0.00    +0.214 HD
ENDBRANCH   9  24
BRANCH  17  26
ATOM     26  C   LIG A   1      -8.707  -2.153 125.417  0.00  0.00    +0.313 C 
ATOM     27  O   LIG A   1      -9.721  -1.509 125.575  0.00  0.00    -0.250 OA
BRANCH  26  28
ATOM     28  O   LIG A   1      -8.497  -3.418 125.898  0.00  0.00    -0.468 OA
ATOM     29  C   LIG A   1      -8.904  -3.730 127.229  0.00  0.00    +0.280 C 
ENDBRANCH  26  28
ENDBRANCH  17  26
BRANCH   4  30
ATOM     30  O   LIG A   1      -8.786   0.520 123.075  0.00  0.00    -0.458 OA
BRANCH  30  31
ATOM     31  C   LIG A   1     -10.145   0.660 123.077  0.00  0.00    +0.304 C 
ATOM     32  O   LIG A   1     -10.905   0.186 122.249  0.00  0.00    -0.251 OA
ATOM     33  C   LIG A   1     -10.601   1.544 124.204  0.00  0.00    +0.136 C 
ENDBRANCH  30  31
ENDBRANCH   4  30
BRANCH   5  34
ATOM     34  O   LIG A   1      -6.402   2.091 123.056  0.00  0.00    -0.457 OA
BRANCH  34  35
ATOM     35  C   LIG A   1      -6.439   2.933 121.992  0.00  0.00    +0.304 C 
ATOM     36  O   LIG A   1      -5.465   3.261 121.331  0.00  0.00    -0.251 OA
ATOM     37  C   LIG A   1      -7.837   3.398 121.714  0.00  0.00    +0.136 C 
ENDBRANCH  34  35
ENDBRANCH   5  34
TORSDOF 8
ENDMDL
MODEL 3
REMARK VINA RESULT:      -7.3      2.354      6.722
REMARK  Name = NuBBE_1575
REMARK  14 active torsions:
REMARK  status: ('A' for Active; 'I' for Inactive)
REMARK    1  A    between atoms: C_1  and  C_2
REMARK    2  A    between atoms: C_4  and  O_5
REMARK    3  A    between atoms: O_5  and  C_6
REMARK    4  A    between atoms: C_6  and  C_8
REMARK    5  A    between atoms: C_9  and  O_23
REMARK    6  A    between atoms: C_13  and  O_22
REMARK    7  A    between atoms: C_19  and  C_20
REMARK    8  A    between atoms: C_19  and  O_21
REMARK    9  A    between atoms: O_23  and  C_24
REMARK   10  A    between atoms: C_24  and  C_26
REMARK   11  A    between atoms: C_27  and  C_28
REMARK   12  A    between atoms: C_27  and  C_32
REMARK   13  A    between atoms: C_28  and  O_30
REMARK   14  A    between atoms: O_30  and  C_31
REMARK                            x       y       z     vdW  Elec       q    Type
REMARK                         _______ _______ _______ _____ _____    ______ ____
ROOT
ATOM      1  C   LIG A   1      -7.391  -2.695 127.214  0.00  0.00    +0.012 C 
ATOM      2  C   LIG A   1      -6.090  -1.977 126.769  0.00  0.00    -0.021 C 
ATOM      3  C   LIG A   1      -6.388  -0.619 126.005  0.00  0.00    +0.056 C 
ATOM      4  C   LIG A   1      -7.042   0.419 126.982  0.00  0.00    +0.222 C 
ATOM      5  C   LIG A   1      -6.105   0.678 128.209  0.00  0.00    +0.223 C 
ATOM      6  C   LIG A   1      -5.867  -0.649 129.000  0.00  0.00    +0.073 C 
ATOM      7  C   LIG A   1      -5.180  -1.670 128.037  0.00  0.00    +0.012 C 
ATOM      8  C   LIG A   1      -4.715  -2.945 128.780  0.00  0.00    +0.088 C 
ATOM      9  C   LIG A   1      -3.788  -2.609 129.937  0.00  0.00    +0.240 C 
ATOM     10  C   LIG A   1      -4.511  -1.749 130.892  0.00  0.00    +0.039 C 
ATOM     11  C   LIG A   1      -4.517  -2.336 132.092  0.00  0.00    +0.100 C 
ATOM     12  C   LIG A   1      -3.820  -3.617 131.952  0.00  0.00    +0.335 C 
ATOM     13  O   LIG A   1      -3.660  -4.424 132.847  0.00  0.00    -0.245 OA
ATOM     14  O   LIG A   1      -3.453  -3.785 130.657  0.00  0.00    -0.425 OA
ATOM     15  C   LIG A   1      -5.160  -0.475 130.408  0.00  0.00    +0.097 C 
ATOM     16  C   LIG A   1      -6.200   0.015 131.439  0.00  0.00    +0.047 C 
ATOM     17  C   LIG A   1      -7.001  -0.783 124.550  0.00  0.00    +0.072 C 
ATOM     18  C   LIG A   1      -6.859   0.518 123.709  0.00  0.00    +0.023 C 
ATOM     19  C   LIG A   1      -6.163  -1.822 123.753  0.00  0.00    +0.018 C 
ATOM     20  C   LIG A   1      -5.923  -3.134 124.467  0.00  0.00    +0.002 C 
ATOM     21  C   LIG A   1      -5.298  -2.924 125.832  0.00  0.00    +0.007 C 
ENDROOT
BRANCH  15  22
ATOM     22  O   LIG A   1      -4.116   0.486 130.344  0.00  0.00    -0.384 OA
ATOM     23  H   LIG A   1      -3.616   0.469 131.180  0.00  0.00    +0.211 HD
ENDBRANCH  15  22
BRANCH   9  24
ATOM     24  O   LIG A   1      -2.602  -1.987 129.496  0.00  0.00    -0.352 OA
ATOM     25  H   LIG A   1      -2.033  -1.900 130.276  0.00  0.00    +0.214 HD
ENDBRANCH   9  24
BRANCH  17  26
ATOM     26  C   LIG A   1      -8.498  -1.156 124.490  0.00  0.00    +0.313 C 
ATOM     27  O   LIG A   1      -9.373  -0.760 125.229  0.00  0.00    -0.250 OA
BRANCH  26  28
ATOM     28  O   LIG A   1      -8.699  -1.944 123.388  0.00  0.00    -0.468 OA
ATOM     29  C   LIG A   1      -9.508  -3.112 123.508  0.00  0.00    +0.280 C 
ENDBRANCH  26  28
ENDBRANCH  17  26
BRANCH   4  30
ATOM     30  O   LIG A   1      -7.286   1.662 126.285  0.00  0.00    -0.458 OA
BRANCH  30  31
ATOM     31  C   LIG A   1      -8.066   2.581 126.928  0.00  0.00    +0.304 C 
ATOM     32  O   LIG A   1      -9.002   2.321 127.667  0.00  0.00    -0.251 OA
ATOM     33  C   LIG A   1      -7.674   3.984 126.558  0.00  0.00    +0.136 C 
ENDBRANCH  30  31
ENDBRANCH   4  30
BRANCH   5  34
ATOM     34  O   LIG A   1      -4.841   1.165 127.674  0.00  0.00    -0.457 OA
BRANCH  34  35
ATOM     35  C   LIG A   1      -4.522   2.472 127.853  0.00  0.00    +0.304 C 
ATOM     36  O   LIG A   1      -4.680   3.088 128.896  0.00  0.00    -0.251 OA
ATOM     37  C   LIG A   1      -3.926   3.063 126.610  0.00  0.00    +0.136 C 
ENDBRANCH  34  35
ENDBRANCH   5  34
TORSDOF 8
ENDMDL
MODEL 4
REMARK VINA RESULT:      -7.0      3.669      5.798
REMARK  Name = NuBBE_1575
REMARK  14 active torsions:
REMARK  status: ('A' for Active; 'I' for Inactive)
REMARK    1  A    between atoms: C_1  and  C_2
REMARK    2  A    between atoms: C_4  and  O_5
REMARK    3  A    between atoms: O_5  and  C_6
REMARK    4  A    between atoms: C_6  and  C_8
REMARK    5  A    between atoms: C_9  and  O_23
REMARK    6  A    between atoms: C_13  and  O_22
REMARK    7  A    between atoms: C_19  and  C_20
REMARK    8  A    between atoms: C_19  and  O_21
REMARK    9  A    between atoms: O_23  and  C_24
REMARK   10  A    between atoms: C_24  and  C_26
REMARK   11  A    between atoms: C_27  and  C_28
REMARK   12  A    between atoms: C_27  and  C_32
REMARK   13  A    between atoms: C_28  and  O_30
REMARK   14  A    between atoms: O_30  and  C_31
REMARK                            x       y       z     vdW  Elec       q    Type
REMARK                         _______ _______ _______ _____ _____    ______ ____
ROOT
ATOM      1  C   LIG A   1      -8.183   3.162 129.853  0.00  0.00    +0.012 C 
ATOM      2  C   LIG A   1      -7.476   4.489 129.473  0.00  0.00    -0.021 C 
ATOM      3  C   LIG A   1      -6.264   4.820 130.441  0.00  0.00    +0.056 C 
ATOM      4  C   LIG A   1      -5.126   3.756 130.265  0.00  0.00    +0.222 C 
ATOM      5  C   LIG A   1      -4.640   3.718 128.776  0.00  0.00    +0.223 C 
ATOM      6  C   LIG A   1      -5.821   3.326 127.830  0.00  0.00    +0.073 C 
ATOM      7  C   LIG A   1      -6.940   4.408 127.977  0.00  0.00    +0.012 C 
ATOM      8  C   LIG A   1      -8.064   4.224 126.932  0.00  0.00    +0.088 C 
ATOM      9  C   LIG A   1      -7.515   4.227 125.515  0.00  0.00    +0.240 C 
ATOM     10  C   LIG A   1      -6.558   3.113 125.373  0.00  0.00    +0.039 C 
ATOM     11  C   LIG A   1      -6.960   2.316 124.379  0.00  0.00    +0.100 C 
ATOM     12  C   LIG A   1      -8.211   2.869 123.857  0.00  0.00    +0.335 C 
ATOM     13  O   LIG A   1      -8.867   2.381 122.957  0.00  0.00    -0.245 OA
ATOM     14  O   LIG A   1      -8.552   3.963 124.584  0.00  0.00    -0.425 OA
ATOM     15  C   LIG A   1      -5.404   2.991 126.338  0.00  0.00    +0.097 C 
ATOM     16  C   LIG A   1      -4.818   1.563 126.285  0.00  0.00    +0.047 C 
ATOM     17  C   LIG A   1      -6.673   5.258 131.910  0.00  0.00    +0.072 C 
ATOM     18  C   LIG A   1      -5.506   5.974 132.651  0.00  0.00    +0.023 C 
ATOM     19  C   LIG A   1      -7.777   6.350 131.833  0.00  0.00    +0.018 C 
ATOM     20  C   LIG A   1      -8.954   6.009 130.947  0.00  0.00    +0.002 C 
ATOM     21  C   LIG A   1      -8.512   5.639 129.544  0.00  0.00    +0.007 C 
ENDROOT
BRANCH  15  22
ATOM     22  O   LIG A   1      -4.414   3.892 125.866  0.00  0.00    -0.384 OA
ATOM     23  H   LIG A   1      -4.569   4.069 124.921  0.00  0.00    +0.211 HD
ENDBRANCH  15  22
BRANCH   9  24
ATOM     24  O   LIG A   1      -6.908   5.457 125.190  0.00  0.00    -0.352 OA
ATOM     25  H   LIG A   1      -5.954   5.332 125.312  0.00  0.00    +0.214 HD
ENDBRANCH   9  24
BRANCH  17  26
ATOM     26  C   LIG A   1      -7.124   4.118 132.850  0.00  0.00    +0.313 C 
ATOM     27  O   LIG A   1      -6.670   2.996 132.896  0.00  0.00    -0.250 OA
BRANCH  26  28
ATOM     28  O   LIG A   1      -8.071   4.618 133.704  0.00  0.00    -0.468 OA
ATOM     29  C   LIG A   1      -9.225   3.833 133.996  0.00  0.00    +0.280 C 
ENDBRANCH  26  28
ENDBRANCH  17  26
BRANCH   4  30
ATOM     30  O   LIG A   1      -4.013   4.079 131.130  0.00  0.00    -0.458 OA
BRANCH  30  31
ATOM     31  C   LIG A   1      -3.478   3.049 131.849  0.00  0.00    +0.304 C 
ATOM     32  O   LIG A   1      -3.757   1.869 131.710  0.00  0.00    -0.251 OA
ATOM     33  C   LIG A   1      -2.536   3.552 132.907  0.00  0.00    +0.136 C 
ENDBRANCH  30  31
ENDBRANCH   4  30
BRANCH   5  34
ATOM     34  O   LIG A   1      -4.177   5.061 128.454  0.00  0.00    -0.457 OA
BRANCH  34  35
ATOM     35  C   LIG A   1      -2.853   5.252 128.223  0.00  0.00    +0.304 C 
ATOM     36  O   LIG A   1      -2.171   4.559 127.482  0.00  0.00    -0.251 OA
ATOM     37  C   LIG A   1      -2.334   6.439 128.976  0.00  0.00    +0.136 C 
ENDBRANCH  34  35
ENDBRANCH   5  34
TORSDOF 8
ENDMDL
MODEL 5
REMARK VINA RESULT:      -7.0      3.839      7.680
REMARK  Name = NuBBE_1575
REMARK  14 active torsions:
REMARK  status: ('A' for Active; 'I' for Inactive)
REMARK    1  A    between atoms: C_1  and  C_2
REMARK    2  A    between atoms: C_4  and  O_5
REMARK    3  A    between atoms: O_5  and  C_6
REMARK    4  A    between atoms: C_6  and  C_8
REMARK    5  A    between atoms: C_9  and  O_23
REMARK    6  A    between atoms: C_13  and  O_22
REMARK    7  A    between atoms: C_19  and  C_20
REMARK    8  A    between atoms: C_19  and  O_21
REMARK    9  A    between atoms: O_23  and  C_24
REMARK   10  A    between atoms: C_24  and  C_26
REMARK   11  A    between atoms: C_27  and  C_28
REMARK   12  A    between atoms: C_27  and  C_32
REMARK   13  A    between atoms: C_28  and  O_30
REMARK   14  A    between atoms: O_30  and  C_31
REMARK                            x       y       z     vdW  Elec       q    Type
REMARK                         _______ _______ _______ _____ _____    ______ ____
ROOT
ATOM      1  C   LIG A   1      -5.812   6.122 132.391  0.00  0.00    +0.012 C 
ATOM      2  C   LIG A   1      -5.817   6.193 130.841  0.00  0.00    -0.021 C 
ATOM      3  C   LIG A   1      -4.751   5.212 130.194  0.00  0.00    +0.056 C 
ATOM      4  C   LIG A   1      -5.149   3.721 130.476  0.00  0.00    +0.222 C 
ATOM      5  C   LIG A   1      -6.578   3.422 129.912  0.00  0.00    +0.223 C 
ATOM      6  C   LIG A   1      -7.637   4.344 130.599  0.00  0.00    +0.073 C 
ATOM      7  C   LIG A   1      -7.262   5.829 130.286  0.00  0.00    +0.012 C 
ATOM      8  C   LIG A   1      -8.362   6.813 130.748  0.00  0.00    +0.088 C 
ATOM      9  C   LIG A   1      -9.710   6.472 130.135  0.00  0.00    +0.240 C 
ATOM     10  C   LIG A   1     -10.094   5.112 130.557  0.00  0.00    +0.039 C 
ATOM     11  C   LIG A   1     -11.272   5.165 131.184  0.00  0.00    +0.100 C 
ATOM     12  C   LIG A   1     -11.683   6.570 131.218  0.00  0.00    +0.335 C 
ATOM     13  O   LIG A   1     -12.702   6.985 131.737  0.00  0.00    -0.245 OA
ATOM     14  O   LIG A   1     -10.716   7.331 130.647  0.00  0.00    -0.425 OA
ATOM     15  C   LIG A   1      -9.149   3.960 130.317  0.00  0.00    +0.097 C 
ATOM     16  C   LIG A   1      -9.540   2.759 131.205  0.00  0.00    +0.047 C 
ATOM     17  C   LIG A   1      -3.235   5.641 130.382  0.00  0.00    +0.072 C 
ATOM     18  C   LIG A   1      -2.294   4.909 129.383  0.00  0.00    +0.023 C 
ATOM     19  C   LIG A   1      -3.074   7.139 130.000  0.00  0.00    +0.018 C 
ATOM     20  C   LIG A   1      -4.062   8.078 130.657  0.00  0.00    +0.002 C 
ATOM     21  C   LIG A   1      -5.494   7.647 130.412  0.00  0.00    +0.007 C 
ENDROOT
BRANCH  15  22
ATOM     22  O   LIG A   1      -9.338   3.585 128.960  0.00  0.00    -0.384 OA
ATOM     23  H   LIG A   1      -9.754   2.705 128.928  0.00  0.00    +0.211 HD
ENDBRANCH  15  22
BRANCH   9  24
ATOM     24  O   LIG A   1      -9.689   6.577 128.729  0.00  0.00    -0.352 OA
ATOM     25  H   LIG A   1     -10.403   6.009 128.402  0.00  0.00    +0.214 HD
ENDBRANCH   9  24
BRANCH  17  26
ATOM     26  C   LIG A   1      -2.633   5.388 131.782  0.00  0.00    +0.313 C 
ATOM     27  O   LIG A   1      -2.718   4.369 132.432  0.00  0.00    -0.250 OA
BRANCH  26  28
ATOM     28  O   LIG A   1      -1.893   6.484 132.134  0.00  0.00    -0.468 OA
ATOM     29  C   LIG A   1      -0.781   6.318 133.012  0.00  0.00    +0.280 C 
ENDBRANCH  26  28
ENDBRANCH  17  26
BRANCH   4  30
ATOM     30  O   LIG A   1      -4.188   2.832 129.861  0.00  0.00    -0.458 OA
BRANCH  30  31
ATOM     31  C   LIG A   1      -4.243   1.520 130.234  0.00  0.00    +0.304 C 
ATOM     32  O   LIG A   1      -4.455   0.580 129.484  0.00  0.00    -0.251 OA
ATOM     33  C   LIG A   1      -4.078   1.365 131.720  0.00  0.00    +0.136 C 
ENDBRANCH  30  31
ENDBRANCH   4  30
BRANCH   5  34
ATOM     34  O   LIG A   1      -6.532   3.706 128.485  0.00  0.00    -0.457 OA
BRANCH  34  35
ATOM     35  C   LIG A   1      -6.570   2.665 127.614  0.00  0.00    +0.304 C 
ATOM     36  O   LIG A   1      -7.393   1.762 127.649  0.00  0.00    -0.251 OA
ATOM     37  C   LIG A   1      -5.486   2.774 126.585  0.00  0.00    +0.136 C 
ENDBRANCH  34  35
ENDBRANCH   5  34
TORSDOF 8
ENDMDL
MODEL 6
REMARK VINA RESULT:      -6.9      2.514      6.219
REMARK  Name = NuBBE_1575
REMARK  14 active torsions:
REMARK  status: ('A' for Active; 'I' for Inactive)
REMARK    1  A    between atoms: C_1  and  C_2
REMARK    2  A    between atoms: C_4  and  O_5
REMARK    3  A    between atoms: O_5  and  C_6
REMARK    4  A    between atoms: C_6  and  C_8
REMARK    5  A    between atoms: C_9  and  O_23
REMARK    6  A    between atoms: C_13  and  O_22
REMARK    7  A    between atoms: C_19  and  C_20
REMARK    8  A    between atoms: C_19  and  O_21
REMARK    9  A    between atoms: O_23  and  C_24
REMARK   10  A    between atoms: C_24  and  C_26
REMARK   11  A    between atoms: C_27  and  C_28
REMARK   12  A    between atoms: C_27  and  C_32
REMARK   13  A    between atoms: C_28  and  O_30
REMARK   14  A    between atoms: O_30  and  C_31
REMARK                            x       y       z     vdW  Elec       q    Type
REMARK                         _______ _______ _______ _____ _____    ______ ____
ROOT
ATOM      1  C   LIG A   1      -7.888  -0.420 127.871  0.00  0.00    +0.012 C 
ATOM      2  C   LIG A   1      -6.612   0.157 127.203  0.00  0.00    -0.021 C 
ATOM      3  C   LIG A   1      -6.839   0.495 125.671  0.00  0.00    +0.056 C 
ATOM      4  C   LIG A   1      -7.870   1.669 125.524  0.00  0.00    +0.222 C 
ATOM      5  C   LIG A   1      -7.366   2.936 126.293  0.00  0.00    +0.223 C 
ATOM      6  C   LIG A   1      -7.206   2.619 127.815  0.00  0.00    +0.073 C 
ATOM      7  C   LIG A   1      -6.151   1.475 127.964  0.00  0.00    +0.012 C 
ATOM      8  C   LIG A   1      -5.769   1.228 129.442  0.00  0.00    +0.088 C 
ATOM      9  C   LIG A   1      -5.264   2.498 130.107  0.00  0.00    +0.240 C 
ATOM     10  C   LIG A   1      -6.332   3.515 130.065  0.00  0.00    +0.039 C 
ATOM     11  C   LIG A   1      -6.612   3.907 131.311  0.00  0.00    +0.100 C 
ATOM     12  C   LIG A   1      -5.754   3.136 132.212  0.00  0.00    +0.335 C 
ATOM     13  O   LIG A   1      -5.762   3.223 133.425  0.00  0.00    -0.245 OA
ATOM     14  O   LIG A   1      -5.010   2.266 131.484  0.00  0.00    -0.425 OA
ATOM     15  C   LIG A   1      -6.963   3.881 128.744  0.00  0.00    +0.097 C 
ATOM     16  C   LIG A   1      -8.308   4.601 128.981  0.00  0.00    +0.047 C 
ATOM     17  C   LIG A   1      -6.981  -0.763 124.714  0.00  0.00    +0.072 C 
ATOM     18  C   LIG A   1      -6.763  -0.387 123.220  0.00  0.00    +0.023 C 
ATOM     19  C   LIG A   1      -5.829  -1.764 125.007  0.00  0.00    +0.018 C 
ATOM     20  C   LIG A   1      -5.647  -2.122 126.465  0.00  0.00    +0.002 C 
ATOM     21  C   LIG A   1      -5.474  -0.888 127.329  0.00  0.00    +0.007 C 
ENDROOT
BRANCH  15  22
ATOM     22  O   LIG A   1      -6.071   4.802 128.134  0.00  0.00    -0.384 OA
ATOM     23  H   LIG A   1      -5.427   5.107 128.799  0.00  0.00    +0.211 HD
ENDBRANCH  15  22
BRANCH   9  24
ATOM     24  O   LIG A   1      -4.086   2.977 129.498  0.00  0.00    -0.352 OA
ATOM     25  H   LIG A   1      -4.363   3.421 128.681  0.00  0.00    +0.214 HD
ENDBRANCH   9  24
BRANCH  17  26
ATOM     26  C   LIG A   1      -8.340  -1.496 124.763  0.00  0.00    +0.313 C 
ATOM     27  O   LIG A   1      -9.370  -1.077 125.245  0.00  0.00    -0.250 OA
BRANCH  26  28
ATOM     28  O   LIG A   1      -8.217  -2.674 124.078  0.00  0.00    -0.468 OA
ATOM     29  C   LIG A   1      -9.385  -3.288 123.537  0.00  0.00    +0.280 C 
ENDBRANCH  26  28
ENDBRANCH  17  26
BRANCH   4  30
ATOM     30  O   LIG A   1      -8.052   1.990 124.126  0.00  0.00    -0.458 OA
BRANCH  30  31
ATOM     31  C   LIG A   1      -9.339   2.046 123.673  0.00  0.00    +0.304 C 
ATOM     32  O   LIG A   1     -10.336   1.872 124.355  0.00  0.00    -0.251 OA
ATOM     33  C   LIG A   1      -9.388   2.283 122.190  0.00  0.00    +0.136 C 
ENDBRANCH  30  31
ENDBRANCH   4  30
BRANCH   5  34
ATOM     34  O   LIG A   1      -6.071   3.282 125.725  0.00  0.00    -0.457 OA
BRANCH  34  35
ATOM     35  C   LIG A   1      -5.960   4.435 125.017  0.00  0.00    +0.304 C 
ATOM     36  O   LIG A   1      -6.163   5.551 125.472  0.00  0.00    -0.251 OA
ATOM     37  C   LIG A   1      -5.535   4.169 123.604  0.00  0.00    +0.136 C 
ENDBRANCH  34  35
ENDBRANCH   5  34
TORSDOF 8
ENDMDL
MODEL 7
REMARK VINA RESULT:      -6.9      1.986      2.814
REMARK  Name = NuBBE_1575
REMARK  14 active torsions:
REMARK  status: ('A' for Active; 'I' for Inactive)
REMARK    1  A    between atoms: C_1  and  C_2
REMARK    2  A    between atoms: C_4  and  O_5
REMARK    3  A    between atoms: O_5  and  C_6
REMARK    4  A    between atoms: C_6  and  C_8
REMARK    5  A    between atoms: C_9  and  O_23
REMARK    6  A    between atoms: C_13  and  O_22
REMARK    7  A    between atoms: C_19  and  C_20
REMARK    8  A    between atoms: C_19  and  O_21
REMARK    9  A    between atoms: O_23  and  C_24
REMARK   10  A    between atoms: C_24  and  C_26
REMARK   11  A    between atoms: C_27  and  C_28
REMARK   12  A    between atoms: C_27  and  C_32
REMARK   13  A    between atoms: C_28  and  O_30
REMARK   14  A    between atoms: O_30  and  C_31
REMARK                            x       y       z     vdW  Elec       q    Type
REMARK                         _______ _______ _______ _____ _____    ______ ____
ROOT
ATOM      1  C   LIG A   1      -5.552  -1.897 128.611  0.00  0.00    +0.012 C 
ATOM      2  C   LIG A   1      -6.989  -1.458 128.997  0.00  0.00    -0.021 C 
ATOM      3  C   LIG A   1      -6.995  -0.409 130.187  0.00  0.00    +0.056 C 
ATOM      4  C   LIG A   1      -6.332   0.936 129.725  0.00  0.00    +0.222 C 
ATOM      5  C   LIG A   1      -7.088   1.516 128.482  0.00  0.00    +0.223 C 
ATOM      6  C   LIG A   1      -7.023   0.510 127.288  0.00  0.00    +0.073 C 
ATOM      7  C   LIG A   1      -7.717  -0.818 127.736  0.00  0.00    +0.012 C 
ATOM      8  C   LIG A   1      -7.889  -1.807 126.560  0.00  0.00    +0.088 C 
ATOM      9  C   LIG A   1      -8.655  -1.177 125.409  0.00  0.00    +0.240 C 
ATOM     10  C   LIG A   1      -7.906  -0.002 124.925  0.00  0.00    +0.039 C 
ATOM     11  C   LIG A   1      -7.633  -0.162 123.627  0.00  0.00    +0.100 C 
ATOM     12  C   LIG A   1      -8.171  -1.463 123.227  0.00  0.00    +0.335 C 
ATOM     13  O   LIG A   1      -8.081  -1.941 122.112  0.00  0.00    -0.245 OA
ATOM     14  O   LIG A   1      -8.716  -2.072 124.310  0.00  0.00    -0.425 OA
ATOM     15  C   LIG A   1      -7.513   1.085 125.895  0.00  0.00    +0.097 C 
ATOM     16  C   LIG A   1      -6.393   1.958 125.287  0.00  0.00    +0.047 C 
ATOM     17  C   LIG A   1      -6.606  -0.997 131.609  0.00  0.00    +0.072 C 
ATOM     18  C   LIG A   1      -7.047  -0.057 132.768  0.00  0.00    +0.023 C 
ATOM     19  C   LIG A   1      -7.419  -2.297 131.867  0.00  0.00    +0.018 C 
ATOM     20  C   LIG A   1      -7.371  -3.315 130.750  0.00  0.00    +0.002 C 
ATOM     21  C   LIG A   1      -7.791  -2.713 129.423  0.00  0.00    +0.007 C 
ENDROOT
BRANCH  15  22
ATOM     22  O   LIG A   1      -8.668   1.895 126.052  0.00  0.00    -0.384 OA
ATOM     23  H   LIG A   1      -9.437   1.428 125.678  0.00  0.00    +0.211 HD
ENDBRANCH  15  22
BRANCH   9  24
ATOM     24  O   LIG A   1      -9.966  -0.820 125.783  0.00  0.00    -0.352 OA
ATOM     25  H   LIG A   1     -10.260  -0.151 125.145  0.00  0.00    +0.214 HD
ENDBRANCH   9  24
BRANCH  17  26
ATOM     26  C   LIG A   1      -5.102  -1.263 131.838  0.00  0.00    +0.313 C 
ATOM     27  O   LIG A   1      -4.180  -0.569 131.467  0.00  0.00    -0.250 OA
BRANCH  26  28
ATOM     28  O   LIG A   1      -4.979  -2.376 132.626  0.00  0.00    -0.468 OA
ATOM     29  C   LIG A   1      -3.724  -3.050 132.683  0.00  0.00    +0.280 C 
ENDBRANCH  26  28
ENDBRANCH  17  26
BRANCH   4  30
ATOM     30  O   LIG A   1      -6.365   1.895 130.806  0.00  0.00    -0.458 OA
BRANCH  30  31
ATOM     31  C   LIG A   1      -5.590   3.010 130.658  0.00  0.00    +0.304 C 
ATOM     32  O   LIG A   1      -5.991   4.162 130.708  0.00  0.00    -0.251 OA
ATOM     33  C   LIG A   1      -4.164   2.647 130.350  0.00  0.00    +0.136 C 
ENDBRANCH  30  31
ENDBRANCH   4  30
BRANCH   5  34
ATOM     34  O   LIG A   1      -8.473   1.710 128.888  0.00  0.00    -0.457 OA
BRANCH  34  35
ATOM     35  C   LIG A   1      -8.904   2.972 129.139  0.00  0.00    +0.304 C 
ATOM     36  O   LIG A   1      -8.689   3.936 128.419  0.00  0.00    -0.251 OA
ATOM     37  C   LIG A   1      -9.702   3.033 130.407  0.00  0.00    +0.136 C 
ENDBRANCH  34  35
ENDBRANCH   5  34
TORSDOF 8
ENDMDL
MODEL 8
REMARK VINA RESULT:      -6.9      2.132      6.578
REMARK  Name = NuBBE_1575
REMARK  14 active torsions:
REMARK  status: ('A' for Active; 'I' for Inactive)
REMARK    1  A    between atoms: C_1  and  C_2
REMARK    2  A    between atoms: C_4  and  O_5
REMARK    3  A    between atoms: O_5  and  C_6
REMARK    4  A    between atoms: C_6  and  C_8
REMARK    5  A    between atoms: C_9  and  O_23
REMARK    6  A    between atoms: C_13  and  O_22
REMARK    7  A    between atoms: C_19  and  C_20
REMARK    8  A    between atoms: C_19  and  O_21
REMARK    9  A    between atoms: O_23  and  C_24
REMARK   10  A    between atoms: C_24  and  C_26
REMARK   11  A    between atoms: C_27  and  C_28
REMARK   12  A    between atoms: C_27  and  C_32
REMARK   13  A    between atoms: C_28  and  O_30
REMARK   14  A    between atoms: O_30  and  C_31
REMARK                            x       y       z     vdW  Elec       q    Type
REMARK                         _______ _______ _______ _____ _____    ______ ____
ROOT
ATOM      1  C   LIG A   1      -9.281  -1.820 126.376  0.00  0.00    +0.012 C 
ATOM      2  C   LIG A   1      -7.751  -1.569 126.306  0.00  0.00    -0.021 C 
ATOM      3  C   LIG A   1      -7.357  -0.612 125.104  0.00  0.00    +0.056 C 
ATOM      4  C   LIG A   1      -7.936   0.825 125.345  0.00  0.00    +0.222 C 
ATOM      5  C   LIG A   1      -7.407   1.405 126.700  0.00  0.00    +0.223 C 
ATOM      6  C   LIG A   1      -7.854   0.498 127.891  0.00  0.00    +0.073 C 
ATOM      7  C   LIG A   1      -7.246  -0.926 127.670  0.00  0.00    +0.012 C 
ATOM      8  C   LIG A   1      -7.459  -1.843 128.896  0.00  0.00    +0.088 C 
ATOM      9  C   LIG A   1      -6.893  -1.222 130.163  0.00  0.00    +0.240 C 
ATOM     10  C   LIG A   1      -7.582   0.059 130.413  0.00  0.00    +0.039 C 
ATOM     11  C   LIG A   1      -8.150   0.021 131.621  0.00  0.00    +0.100 C 
ATOM     12  C   LIG A   1      -7.876  -1.300 132.189  0.00  0.00    +0.335 C 
ATOM     13  O   LIG A   1      -8.266  -1.687 133.274  0.00  0.00    -0.245 OA
ATOM     14  O   LIG A   1      -7.185  -2.039 131.285  0.00  0.00    -0.425 OA
ATOM     15  C   LIG A   1      -7.616   1.112 129.332  0.00  0.00    +0.097 C 
ATOM     16  C   LIG A   1      -8.727   2.142 129.632  0.00  0.00    +0.047 C 
ATOM     17  C   LIG A   1      -7.492  -1.252 123.658  0.00  0.00    +0.072 C 
ATOM     18  C   LIG A   1      -6.697  -0.450 122.588  0.00  0.00    +0.023 C 
ATOM     19  C   LIG A   1      -6.807  -2.647 123.647  0.00  0.00    +0.018 C 
ATOM     20  C   LIG A   1      -7.223  -3.574 124.767  0.00  0.00    +0.002 C 
ATOM     21  C   LIG A   1      -7.035  -2.931 126.127  0.00  0.00    +0.007 C 
ENDROOT
BRANCH  15  22
ATOM     22  O   LIG A   1      -6.364   1.778 129.406  0.00  0.00    -0.384 OA
ATOM     23  H   LIG A   1      -6.330   2.468 128.719  0.00  0.00    +0.211 HD
ENDBRANCH  15  22
BRANCH   9  24
ATOM     24  O   LIG A   1      -5.498  -1.037 130.079  0.00  0.00    -0.352 OA
ATOM     25  H   LIG A   1      -5.249  -1.248 129.166  0.00  0.00    +0.214 HD
ENDBRANCH   9  24
BRANCH  17  26
ATOM     26  C   LIG A   1      -8.931  -1.368 123.106  0.00  0.00    +0.313 C 
ATOM     27  O   LIG A   1      -9.711  -2.273 123.305  0.00  0.00    -0.250 OA
BRANCH  26  28
ATOM     28  O   LIG A   1      -9.221  -0.217 122.423  0.00  0.00    -0.468 OA
ATOM     29  C   LIG A   1     -10.518   0.360 122.557  0.00  0.00    +0.280 C 
ENDBRANCH  26  28
ENDBRANCH  17  26
BRANCH   4  30
ATOM     30  O   LIG A   1      -7.549   1.698 124.259  0.00  0.00    -0.458 OA
BRANCH  30  31
ATOM     31  C   LIG A   1      -8.349   2.781 124.030  0.00  0.00    +0.304 C 
ATOM     32  O   LIG A   1      -9.059   3.324 124.860  0.00  0.00    -0.251 OA
ATOM     33  C   LIG A   1      -8.308   3.195 122.585  0.00  0.00    +0.136 C 
ENDBRANCH  30  31
ENDBRANCH   4  30
BRANCH   5  34
ATOM     34  O   LIG A   1      -5.954   1.418 126.610  0.00  0.00    -0.457 OA
BRANCH  34  35
ATOM     35  C   LIG A   1      -5.320   2.615 126.516  0.00  0.00    +0.304 C 
ATOM     36  O   LIG A   1      -5.883   3.688 126.361  0.00  0.00    -0.251 OA
ATOM     37  C   LIG A   1      -3.835   2.457 126.650  0.00  0.00    +0.136 C 
ENDBRANCH  34  35
ENDBRANCH   5  34
TORSDOF 8
ENDMDL
MODEL 9
REMARK VINA RESULT:      -6.8      2.497      5.092
REMARK  Name = NuBBE_1575
REMARK  14 active torsions:
REMARK  status: ('A' for Active; 'I' for Inactive)
REMARK    1  A    between atoms: C_1  and  C_2
REMARK    2  A    between atoms: C_4  and  O_5
REMARK    3  A    between atoms: O_5  and  C_6
REMARK    4  A    between atoms: C_6  and  C_8
REMARK    5  A    between atoms: C_9  and  O_23
REMARK    6  A    between atoms: C_13  and  O_22
REMARK    7  A    between atoms: C_19  and  C_20
REMARK    8  A    between atoms: C_19  and  O_21
REMARK    9  A    between atoms: O_23  and  C_24
REMARK   10  A    between atoms: C_24  and  C_26
REMARK   11  A    between atoms: C_27  and  C_28
REMARK   12  A    between atoms: C_27  and  C_32
REMARK   13  A    between atoms: C_28  and  O_30
REMARK   14  A    between atoms: O_30  and  C_31
REMARK                            x       y       z     vdW  Elec       q    Type
REMARK                         _______ _______ _______ _____ _____    ______ ____
ROOT
ATOM      1  C   LIG A   1      -4.834   0.631 125.833  0.00  0.00    +0.012 C 
ATOM      2  C   LIG A   1      -6.183   1.311 126.187  0.00  0.00    -0.021 C 
ATOM      3  C   LIG A   1      -7.303   0.255 126.569  0.00  0.00    +0.056 C 
ATOM      4  C   LIG A   1      -6.922  -0.478 127.902  0.00  0.00    +0.222 C 
ATOM      5  C   LIG A   1      -6.733   0.560 129.059  0.00  0.00    +0.223 C 
ATOM      6  C   LIG A   1      -5.583   1.559 128.711  0.00  0.00    +0.073 C 
ATOM      7  C   LIG A   1      -5.980   2.316 127.402  0.00  0.00    +0.012 C 
ATOM      8  C   LIG A   1      -5.005   3.474 127.084  0.00  0.00    +0.088 C 
ATOM      9  C   LIG A   1      -4.900   4.450 128.243  0.00  0.00    +0.240 C 
ATOM     10  C   LIG A   1      -4.398   3.729 129.429  0.00  0.00    +0.039 C 
ATOM     11  C   LIG A   1      -3.277   4.316 129.855  0.00  0.00    +0.100 C 
ATOM     12  C   LIG A   1      -2.993   5.425 128.943  0.00  0.00    +0.335 C 
ATOM     13  O   LIG A   1      -2.029   6.163 129.022  0.00  0.00    -0.245 OA
ATOM     14  O   LIG A   1      -3.931   5.447 127.963  0.00  0.00    -0.425 OA
ATOM     15  C   LIG A   1      -5.112   2.487 129.906  0.00  0.00    +0.097 C 
ATOM     16  C   LIG A   1      -4.193   1.676 130.844  0.00  0.00    +0.047 C 
ATOM     17  C   LIG A   1      -7.857  -0.611 125.360  0.00  0.00    +0.072 C 
ATOM     18  C   LIG A   1      -9.216  -1.288 125.702  0.00  0.00    +0.023 C 
ATOM     19  C   LIG A   1      -8.211   0.330 124.174  0.00  0.00    +0.018 C 
ATOM     20  C   LIG A   1      -7.121   1.303 123.781  0.00  0.00    +0.002 C 
ATOM     21  C   LIG A   1      -6.657   2.133 124.962  0.00  0.00    +0.007 C 
ENDROOT
BRANCH  15  22
ATOM     22  O   LIG A   1      -6.220   2.949 130.664  0.00  0.00    -0.384 OA
ATOM     23  H   LIG A   1      -6.713   2.182 131.006  0.00  0.00    +0.211 HD
ENDBRANCH  15  22
BRANCH   9  24
ATOM     24  O   LIG A   1      -6.134   5.074 128.518  0.00  0.00    -0.352 OA
ATOM     25  H   LIG A   1      -6.123   5.921 128.045  0.00  0.00    +0.214 HD
ENDBRANCH   9  24
BRANCH  17  26
ATOM     26  C   LIG A   1      -6.936  -1.750 124.870  0.00  0.00    +0.313 C 
ATOM     27  O   LIG A   1      -6.213  -2.440 125.555  0.00  0.00    -0.250 OA
BRANCH  26  28
ATOM     28  O   LIG A   1      -7.145  -1.923 123.528  0.00  0.00    -0.468 OA
ATOM     29  C   LIG A   1      -6.025  -2.151 122.676  0.00  0.00    +0.280 C 
ENDBRANCH  26  28
ENDBRANCH  17  26
BRANCH   4  30
ATOM     30  O   LIG A   1      -7.960  -1.420 128.259  0.00  0.00    -0.458 OA
BRANCH  30  31
ATOM     31  C   LIG A   1      -7.550  -2.655 128.671  0.00  0.00    +0.304 C 
ATOM     32  O   LIG A   1      -6.450  -2.919 129.129  0.00  0.00    -0.251 OA
ATOM     33  C   LIG A   1      -8.609  -3.693 128.425  0.00  0.00    +0.136 C 
ENDBRANCH  30  31
ENDBRANCH   4  30
BRANCH   5  34
ATOM     34  O   LIG A   1      -7.992   1.282 129.182  0.00  0.00    -0.457 OA
BRANCH  34  35
ATOM     35  C   LIG A   1      -8.590   1.341 130.399  0.00  0.00    +0.304 C 
ATOM     36  O   LIG A   1      -9.226   2.298 130.814  0.00  0.00    -0.251 OA
ATOM     37  C   LIG A   1      -8.389   0.069 131.167  0.00  0.00    +0.136 C 
ENDBRANCH  34  35
ENDBRANCH   5  34
TORSDOF 8
ENDMDL
