MODEL 1
REMARK VINA RESULT:      -6.4      0.000      0.000
REMARK  Name = NuBBE_401
REMARK  6 active torsions:
REMARK  status: ('A' for Active; 'I' for Inactive)
REMARK    1  A    between atoms: C_1  and  C_2
REMARK    2  A    between atoms: C_2  and  S_3
REMARK    3  A    between atoms: S_3  and  S_4
REMARK    4  A    between atoms: S_4  and  S_5
REMARK    5  A    between atoms: S_5  and  C_6
REMARK    6  A    between atoms: C_6  and  C_7
REMARK                            x       y       z     vdW  Elec       q    Type
REMARK                         _______ _______ _______ _____ _____    ______ ____
ROOT
ATOM      1  S   LIG A   1      -9.076   2.425 123.602  0.00  0.00    -0.024 S 
ENDROOT
BRANCH   1   2
ATOM      2  S   LIG A   1      -8.946   0.693 124.702  0.00  0.00    -0.077 S 
BRANCH   2   3
ATOM      3  C   LIG A   1      -8.963  -0.590 123.411  0.00  0.00    +0.116 C 
BRANCH   3   4
ATOM      4  C   LIG A   1      -7.911  -1.656 123.617  0.00  0.00    -0.037 A 
ATOM      5  C   LIG A   1      -8.250  -2.909 124.149  0.00  0.00    +0.004 A 
ATOM      6  C   LIG A   1      -7.270  -3.878 124.381  0.00  0.00    +0.000 A 
ATOM      7  C   LIG A   1      -5.934  -3.604 124.091  0.00  0.00    +0.000 A 
ATOM      8  C   LIG A   1      -5.582  -2.363 123.572  0.00  0.00    +0.000 A 
ATOM      9  C   LIG A   1      -6.559  -1.394 123.337  0.00  0.00    +0.004 A 
ENDBRANCH   3   4
ENDBRANCH   2   3
ENDBRANCH   1   2
BRANCH   1  10
ATOM     10  S   LIG A   1      -7.215   3.281 123.731  0.00  0.00    -0.077 S 
BRANCH  10  11
ATOM     11  C   LIG A   1      -6.386   2.607 122.255  0.00  0.00    +0.116 C 
BRANCH  11  12
ATOM     12  C   LIG A   1      -6.143   3.663 121.205  0.00  0.00    -0.037 A 
ATOM     13  C   LIG A   1      -5.040   4.522 121.307  0.00  0.00    +0.004 A 
ATOM     14  C   LIG A   1      -4.794   5.477 120.318  0.00  0.00    +0.000 A 
ATOM     15  C   LIG A   1      -5.650   5.588 119.224  0.00  0.00    +0.000 A 
ATOM     16  C   LIG A   1      -6.750   4.741 119.111  0.00  0.00    +0.000 A 
ATOM     17  C   LIG A   1      -6.990   3.777 120.089  0.00  0.00    +0.004 A 
ENDBRANCH  11  12
ENDBRANCH  10  11
ENDBRANCH   1  10
TORSDOF 6
ENDMDL
MODEL 2
REMARK VINA RESULT:      -6.2      1.430      2.071
REMARK  Name = NuBBE_401
REMARK  6 active torsions:
REMARK  status: ('A' for Active; 'I' for Inactive)
REMARK    1  A    between atoms: C_1  and  C_2
REMARK    2  A    between atoms: C_2  and  S_3
REMARK    3  A    between atoms: S_3  and  S_4
REMARK    4  A    between atoms: S_4  and  S_5
REMARK    5  A    between atoms: S_5  and  C_6
REMARK    6  A    between atoms: C_6  and  C_7
REMARK                            x       y       z     vdW  Elec       q    Type
REMARK                         _______ _______ _______ _____ _____    ______ ____
ROOT
ATOM      1  S   LIG A   1      -8.036   2.833 124.798  0.00  0.00    -0.024 S 
ENDROOT
BRANCH   1   2
ATOM      2  S   LIG A   1      -7.093   1.364 125.883  0.00  0.00    -0.077 S 
BRANCH   2   3
ATOM      3  C   LIG A   1      -8.463   0.233 126.281  0.00  0.00    +0.116 C 
BRANCH   3   4
ATOM      4  C   LIG A   1      -8.552  -0.948 125.341  0.00  0.00    -0.037 A 
ATOM      5  C   LIG A   1      -7.994  -0.888 124.055  0.00  0.00    +0.004 A 
ATOM      6  C   LIG A   1      -8.116  -1.964 123.171  0.00  0.00    +0.000 A 
ATOM      7  C   LIG A   1      -8.805  -3.113 123.559  0.00  0.00    +0.000 A 
ATOM      8  C   LIG A   1      -9.371  -3.182 124.828  0.00  0.00    +0.000 A 
ATOM      9  C   LIG A   1      -9.249  -2.109 125.714  0.00  0.00    +0.004 A 
ENDBRANCH   3   4
ENDBRANCH   2   3
ENDBRANCH   1   2
BRANCH   1  10
ATOM     10  S   LIG A   1      -6.528   3.836 123.834  0.00  0.00    -0.077 S 
BRANCH  10  11
ATOM     11  C   LIG A   1      -6.371   2.888 122.286  0.00  0.00    +0.116 C 
BRANCH  11  12
ATOM     12  C   LIG A   1      -6.356   3.780 121.069  0.00  0.00    -0.037 A 
ATOM     13  C   LIG A   1      -5.251   4.603 120.809  0.00  0.00    +0.004 A 
ATOM     14  C   LIG A   1      -5.220   5.402 119.665  0.00  0.00    +0.000 A 
ATOM     15  C   LIG A   1      -6.292   5.394 118.775  0.00  0.00    +0.000 A 
ATOM     16  C   LIG A   1      -7.397   4.582 119.023  0.00  0.00    +0.000 A 
ATOM     17  C   LIG A   1      -7.424   3.771 120.157  0.00  0.00    +0.004 A 
ENDBRANCH  11  12
ENDBRANCH  10  11
ENDBRANCH   1  10
TORSDOF 6
ENDMDL
MODEL 3
REMARK VINA RESULT:      -6.1      2.510      8.308
REMARK  Name = NuBBE_401
REMARK  6 active torsions:
REMARK  status: ('A' for Active; 'I' for Inactive)
REMARK    1  A    between atoms: C_1  and  C_2
REMARK    2  A    between atoms: C_2  and  S_3
REMARK    3  A    between atoms: S_3  and  S_4
REMARK    4  A    between atoms: S_4  and  S_5
REMARK    5  A    between atoms: S_5  and  C_6
REMARK    6  A    between atoms: C_6  and  C_7
REMARK                            x       y       z     vdW  Elec       q    Type
REMARK                         _______ _______ _______ _____ _____    ______ ____
ROOT
ATOM      1  S   LIG A   1      -7.341   1.197 125.714  0.00  0.00    -0.024 S 
ENDROOT
BRANCH   1   2
ATOM      2  S   LIG A   1      -7.830   2.936 124.733  0.00  0.00    -0.077 S 
BRANCH   2   3
ATOM      3  C   LIG A   1      -6.475   3.097 123.528  0.00  0.00    +0.116 C 
BRANCH   3   4
ATOM      4  C   LIG A   1      -6.952   3.450 122.138  0.00  0.00    -0.037 A 
ATOM      5  C   LIG A   1      -6.053   3.910 121.163  0.00  0.00    +0.004 A 
ATOM      6  C   LIG A   1      -6.502   4.279 119.892  0.00  0.00    +0.000 A 
ATOM      7  C   LIG A   1      -7.859   4.200 119.580  0.00  0.00    +0.000 A 
ATOM      8  C   LIG A   1      -8.763   3.755 120.540  0.00  0.00    +0.000 A 
ATOM      9  C   LIG A   1      -8.316   3.385 121.810  0.00  0.00    +0.004 A 
ENDBRANCH   3   4
ENDBRANCH   2   3
ENDBRANCH   1   2
BRANCH   1  10
ATOM     10  S   LIG A   1      -8.744  -0.172 125.103  0.00  0.00    -0.077 S 
BRANCH  10  11
ATOM     11  C   LIG A   1      -7.803  -1.731 125.164  0.00  0.00    +0.116 C 
BRANCH  11  12
ATOM     12  C   LIG A   1      -7.927  -2.421 126.501  0.00  0.00    -0.037 A 
ATOM     13  C   LIG A   1      -7.047  -2.104 127.545  0.00  0.00    +0.004 A 
ATOM     14  C   LIG A   1      -7.182  -2.716 128.793  0.00  0.00    +0.000 A 
ATOM     15  C   LIG A   1      -8.191  -3.652 129.008  0.00  0.00    +0.000 A 
ATOM     16  C   LIG A   1      -9.072  -3.976 127.978  0.00  0.00    +0.000 A 
ATOM     17  C   LIG A   1      -8.949  -3.356 126.736  0.00  0.00    +0.004 A 
ENDBRANCH  11  12
ENDBRANCH  10  11
ENDBRANCH   1  10
TORSDOF 6
ENDMDL
MODEL 4
REMARK VINA RESULT:      -6.1      1.581      7.626
REMARK  Name = NuBBE_401
REMARK  6 active torsions:
REMARK  status: ('A' for Active; 'I' for Inactive)
REMARK    1  A    between atoms: C_1  and  C_2
REMARK    2  A    between atoms: C_2  and  S_3
REMARK    3  A    between atoms: S_3  and  S_4
REMARK    4  A    between atoms: S_4  and  S_5
REMARK    5  A    between atoms: S_5  and  C_6
REMARK    6  A    between atoms: C_6  and  C_7
REMARK                            x       y       z     vdW  Elec       q    Type
REMARK                         _______ _______ _______ _____ _____    ______ ____
ROOT
ATOM      1  S   LIG A   1      -6.699   3.057 125.608  0.00  0.00    -0.024 S 
ENDROOT
BRANCH   1   2
ATOM      2  S   LIG A   1      -5.894   4.074 124.013  0.00  0.00    -0.077 S 
BRANCH   2   3
ATOM      3  C   LIG A   1      -6.471   3.091 122.594  0.00  0.00    +0.116 C 
BRANCH   3   4
ATOM      4  C   LIG A   1      -6.440   3.855 121.289  0.00  0.00    -0.037 A 
ATOM      5  C   LIG A   1      -7.518   3.792 120.393  0.00  0.00    +0.004 A 
ATOM      6  C   LIG A   1      -7.470   4.462 119.167  0.00  0.00    +0.000 A 
ATOM      7  C   LIG A   1      -6.338   5.198 118.817  0.00  0.00    +0.000 A 
ATOM      8  C   LIG A   1      -5.259   5.261 119.692  0.00  0.00    +0.000 A 
ATOM      9  C   LIG A   1      -5.305   4.594 120.918  0.00  0.00    +0.004 A 
ENDBRANCH   3   4
ENDBRANCH   2   3
ENDBRANCH   1   2
BRANCH   1  10
ATOM     10  S   LIG A   1      -6.224   1.087 125.279  0.00  0.00    -0.077 S 
BRANCH  10  11
ATOM     11  C   LIG A   1      -7.550   0.222 126.181  0.00  0.00    +0.116 C 
BRANCH  11  12
ATOM     12  C   LIG A   1      -7.856  -1.131 125.586  0.00  0.00    -0.037 A 
ATOM     13  C   LIG A   1      -6.905  -1.786 124.792  0.00  0.00    +0.004 A 
ATOM     14  C   LIG A   1      -7.172  -3.053 124.270  0.00  0.00    +0.000 A 
ATOM     15  C   LIG A   1      -8.392  -3.674 124.529  0.00  0.00    +0.000 A 
ATOM     16  C   LIG A   1      -9.346  -3.033 125.317  0.00  0.00    +0.000 A 
ATOM     17  C   LIG A   1      -9.076  -1.774 125.852  0.00  0.00    +0.004 A 
ENDBRANCH  11  12
ENDBRANCH  10  11
ENDBRANCH   1  10
TORSDOF 6
ENDMDL
MODEL 5
REMARK VINA RESULT:      -6.1      4.012      6.966
REMARK  Name = NuBBE_401
REMARK  6 active torsions:
REMARK  status: ('A' for Active; 'I' for Inactive)
REMARK    1  A    between atoms: C_1  and  C_2
REMARK    2  A    between atoms: C_2  and  S_3
REMARK    3  A    between atoms: S_3  and  S_4
REMARK    4  A    between atoms: S_4  and  S_5
REMARK    5  A    between atoms: S_5  and  C_6
REMARK    6  A    between atoms: C_6  and  C_7
REMARK                            x       y       z     vdW  Elec       q    Type
REMARK                         _______ _______ _______ _____ _____    ______ ____
ROOT
ATOM      1  S   LIG A   1      -5.570  -0.318 128.826  0.00  0.00    -0.024 S 
ENDROOT
BRANCH   1   2
ATOM      2  S   LIG A   1      -7.355   0.618 128.422  0.00  0.00    -0.077 S 
BRANCH   2   3
ATOM      3  C   LIG A   1      -6.942   1.631 126.967  0.00  0.00    +0.116 C 
BRANCH   3   4
ATOM      4  C   LIG A   1      -7.686   1.212 125.719  0.00  0.00    -0.037 A 
ATOM      5  C   LIG A   1      -7.023   1.105 124.487  0.00  0.00    +0.004 A 
ATOM      6  C   LIG A   1      -7.720   0.762 123.326  0.00  0.00    +0.000 A 
ATOM      7  C   LIG A   1      -9.094   0.527 123.379  0.00  0.00    +0.000 A 
ATOM      8  C   LIG A   1      -9.766   0.639 124.592  0.00  0.00    +0.000 A 
ATOM      9  C   LIG A   1      -9.071   0.980 125.754  0.00  0.00    +0.004 A 
ENDBRANCH   3   4
ENDBRANCH   2   3
ENDBRANCH   1   2
BRANCH   1  10
ATOM     10  S   LIG A   1      -5.803  -2.234 128.128  0.00  0.00    -0.077 S 
BRANCH  10  11
ATOM     11  C   LIG A   1      -5.731  -1.992 126.324  0.00  0.00    +0.116 C 
BRANCH  11  12
ATOM     12  C   LIG A   1      -7.002  -2.431 125.638  0.00  0.00    -0.037 A 
ATOM     13  C   LIG A   1      -8.196  -2.542 126.364  0.00  0.00    +0.004 A 
ATOM     14  C   LIG A   1      -9.380  -2.914 125.724  0.00  0.00    +0.000 A 
ATOM     15  C   LIG A   1      -9.382  -3.185 124.358  0.00  0.00    +0.000 A 
ATOM     16  C   LIG A   1      -8.201  -3.080 123.625  0.00  0.00    +0.000 A 
ATOM     17  C   LIG A   1      -7.021  -2.694 124.258  0.00  0.00    +0.004 A 
ENDBRANCH  11  12
ENDBRANCH  10  11
ENDBRANCH   1  10
TORSDOF 6
ENDMDL
MODEL 6
REMARK VINA RESULT:      -6.0      2.656      3.287
REMARK  Name = NuBBE_401
REMARK  6 active torsions:
REMARK  status: ('A' for Active; 'I' for Inactive)
REMARK    1  A    between atoms: C_1  and  C_2
REMARK    2  A    between atoms: C_2  and  S_3
REMARK    3  A    between atoms: S_3  and  S_4
REMARK    4  A    between atoms: S_4  and  S_5
REMARK    5  A    between atoms: S_5  and  C_6
REMARK    6  A    between atoms: C_6  and  C_7
REMARK                            x       y       z     vdW  Elec       q    Type
REMARK                         _______ _______ _______ _____ _____    ______ ____
ROOT
ATOM      1  S   LIG A   1      -8.241   1.595 125.918  0.00  0.00    -0.024 S 
ENDROOT
BRANCH   1   2
ATOM      2  S   LIG A   1      -6.984   0.872 127.375  0.00  0.00    -0.077 S 
BRANCH   2   3
ATOM      3  C   LIG A   1      -6.465  -0.729 126.681  0.00  0.00    +0.116 C 
BRANCH   3   4
ATOM      4  C   LIG A   1      -7.333  -1.882 127.130  0.00  0.00    -0.037 A 
ATOM      5  C   LIG A   1      -8.305  -2.427 126.276  0.00  0.00    +0.004 A 
ATOM      6  C   LIG A   1      -9.138  -3.463 126.707  0.00  0.00    +0.000 A 
ATOM      7  C   LIG A   1      -9.015  -3.965 128.003  0.00  0.00    +0.000 A 
ATOM      8  C   LIG A   1      -8.063  -3.429 128.863  0.00  0.00    +0.000 A 
ATOM      9  C   LIG A   1      -7.228  -2.394 128.434  0.00  0.00    +0.004 A 
ENDBRANCH   3   4
ENDBRANCH   2   3
ENDBRANCH   1   2
BRANCH   1  10
ATOM     10  S   LIG A   1      -7.278   1.215 124.146  0.00  0.00    -0.077 S 
BRANCH  10  11
ATOM     11  C   LIG A   1      -6.577   2.847 123.739  0.00  0.00    +0.116 C 
BRANCH  11  12
ATOM     12  C   LIG A   1      -6.990   3.319 122.367  0.00  0.00    -0.037 A 
ATOM     13  C   LIG A   1      -6.025   3.748 121.445  0.00  0.00    +0.004 A 
ATOM     14  C   LIG A   1      -6.401   4.152 120.163  0.00  0.00    +0.000 A 
ATOM     15  C   LIG A   1      -7.744   4.138 119.791  0.00  0.00    +0.000 A 
ATOM     16  C   LIG A   1      -8.714   3.715 120.698  0.00  0.00    +0.000 A 
ATOM     17  C   LIG A   1      -8.339   3.297 121.974  0.00  0.00    +0.004 A 
ENDBRANCH  11  12
ENDBRANCH  10  11
ENDBRANCH   1  10
TORSDOF 6
ENDMDL
MODEL 7
REMARK VINA RESULT:      -6.0      3.987      5.307
REMARK  Name = NuBBE_401
REMARK  6 active torsions:
REMARK  status: ('A' for Active; 'I' for Inactive)
REMARK    1  A    between atoms: C_1  and  C_2
REMARK    2  A    between atoms: C_2  and  S_3
REMARK    3  A    between atoms: S_3  and  S_4
REMARK    4  A    between atoms: S_4  and  S_5
REMARK    5  A    between atoms: S_5  and  C_6
REMARK    6  A    between atoms: C_6  and  C_7
REMARK                            x       y       z     vdW  Elec       q    Type
REMARK                         _______ _______ _______ _____ _____    ______ ____
ROOT
ATOM      1  S   LIG A   1      -5.585  -0.899 128.929  0.00  0.00    -0.024 S 
ENDROOT
BRANCH   1   2
ATOM      2  S   LIG A   1      -6.730  -2.282 127.927  0.00  0.00    -0.077 S 
BRANCH   2   3
ATOM      3  C   LIG A   1      -5.990  -2.268 126.264  0.00  0.00    +0.116 C 
BRANCH   3   4
ATOM      4  C   LIG A   1      -7.006  -2.445 125.159  0.00  0.00    -0.037 A 
ATOM      5  C   LIG A   1      -6.730  -2.017 123.851  0.00  0.00    +0.004 A 
ATOM      6  C   LIG A   1      -7.687  -2.140 122.840  0.00  0.00    +0.000 A 
ATOM      7  C   LIG A   1      -8.938  -2.685 123.125  0.00  0.00    +0.000 A 
ATOM      8  C   LIG A   1      -9.229  -3.105 124.418  0.00  0.00    +0.000 A 
ATOM      9  C   LIG A   1      -8.274  -2.985 125.430  0.00  0.00    +0.004 A 
ENDBRANCH   3   4
ENDBRANCH   2   3
ENDBRANCH   1   2
BRANCH   1  10
ATOM     10  S   LIG A   1      -6.202   0.923 128.214  0.00  0.00    -0.077 S 
BRANCH  10  11
ATOM     11  C   LIG A   1      -7.932   0.583 127.755  0.00  0.00    +0.116 C 
BRANCH  11  12
ATOM     12  C   LIG A   1      -8.190   0.819 126.287  0.00  0.00    -0.037 A 
ATOM     13  C   LIG A   1      -9.454   0.558 125.739  0.00  0.00    +0.004 A 
ATOM     14  C   LIG A   1      -9.705   0.809 124.389  0.00  0.00    +0.000 A 
ATOM     15  C   LIG A   1      -8.696   1.316 123.572  0.00  0.00    +0.000 A 
ATOM     16  C   LIG A   1      -7.435   1.579 124.104  0.00  0.00    +0.000 A 
ATOM     17  C   LIG A   1      -7.187   1.343 125.455  0.00  0.00    +0.004 A 
ENDBRANCH  11  12
ENDBRANCH  10  11
ENDBRANCH   1  10
TORSDOF 6
ENDMDL
MODEL 8
REMARK VINA RESULT:      -5.9      3.463      7.018
REMARK  Name = NuBBE_401
REMARK  6 active torsions:
REMARK  status: ('A' for Active; 'I' for Inactive)
REMARK    1  A    between atoms: C_1  and  C_2
REMARK    2  A    between atoms: C_2  and  S_3
REMARK    3  A    between atoms: S_3  and  S_4
REMARK    4  A    between atoms: S_4  and  S_5
REMARK    5  A    between atoms: S_5  and  C_6
REMARK    6  A    between atoms: C_6  and  C_7
REMARK                            x       y       z     vdW  Elec       q    Type
REMARK                         _______ _______ _______ _____ _____    ______ ____
ROOT
ATOM      1  S   LIG A   1      -7.103   2.432 126.933  0.00  0.00    -0.024 S 
ENDROOT
BRANCH   1   2
ATOM      2  S   LIG A   1      -8.503   2.091 125.468  0.00  0.00    -0.077 S 
BRANCH   2   3
ATOM      3  C   LIG A   1      -7.470   1.624 124.043  0.00  0.00    +0.116 C 
BRANCH   3   4
ATOM      4  C   LIG A   1      -7.738   0.221 123.548  0.00  0.00    -0.037 A 
ATOM      5  C   LIG A   1      -9.044  -0.205 123.263  0.00  0.00    +0.004 A 
ATOM      6  C   LIG A   1      -9.294  -1.516 122.849  0.00  0.00    +0.000 A 
ATOM      7  C   LIG A   1      -8.242  -2.423 122.721  0.00  0.00    +0.000 A 
ATOM      8  C   LIG A   1      -6.943  -2.016 123.010  0.00  0.00    +0.000 A 
ATOM      9  C   LIG A   1      -6.690  -0.706 123.422  0.00  0.00    +0.004 A 
ENDBRANCH   3   4
ENDBRANCH   2   3
ENDBRANCH   1   2
BRANCH   1  10
ATOM     10  S   LIG A   1      -6.088   0.659 127.124  0.00  0.00    -0.077 S 
BRANCH  10  11
ATOM     11  C   LIG A   1      -6.967  -0.134 128.509  0.00  0.00    +0.116 C 
BRANCH  11  12
ATOM     12  C   LIG A   1      -7.659  -1.408 128.092  0.00  0.00    -0.037 A 
ATOM     13  C   LIG A   1      -7.933  -2.406 129.036  0.00  0.00    +0.004 A 
ATOM     14  C   LIG A   1      -8.605  -3.571 128.659  0.00  0.00    +0.000 A 
ATOM     15  C   LIG A   1      -9.003  -3.752 127.336  0.00  0.00    +0.000 A 
ATOM     16  C   LIG A   1      -8.735  -2.768 126.387  0.00  0.00    +0.000 A 
ATOM     17  C   LIG A   1      -8.078  -1.597 126.764  0.00  0.00    +0.004 A 
ENDBRANCH  11  12
ENDBRANCH  10  11
ENDBRANCH   1  10
TORSDOF 6
ENDMDL
MODEL 9
REMARK VINA RESULT:      -5.9      4.082      5.323
REMARK  Name = NuBBE_401
REMARK  6 active torsions:
REMARK  status: ('A' for Active; 'I' for Inactive)
REMARK    1  A    between atoms: C_1  and  C_2
REMARK    2  A    between atoms: C_2  and  S_3
REMARK    3  A    between atoms: S_3  and  S_4
REMARK    4  A    between atoms: S_4  and  S_5
REMARK    5  A    between atoms: S_5  and  C_6
REMARK    6  A    between atoms: C_6  and  C_7
REMARK                            x       y       z     vdW  Elec       q    Type
REMARK                         _______ _______ _______ _____ _____    ______ ____
ROOT
ATOM      1  S   LIG A   1      -5.291   1.867 126.370  0.00  0.00    -0.024 S 
ENDROOT
BRANCH   1   2
ATOM      2  S   LIG A   1      -6.561   0.717 127.506  0.00  0.00    -0.077 S 
BRANCH   2   3
ATOM      3  C   LIG A   1      -5.982  -0.971 127.147  0.00  0.00    +0.116 C 
BRANCH   3   4
ATOM      4  C   LIG A   1      -7.025  -2.030 127.427  0.00  0.00    -0.037 A 
ATOM      5  C   LIG A   1      -7.720  -2.652 126.378  0.00  0.00    +0.004 A 
ATOM      6  C   LIG A   1      -8.715  -3.597 126.640  0.00  0.00    +0.000 A 
ATOM      7  C   LIG A   1      -9.034  -3.930 127.956  0.00  0.00    +0.000 A 
ATOM      8  C   LIG A   1      -8.359  -3.316 129.006  0.00  0.00    +0.000 A 
ATOM      9  C   LIG A   1      -7.363  -2.371 128.746  0.00  0.00    +0.004 A 
ENDBRANCH   3   4
ENDBRANCH   2   3
ENDBRANCH   1   2
BRANCH   1  10
ATOM     10  S   LIG A   1      -6.380   2.382 124.708  0.00  0.00    -0.077 S 
BRANCH  10  11
ATOM     11  C   LIG A   1      -7.900   1.402 124.934  0.00  0.00    +0.116 C 
BRANCH  11  12
ATOM     12  C   LIG A   1      -7.920   0.170 124.063  0.00  0.00    -0.037 A 
ATOM     13  C   LIG A   1      -6.721  -0.380 123.588  0.00  0.00    +0.004 A 
ATOM     14  C   LIG A   1      -6.735  -1.540 122.811  0.00  0.00    +0.000 A 
ATOM     15  C   LIG A   1      -7.944  -2.156 122.495  0.00  0.00    +0.000 A 
ATOM     16  C   LIG A   1      -9.142  -1.619 122.960  0.00  0.00    +0.000 A 
ATOM     17  C   LIG A   1      -9.130  -0.469 123.748  0.00  0.00    +0.004 A 
ENDBRANCH  11  12
ENDBRANCH  10  11
ENDBRANCH   1  10
TORSDOF 6
ENDMDL
