MODEL 1
REMARK VINA RESULT:      -5.7      0.000      0.000
REMARK  Name = NuBBE_1740
REMARK  3 active torsions:
REMARK  status: ('A' for Active; 'I' for Inactive)
REMARK    1  A    between atoms: C_1  and  C_9
REMARK    2  A    between atoms: C_1  and  C_10
REMARK    3  A    between atoms: C_5  and  C_8
REMARK                            x       y       z     vdW  Elec       q    Type
REMARK                         _______ _______ _______ _____ _____    ______ ____
ROOT
ATOM      1  C   LIG A   1      -9.344   6.597 131.363  0.00  0.00    -0.076 C 
ATOM      2  C   LIG A   1     -10.372   7.005 130.570  0.00  0.00    -0.067 C 
ATOM      3  C   LIG A   1     -10.105   7.755 129.279  0.00  0.00    +0.035 C 
ATOM      4  C   LIG A   1     -11.270   8.116 128.347  0.00  0.00    +0.034 C 
ATOM      5  C   LIG A   1     -12.643   7.722 128.792  0.00  0.00    -0.076 C 
ATOM      6  C   LIG A   1     -12.859   7.109 129.961  0.00  0.00    -0.024 C 
ATOM      7  C   LIG A   1     -11.810   6.736 130.961  0.00  0.00    +0.057 C 
ATOM      8  C   LIG A   1     -13.776   8.055 127.865  0.00  0.00    +0.038 C 
ATOM      9  C   LIG A   1      -7.883   6.822 131.040  0.00  0.00    +0.038 C 
ATOM     10  C   LIG A   1      -9.523   5.876 132.679  0.00  0.00    +0.038 C 
ENDROOT
TORSDOF 0
ENDMDL
MODEL 2
REMARK VINA RESULT:      -5.7      0.418      2.003
REMARK  Name = NuBBE_1740
REMARK  3 active torsions:
REMARK  status: ('A' for Active; 'I' for Inactive)
REMARK    1  A    between atoms: C_1  and  C_9
REMARK    2  A    between atoms: C_1  and  C_10
REMARK    3  A    between atoms: C_5  and  C_8
REMARK                            x       y       z     vdW  Elec       q    Type
REMARK                         _______ _______ _______ _____ _____    ______ ____
ROOT
ATOM      1  C   LIG A   1      -9.152   6.526 131.477  0.00  0.00    -0.076 C 
ATOM      2  C   LIG A   1     -10.177   6.978 130.704  0.00  0.00    -0.067 C 
ATOM      3  C   LIG A   1     -11.619   6.754 131.119  0.00  0.00    +0.035 C 
ATOM      4  C   LIG A   1     -12.758   7.360 130.289  0.00  0.00    +0.034 C 
ATOM      5  C   LIG A   1     -12.373   8.135 129.069  0.00  0.00    -0.076 C 
ATOM      6  C   LIG A   1     -11.097   8.274 128.693  0.00  0.00    -0.024 C 
ATOM      7  C   LIG A   1      -9.909   7.705 129.402  0.00  0.00    +0.057 C 
ATOM      8  C   LIG A   1     -13.491   8.747 128.275  0.00  0.00    +0.038 C 
ATOM      9  C   LIG A   1      -9.338   5.799 132.790  0.00  0.00    +0.038 C 
ATOM     10  C   LIG A   1      -7.691   6.678 131.120  0.00  0.00    +0.038 C 
ENDROOT
TORSDOF 0
ENDMDL
MODEL 3
REMARK VINA RESULT:      -5.5      0.860      4.321
REMARK  Name = NuBBE_1740
REMARK  3 active torsions:
REMARK  status: ('A' for Active; 'I' for Inactive)
REMARK    1  A    between atoms: C_1  and  C_9
REMARK    2  A    between atoms: C_1  and  C_10
REMARK    3  A    between atoms: C_5  and  C_8
REMARK                            x       y       z     vdW  Elec       q    Type
REMARK                         _______ _______ _______ _____ _____    ______ ____
ROOT
ATOM      1  C   LIG A   1     -11.637   7.746 128.989  0.00  0.00    -0.076 C 
ATOM      2  C   LIG A   1     -10.895   7.217 130.000  0.00  0.00    -0.067 C 
ATOM      3  C   LIG A   1      -9.379   7.260 129.954  0.00  0.00    +0.035 C 
ATOM      4  C   LIG A   1      -8.562   6.752 131.149  0.00  0.00    +0.034 C 
ATOM      5  C   LIG A   1      -9.325   6.203 132.311  0.00  0.00    -0.076 C 
ATOM      6  C   LIG A   1     -10.661   6.125 132.307  0.00  0.00    -0.024 C 
ATOM      7  C   LIG A   1     -11.559   6.558 131.192  0.00  0.00    +0.057 C 
ATOM      8  C   LIG A   1      -8.521   5.731 133.488  0.00  0.00    +0.038 C 
ATOM      9  C   LIG A   1     -11.050   8.424 127.772  0.00  0.00    +0.038 C 
ATOM     10  C   LIG A   1     -13.148   7.715 128.941  0.00  0.00    +0.038 C 
ENDROOT
TORSDOF 0
ENDMDL
MODEL 4
REMARK VINA RESULT:      -5.4      0.999      4.660
REMARK  Name = NuBBE_1740
REMARK  3 active torsions:
REMARK  status: ('A' for Active; 'I' for Inactive)
REMARK    1  A    between atoms: C_1  and  C_9
REMARK    2  A    between atoms: C_1  and  C_10
REMARK    3  A    between atoms: C_5  and  C_8
REMARK                            x       y       z     vdW  Elec       q    Type
REMARK                         _______ _______ _______ _____ _____    ______ ____
ROOT
ATOM      1  C   LIG A   1     -12.301   7.268 127.960  0.00  0.00    -0.076 C 
ATOM      2  C   LIG A   1     -11.642   7.040 129.129  0.00  0.00    -0.067 C 
ATOM      3  C   LIG A   1     -12.406   6.860 130.427  0.00  0.00    +0.035 C 
ATOM      4  C   LIG A   1     -11.653   6.502 131.716  0.00  0.00    +0.034 C 
ATOM      5  C   LIG A   1     -10.165   6.376 131.621  0.00  0.00    -0.076 C 
ATOM      6  C   LIG A   1      -9.508   6.593 130.476  0.00  0.00    -0.024 C 
ATOM      7  C   LIG A   1     -10.129   6.976 129.170  0.00  0.00    +0.057 C 
ATOM      8  C   LIG A   1      -9.436   6.000 132.879  0.00  0.00    +0.038 C 
ATOM      9  C   LIG A   1     -13.807   7.340 127.836  0.00  0.00    +0.038 C 
ATOM     10  C   LIG A   1     -11.617   7.492 126.631  0.00  0.00    +0.038 C 
ENDROOT
TORSDOF 0
ENDMDL
MODEL 5
REMARK VINA RESULT:      -5.4      9.446     10.462
REMARK  Name = NuBBE_1740
REMARK  3 active torsions:
REMARK  status: ('A' for Active; 'I' for Inactive)
REMARK    1  A    between atoms: C_1  and  C_9
REMARK    2  A    between atoms: C_1  and  C_10
REMARK    3  A    between atoms: C_5  and  C_8
REMARK                            x       y       z     vdW  Elec       q    Type
REMARK                         _______ _______ _______ _____ _____    ______ ____
ROOT
ATOM      1  C   LIG A   1      -7.898   2.577 123.253  0.00  0.00    -0.076 C 
ATOM      2  C   LIG A   1      -7.469   3.167 122.104  0.00  0.00    -0.067 C 
ATOM      3  C   LIG A   1      -8.439   3.466 120.976  0.00  0.00    +0.035 C 
ATOM      4  C   LIG A   1      -7.957   4.224 119.732  0.00  0.00    +0.034 C 
ATOM      5  C   LIG A   1      -6.513   4.611 119.688  0.00  0.00    -0.076 C 
ATOM      6  C   LIG A   1      -5.664   4.288 120.671  0.00  0.00    -0.024 C 
ATOM      7  C   LIG A   1      -6.010   3.528 121.912  0.00  0.00    +0.057 C 
ATOM      8  C   LIG A   1      -6.053   5.375 118.480  0.00  0.00    +0.038 C 
ATOM      9  C   LIG A   1      -9.336   2.192 123.522  0.00  0.00    +0.038 C 
ATOM     10  C   LIG A   1      -6.993   2.214 124.408  0.00  0.00    +0.038 C 
ENDROOT
TORSDOF 0
ENDMDL
MODEL 6
REMARK VINA RESULT:      -5.4     10.935     11.976
REMARK  Name = NuBBE_1740
REMARK  3 active torsions:
REMARK  status: ('A' for Active; 'I' for Inactive)
REMARK    1  A    between atoms: C_1  and  C_9
REMARK    2  A    between atoms: C_1  and  C_10
REMARK    3  A    between atoms: C_5  and  C_8
REMARK                            x       y       z     vdW  Elec       q    Type
REMARK                         _______ _______ _______ _____ _____    ______ ____
ROOT
ATOM      1  C   LIG A   1      -8.277  -2.751 124.377  0.00  0.00    -0.076 C 
ATOM      2  C   LIG A   1      -8.105  -2.829 125.725  0.00  0.00    -0.067 C 
ATOM      3  C   LIG A   1      -9.124  -3.536 126.597  0.00  0.00    +0.035 C 
ATOM      4  C   LIG A   1      -8.862  -3.703 128.100  0.00  0.00    +0.034 C 
ATOM      5  C   LIG A   1      -7.595  -3.118 128.639  0.00  0.00    -0.076 C 
ATOM      6  C   LIG A   1      -6.737  -2.451 127.859  0.00  0.00    -0.024 C 
ATOM      7  C   LIG A   1      -6.900  -2.199 126.393  0.00  0.00    +0.057 C 
ATOM      8  C   LIG A   1      -7.332  -3.307 130.105  0.00  0.00    +0.038 C 
ATOM      9  C   LIG A   1      -9.447  -3.358 123.636  0.00  0.00    +0.038 C 
ATOM     10  C   LIG A   1      -7.328  -2.037 123.441  0.00  0.00    +0.038 C 
ENDROOT
TORSDOF 0
ENDMDL
MODEL 7
REMARK VINA RESULT:      -5.2      1.184      1.971
REMARK  Name = NuBBE_1740
REMARK  3 active torsions:
REMARK  status: ('A' for Active; 'I' for Inactive)
REMARK    1  A    between atoms: C_1  and  C_9
REMARK    2  A    between atoms: C_1  and  C_10
REMARK    3  A    between atoms: C_5  and  C_8
REMARK                            x       y       z     vdW  Elec       q    Type
REMARK                         _______ _______ _______ _____ _____    ______ ____
ROOT
ATOM      1  C   LIG A   1      -7.772   6.142 132.195  0.00  0.00    -0.076 C 
ATOM      2  C   LIG A   1      -8.984   6.464 131.667  0.00  0.00    -0.067 C 
ATOM      3  C   LIG A   1      -9.083   7.199 130.343  0.00  0.00    +0.035 C 
ATOM      4  C   LIG A   1     -10.458   7.461 129.714  0.00  0.00    +0.034 C 
ATOM      5  C   LIG A   1     -11.656   6.991 130.476  0.00  0.00    -0.076 C 
ATOM      6  C   LIG A   1     -11.546   6.394 131.668  0.00  0.00    -0.024 C 
ATOM      7  C   LIG A   1     -10.267   6.113 132.392  0.00  0.00    +0.057 C 
ATOM      8  C   LIG A   1     -12.997   7.228 129.843  0.00  0.00    +0.038 C 
ATOM      9  C   LIG A   1      -6.449   6.453 131.532  0.00  0.00    +0.038 C 
ATOM     10  C   LIG A   1      -7.584   5.443 133.523  0.00  0.00    +0.038 C 
ENDROOT
TORSDOF 0
ENDMDL
MODEL 8
REMARK VINA RESULT:      -5.1      9.626     11.139
REMARK  Name = NuBBE_1740
REMARK  3 active torsions:
REMARK  status: ('A' for Active; 'I' for Inactive)
REMARK    1  A    between atoms: C_1  and  C_9
REMARK    2  A    between atoms: C_1  and  C_10
REMARK    3  A    between atoms: C_5  and  C_8
REMARK                            x       y       z     vdW  Elec       q    Type
REMARK                         _______ _______ _______ _____ _____    ______ ____
ROOT
ATOM      1  C   LIG A   1      -6.944   4.625 119.270  0.00  0.00    -0.076 C 
ATOM      2  C   LIG A   1      -6.610   4.263 120.539  0.00  0.00    -0.067 C 
ATOM      3  C   LIG A   1      -5.260   4.637 121.122  0.00  0.00    +0.035 C 
ATOM      4  C   LIG A   1      -4.941   4.312 122.587  0.00  0.00    +0.034 C 
ATOM      5  C   LIG A   1      -5.998   3.599 123.371  0.00  0.00    -0.076 C 
ATOM      6  C   LIG A   1      -7.160   3.232 122.819  0.00  0.00    -0.024 C 
ATOM      7  C   LIG A   1      -7.568   3.466 121.400  0.00  0.00    +0.057 C 
ATOM      8  C   LIG A   1      -5.690   3.306 124.811  0.00  0.00    +0.038 C 
ATOM      9  C   LIG A   1      -6.046   5.424 118.352  0.00  0.00    +0.038 C 
ATOM     10  C   LIG A   1      -8.251   4.264 118.603  0.00  0.00    +0.038 C 
ENDROOT
TORSDOF 0
ENDMDL
MODEL 9
REMARK VINA RESULT:      -5.1     11.059     11.700
REMARK  Name = NuBBE_1740
REMARK  3 active torsions:
REMARK  status: ('A' for Active; 'I' for Inactive)
REMARK    1  A    between atoms: C_1  and  C_9
REMARK    2  A    between atoms: C_1  and  C_10
REMARK    3  A    between atoms: C_5  and  C_8
REMARK                            x       y       z     vdW  Elec       q    Type
REMARK                         _______ _______ _______ _____ _____    ______ ____
ROOT
ATOM      1  C   LIG A   1      -8.291  -3.225 127.865  0.00  0.00    -0.076 C 
ATOM      2  C   LIG A   1      -7.803  -2.974 126.620  0.00  0.00    -0.067 C 
ATOM      3  C   LIG A   1      -8.419  -3.629 125.398  0.00  0.00    +0.035 C 
ATOM      4  C   LIG A   1      -7.923  -3.255 123.995  0.00  0.00    +0.034 C 
ATOM      5  C   LIG A   1      -6.809  -2.260 123.911  0.00  0.00    -0.076 C 
ATOM      6  C   LIG A   1      -6.244  -1.736 125.005  0.00  0.00    -0.024 C 
ATOM      7  C   LIG A   1      -6.622  -2.047 126.419  0.00  0.00    +0.057 C 
ATOM      8  C   LIG A   1      -6.344  -1.879 122.535  0.00  0.00    +0.038 C 
ATOM      9  C   LIG A   1      -9.469  -4.132 128.147  0.00  0.00    +0.038 C 
ATOM     10  C   LIG A   1      -7.715  -2.641 129.135  0.00  0.00    +0.038 C 
ENDROOT
TORSDOF 0
ENDMDL
