MODEL 1
REMARK VINA RESULT:      -7.3      0.000      0.000
REMARK  Name = NuBBE_2392
REMARK  11 active torsions:
REMARK  status: ('A' for Active; 'I' for Inactive)
REMARK    1  A    between atoms: C_1  and  C_2
REMARK    2  A    between atoms: C_7  and  C_18
REMARK    3  A    between atoms: C_7  and  O_19
REMARK    4  A    between atoms: C_8  and  C_10
REMARK    5  A    between atoms: C_10  and  C_11
REMARK    6  A    between atoms: C_11  and  C_12
REMARK    7  A    between atoms: C_12  and  C_17
REMARK    8  A    between atoms: C_13  and  C_14
REMARK    9  A    between atoms: C_14  and  O_16
REMARK   10  A    between atoms: C_20  and  C_21
REMARK   11  A    between atoms: C_20  and  C_22
REMARK                            x       y       z     vdW  Elec       q    Type
REMARK                         _______ _______ _______ _____ _____    ______ ____
ROOT
ATOM      1  C   LIG A   1      -8.322   0.146 126.504  0.00  0.00    +0.012 C 
ATOM      2  C   LIG A   1      -7.668   0.019 125.120  0.00  0.00    -0.023 C 
ATOM      3  C   LIG A   1      -8.460  -0.936 124.147  0.00  0.00    +0.001 C 
ATOM      4  C   LIG A   1      -9.814  -0.321 123.776  0.00  0.00    +0.007 C 
ATOM      5  C   LIG A   1      -9.565   0.919 122.928  0.00  0.00    +0.035 C 
ATOM      6  C   LIG A   1      -8.785   2.003 123.686  0.00  0.00    +0.067 C 
ATOM      7  C   LIG A   1      -7.518   1.473 124.455  0.00  0.00    +0.027 C 
ATOM      8  C   LIG A   1      -8.378   3.084 122.664  0.00  0.00    +0.041 C 
ATOM      9  C   LIG A   1      -8.519  -2.463 124.526  0.00  0.00    -0.032 C 
ATOM     10  C   LIG A   1      -9.408  -2.811 125.737  0.00  0.00    +0.011 C 
ATOM     11  C   LIG A   1      -9.088  -3.280 123.334  0.00  0.00    +0.011 C 
ATOM     12  C   LIG A   1      -7.072  -2.959 124.767  0.00  0.00    +0.007 C 
ATOM     13  C   LIG A   1      -6.270  -2.083 125.724  0.00  0.00    +0.001 C 
ATOM     14  C   LIG A   1      -6.250  -0.612 125.301  0.00  0.00    +0.007 C 
ENDROOT
BRANCH   6  15
ATOM     15  O   LIG A   1      -9.711   2.585 124.603  0.00  0.00    -0.389 OA
ATOM     16  H   LIG A   1      -9.958   3.465 124.268  0.00  0.00    +0.210 HD
ENDBRANCH   6  15
BRANCH   7  17
ATOM     17  C   LIG A   1      -6.836   2.564 125.376  0.00  0.00    +0.011 C 
BRANCH  17  18
ATOM     18  C   LIG A   1      -5.440   3.120 125.015  0.00  0.00    +0.031 C 
BRANCH  18  19
ATOM     19  C   LIG A   1      -4.410   2.928 126.124  0.00  0.00    -0.066 C 
ATOM     20  C   LIG A   1      -3.217   3.556 126.057  0.00  0.00    +0.090 C 
ATOM     21  C   LIG A   1      -4.839   2.084 127.295  0.00  0.00    +0.039 C 
BRANCH  20  22
ATOM     22  C   LIG A   1      -2.192   3.525 127.121  0.00  0.00    +0.330 C 
ATOM     23  O   LIG A   1      -2.135   4.289 128.084  0.00  0.00    -0.246 OA
BRANCH  22  24
ATOM     24  O   LIG A   1      -1.291   2.550 126.904  0.00  0.00    -0.477 OA
ATOM     25  H   LIG A   1      -1.401   2.044 126.094  0.00  0.00    +0.295 HD
ENDBRANCH  22  24
ENDBRANCH  20  22
ENDBRANCH  18  19
ENDBRANCH  17  18
ENDBRANCH   7  17
TORSDOF 6
ENDMDL
MODEL 2
REMARK VINA RESULT:      -6.9      4.275      6.213
REMARK  Name = NuBBE_2392
REMARK  11 active torsions:
REMARK  status: ('A' for Active; 'I' for Inactive)
REMARK    1  A    between atoms: C_1  and  C_2
REMARK    2  A    between atoms: C_7  and  C_18
REMARK    3  A    between atoms: C_7  and  O_19
REMARK    4  A    between atoms: C_8  and  C_10
REMARK    5  A    between atoms: C_10  and  C_11
REMARK    6  A    between atoms: C_11  and  C_12
REMARK    7  A    between atoms: C_12  and  C_17
REMARK    8  A    between atoms: C_13  and  C_14
REMARK    9  A    between atoms: C_14  and  O_16
REMARK   10  A    between atoms: C_20  and  C_21
REMARK   11  A    between atoms: C_20  and  C_22
REMARK                            x       y       z     vdW  Elec       q    Type
REMARK                         _______ _______ _______ _____ _____    ______ ____
ROOT
ATOM      1  C   LIG A   1      -7.896  -0.334 127.932  0.00  0.00    +0.012 C 
ATOM      2  C   LIG A   1      -7.029  -1.585 127.720  0.00  0.00    -0.023 C 
ATOM      3  C   LIG A   1      -7.248  -2.684 128.829  0.00  0.00    +0.001 C 
ATOM      4  C   LIG A   1      -8.656  -3.281 128.723  0.00  0.00    +0.007 C 
ATOM      5  C   LIG A   1      -8.750  -4.068 127.423  0.00  0.00    +0.035 C 
ATOM      6  C   LIG A   1      -8.556  -3.182 126.183  0.00  0.00    +0.067 C 
ATOM      7  C   LIG A   1      -7.323  -2.208 126.268  0.00  0.00    +0.027 C 
ATOM      8  C   LIG A   1      -8.420  -4.113 124.961  0.00  0.00    +0.041 C 
ATOM      9  C   LIG A   1      -6.799  -2.328 130.295  0.00  0.00    -0.032 C 
ATOM     10  C   LIG A   1      -7.678  -1.290 131.023  0.00  0.00    +0.011 C 
ATOM     11  C   LIG A   1      -6.830  -3.604 131.181  0.00  0.00    +0.011 C 
ATOM     12  C   LIG A   1      -5.330  -1.843 130.248  0.00  0.00    +0.007 C 
ATOM     13  C   LIG A   1      -5.070  -0.758 129.208  0.00  0.00    +0.001 C 
ATOM     14  C   LIG A   1      -5.527  -1.165 127.805  0.00  0.00    +0.007 C 
ENDROOT
BRANCH   6  15
ATOM     15  O   LIG A   1      -9.764  -2.436 126.040  0.00  0.00    -0.389 OA
ATOM     16  H   LIG A   1     -10.350  -2.661 126.785  0.00  0.00    +0.210 HD
ENDBRANCH   6  15
BRANCH   7  17
ATOM     17  C   LIG A   1      -7.247  -1.178 125.070  0.00  0.00    +0.011 C 
BRANCH  17  18
ATOM     18  C   LIG A   1      -5.926  -0.997 124.286  0.00  0.00    +0.031 C 
BRANCH  18  19
ATOM     19  C   LIG A   1      -5.450  -2.276 123.605  0.00  0.00    -0.066 C 
ATOM     20  C   LIG A   1      -4.761  -3.201 124.305  0.00  0.00    +0.090 C 
ATOM     21  C   LIG A   1      -5.865  -2.462 122.169  0.00  0.00    +0.039 C 
BRANCH  20  22
ATOM     22  C   LIG A   1      -4.344  -4.516 123.776  0.00  0.00    +0.330 C 
ATOM     23  O   LIG A   1      -3.243  -4.778 123.294  0.00  0.00    -0.246 OA
BRANCH  22  24
ATOM     24  O   LIG A   1      -5.338  -5.418 123.868  0.00  0.00    -0.477 OA
ATOM     25  H   LIG A   1      -5.119  -6.247 124.303  0.00  0.00    +0.295 HD
ENDBRANCH  22  24
ENDBRANCH  20  22
ENDBRANCH  18  19
ENDBRANCH  17  18
ENDBRANCH   7  17
TORSDOF 6
ENDMDL
MODEL 3
REMARK VINA RESULT:      -6.9      2.213      4.441
REMARK  Name = NuBBE_2392
REMARK  11 active torsions:
REMARK  status: ('A' for Active; 'I' for Inactive)
REMARK    1  A    between atoms: C_1  and  C_2
REMARK    2  A    between atoms: C_7  and  C_18
REMARK    3  A    between atoms: C_7  and  O_19
REMARK    4  A    between atoms: C_8  and  C_10
REMARK    5  A    between atoms: C_10  and  C_11
REMARK    6  A    between atoms: C_11  and  C_12
REMARK    7  A    between atoms: C_12  and  C_17
REMARK    8  A    between atoms: C_13  and  C_14
REMARK    9  A    between atoms: C_14  and  O_16
REMARK   10  A    between atoms: C_20  and  C_21
REMARK   11  A    between atoms: C_20  and  C_22
REMARK                            x       y       z     vdW  Elec       q    Type
REMARK                         _______ _______ _______ _____ _____    ______ ____
ROOT
ATOM      1  C   LIG A   1      -5.253  -1.432 125.054  0.00  0.00    +0.012 C 
ATOM      2  C   LIG A   1      -6.455  -0.609 125.544  0.00  0.00    -0.023 C 
ATOM      3  C   LIG A   1      -7.627  -1.502 126.106  0.00  0.00    +0.001 C 
ATOM      4  C   LIG A   1      -7.198  -2.197 127.403  0.00  0.00    +0.007 C 
ATOM      5  C   LIG A   1      -7.015  -1.137 128.480  0.00  0.00    +0.035 C 
ATOM      6  C   LIG A   1      -5.905  -0.133 128.135  0.00  0.00    +0.067 C 
ATOM      7  C   LIG A   1      -5.977   0.434 126.669  0.00  0.00    +0.027 C 
ATOM      8  C   LIG A   1      -5.984   1.018 129.158  0.00  0.00    +0.041 C 
ATOM      9  C   LIG A   1      -8.376  -2.435 125.083  0.00  0.00    -0.032 C 
ATOM     10  C   LIG A   1      -7.570  -3.651 124.581  0.00  0.00    +0.011 C 
ATOM     11  C   LIG A   1      -9.656  -3.019 125.741  0.00  0.00    +0.011 C 
ATOM     12  C   LIG A   1      -8.836  -1.570 123.884  0.00  0.00    +0.007 C 
ATOM     13  C   LIG A   1      -7.731  -0.706 123.286  0.00  0.00    +0.001 C 
ATOM     14  C   LIG A   1      -7.043   0.178 124.329  0.00  0.00    +0.007 C 
ENDROOT
BRANCH   6  15
ATOM     15  O   LIG A   1      -4.673  -0.823 128.338  0.00  0.00    -0.389 OA
ATOM     16  H   LIG A   1      -4.875  -1.759 128.515  0.00  0.00    +0.210 HD
ENDBRANCH   6  15
BRANCH   7  17
ATOM     17  C   LIG A   1      -4.727   1.319 126.272  0.00  0.00    +0.011 C 
BRANCH  17  18
ATOM     18  C   LIG A   1      -4.798   2.859 126.396  0.00  0.00    +0.031 C 
BRANCH  18  19
ATOM     19  C   LIG A   1      -5.972   3.471 125.639  0.00  0.00    -0.066 C 
ATOM     20  C   LIG A   1      -7.110   3.786 126.293  0.00  0.00    +0.090 C 
ATOM     21  C   LIG A   1      -5.746   3.764 124.179  0.00  0.00    +0.039 C 
BRANCH  20  22
ATOM     22  C   LIG A   1      -8.265   4.476 125.683  0.00  0.00    +0.330 C 
ATOM     23  O   LIG A   1      -8.509   5.679 125.770  0.00  0.00    -0.246 OA
BRANCH  22  24
ATOM     24  O   LIG A   1      -9.054   3.615 125.016  0.00  0.00    -0.477 OA
ATOM     25  H   LIG A   1      -8.734   3.325 124.157  0.00  0.00    +0.295 HD
ENDBRANCH  22  24
ENDBRANCH  20  22
ENDBRANCH  18  19
ENDBRANCH  17  18
ENDBRANCH   7  17
TORSDOF 6
ENDMDL
MODEL 4
REMARK VINA RESULT:      -6.7      1.789      2.103
REMARK  Name = NuBBE_2392
REMARK  11 active torsions:
REMARK  status: ('A' for Active; 'I' for Inactive)
REMARK    1  A    between atoms: C_1  and  C_2
REMARK    2  A    between atoms: C_7  and  C_18
REMARK    3  A    between atoms: C_7  and  O_19
REMARK    4  A    between atoms: C_8  and  C_10
REMARK    5  A    between atoms: C_10  and  C_11
REMARK    6  A    between atoms: C_11  and  C_12
REMARK    7  A    between atoms: C_12  and  C_17
REMARK    8  A    between atoms: C_13  and  C_14
REMARK    9  A    between atoms: C_14  and  O_16
REMARK   10  A    between atoms: C_20  and  C_21
REMARK   11  A    between atoms: C_20  and  C_22
REMARK                            x       y       z     vdW  Elec       q    Type
REMARK                         _______ _______ _______ _____ _____    ______ ____
ROOT
ATOM      1  C   LIG A   1      -7.036  -1.006 127.376  0.00  0.00    +0.012 C 
ATOM      2  C   LIG A   1      -6.919  -0.543 125.915  0.00  0.00    -0.023 C 
ATOM      3  C   LIG A   1      -8.095  -1.067 125.005  0.00  0.00    +0.001 C 
ATOM      4  C   LIG A   1      -9.422  -0.417 125.413  0.00  0.00    +0.007 C 
ATOM      5  C   LIG A   1      -9.353   1.067 125.082  0.00  0.00    +0.035 C 
ATOM      6  C   LIG A   1      -8.251   1.795 125.865  0.00  0.00    +0.067 C 
ATOM      7  C   LIG A   1      -6.858   1.061 125.858  0.00  0.00    +0.027 C 
ATOM      8  C   LIG A   1      -8.112   3.211 125.267  0.00  0.00    +0.041 C 
ATOM      9  C   LIG A   1      -8.178  -2.620 124.759  0.00  0.00    -0.032 C 
ATOM     10  C   LIG A   1      -8.623  -3.460 125.973  0.00  0.00    +0.011 C 
ATOM     11  C   LIG A   1      -9.207  -2.922 123.635  0.00  0.00    +0.011 C 
ATOM     12  C   LIG A   1      -6.798  -3.106 124.252  0.00  0.00    +0.007 C 
ATOM     13  C   LIG A   1      -5.627  -2.647 125.115  0.00  0.00    +0.001 C 
ATOM     14  C   LIG A   1      -5.601  -1.130 125.317  0.00  0.00    +0.007 C 
ENDROOT
BRANCH   6  15
ATOM     15  O   LIG A   1      -8.735   1.923 127.200  0.00  0.00    -0.389 OA
ATOM     16  H   LIG A   1      -9.488   2.540 127.192  0.00  0.00    +0.210 HD
ENDBRANCH   6  15
BRANCH   7  17
ATOM     17  C   LIG A   1      -5.790   1.725 126.817  0.00  0.00    +0.011 C 
BRANCH  17  18
ATOM     18  C   LIG A   1      -4.404   2.137 126.266  0.00  0.00    +0.031 C 
BRANCH  18  19
ATOM     19  C   LIG A   1      -3.820   3.361 126.962  0.00  0.00    -0.066 C 
ATOM     20  C   LIG A   1      -4.635   4.258 127.555  0.00  0.00    +0.090 C 
ATOM     21  C   LIG A   1      -2.316   3.449 127.009  0.00  0.00    +0.039 C 
BRANCH  20  22
ATOM     22  C   LIG A   1      -4.174   5.420 128.344  0.00  0.00    +0.330 C 
ATOM     23  O   LIG A   1      -3.855   5.397 129.532  0.00  0.00    -0.246 OA
BRANCH  22  24
ATOM     24  O   LIG A   1      -4.155   6.540 127.601  0.00  0.00    -0.477 OA
ATOM     25  H   LIG A   1      -4.577   7.313 127.988  0.00  0.00    +0.295 HD
ENDBRANCH  22  24
ENDBRANCH  20  22
ENDBRANCH  18  19
ENDBRANCH  17  18
ENDBRANCH   7  17
TORSDOF 6
ENDMDL
MODEL 5
REMARK VINA RESULT:      -6.6      1.801      2.491
REMARK  Name = NuBBE_2392
REMARK  11 active torsions:
REMARK  status: ('A' for Active; 'I' for Inactive)
REMARK    1  A    between atoms: C_1  and  C_2
REMARK    2  A    between atoms: C_7  and  C_18
REMARK    3  A    between atoms: C_7  and  O_19
REMARK    4  A    between atoms: C_8  and  C_10
REMARK    5  A    between atoms: C_10  and  C_11
REMARK    6  A    between atoms: C_11  and  C_12
REMARK    7  A    between atoms: C_12  and  C_17
REMARK    8  A    between atoms: C_13  and  C_14
REMARK    9  A    between atoms: C_14  and  O_16
REMARK   10  A    between atoms: C_20  and  C_21
REMARK   11  A    between atoms: C_20  and  C_22
REMARK                            x       y       z     vdW  Elec       q    Type
REMARK                         _______ _______ _______ _____ _____    ______ ____
ROOT
ATOM      1  C   LIG A   1      -7.588   0.471 126.628  0.00  0.00    +0.012 C 
ATOM      2  C   LIG A   1      -6.394   0.472 125.661  0.00  0.00    -0.023 C 
ATOM      3  C   LIG A   1      -6.773  -0.013 124.210  0.00  0.00    +0.001 C 
ATOM      4  C   LIG A   1      -7.702   0.999 123.531  0.00  0.00    +0.007 C 
ATOM      5  C   LIG A   1      -6.919   2.280 123.281  0.00  0.00    +0.035 C 
ATOM      6  C   LIG A   1      -6.434   2.937 124.581  0.00  0.00    +0.067 C 
ATOM      7  C   LIG A   1      -5.752   1.944 125.594  0.00  0.00    +0.027 C 
ATOM      8  C   LIG A   1      -5.454   4.065 124.197  0.00  0.00    +0.041 C 
ATOM      9  C   LIG A   1      -7.213  -1.516 124.045  0.00  0.00    -0.032 C 
ATOM     10  C   LIG A   1      -8.599  -1.867 124.622  0.00  0.00    +0.011 C 
ATOM     11  C   LIG A   1      -7.277  -1.884 122.537  0.00  0.00    +0.011 C 
ATOM     12  C   LIG A   1      -6.126  -2.413 124.686  0.00  0.00    +0.007 C 
ATOM     13  C   LIG A   1      -5.742  -2.001 126.103  0.00  0.00    +0.001 C 
ATOM     14  C   LIG A   1      -5.324  -0.531 126.197  0.00  0.00    +0.007 C 
ENDROOT
BRANCH   6  15
ATOM     15  O   LIG A   1      -7.586   3.533 125.175  0.00  0.00    -0.389 OA
ATOM     16  H   LIG A   1      -8.377   3.143 124.761  0.00  0.00    +0.210 HD
ENDBRANCH   6  15
BRANCH   7  17
ATOM     17  C   LIG A   1      -5.427   2.596 126.998  0.00  0.00    +0.011 C 
BRANCH  17  18
ATOM     18  C   LIG A   1      -3.968   2.655 127.506  0.00  0.00    +0.031 C 
BRANCH  18  19
ATOM     19  C   LIG A   1      -3.624   3.969 128.199  0.00  0.00    -0.066 C 
ATOM     20  C   LIG A   1      -3.460   5.095 127.475  0.00  0.00    +0.090 C 
ATOM     21  C   LIG A   1      -3.566   3.935 129.704  0.00  0.00    +0.039 C 
BRANCH  20  22
ATOM     22  C   LIG A   1      -3.230   6.438 128.049  0.00  0.00    +0.330 C 
ATOM     23  O   LIG A   1      -4.104   7.203 128.453  0.00  0.00    -0.246 OA
BRANCH  22  24
ATOM     24  O   LIG A   1      -1.921   6.745 128.067  0.00  0.00    -0.477 OA
ATOM     25  H   LIG A   1      -1.535   6.904 128.933  0.00  0.00    +0.295 HD
ENDBRANCH  22  24
ENDBRANCH  20  22
ENDBRANCH  18  19
ENDBRANCH  17  18
ENDBRANCH   7  17
TORSDOF 6
ENDMDL
MODEL 6
REMARK VINA RESULT:      -6.5      2.732      5.215
REMARK  Name = NuBBE_2392
REMARK  11 active torsions:
REMARK  status: ('A' for Active; 'I' for Inactive)
REMARK    1  A    between atoms: C_1  and  C_2
REMARK    2  A    between atoms: C_7  and  C_18
REMARK    3  A    between atoms: C_7  and  O_19
REMARK    4  A    between atoms: C_8  and  C_10
REMARK    5  A    between atoms: C_10  and  C_11
REMARK    6  A    between atoms: C_11  and  C_12
REMARK    7  A    between atoms: C_12  and  C_17
REMARK    8  A    between atoms: C_13  and  C_14
REMARK    9  A    between atoms: C_14  and  O_16
REMARK   10  A    between atoms: C_20  and  C_21
REMARK   11  A    between atoms: C_20  and  C_22
REMARK                            x       y       z     vdW  Elec       q    Type
REMARK                         _______ _______ _______ _____ _____    ______ ____
ROOT
ATOM      1  C   LIG A   1      -5.719  -2.362 126.632  0.00  0.00    +0.012 C 
ATOM      2  C   LIG A   1      -6.921  -1.497 127.044  0.00  0.00    -0.023 C 
ATOM      3  C   LIG A   1      -7.015  -1.270 128.601  0.00  0.00    +0.001 C 
ATOM      4  C   LIG A   1      -5.848  -0.404 129.089  0.00  0.00    +0.007 C 
ATOM      5  C   LIG A   1      -6.016   0.997 128.518  0.00  0.00    +0.035 C 
ATOM      6  C   LIG A   1      -5.963   1.018 126.983  0.00  0.00    +0.067 C 
ATOM      7  C   LIG A   1      -6.852  -0.080 126.289  0.00  0.00    +0.027 C 
ATOM      8  C   LIG A   1      -6.392   2.425 126.521  0.00  0.00    +0.041 C 
ATOM      9  C   LIG A   1      -7.310  -2.531 129.496  0.00  0.00    -0.032 C 
ATOM     10  C   LIG A   1      -6.150  -3.540 129.622  0.00  0.00    +0.011 C 
ATOM     11  C   LIG A   1      -7.641  -2.083 130.946  0.00  0.00    +0.011 C 
ATOM     12  C   LIG A   1      -8.571  -3.236 128.941  0.00  0.00    +0.007 C 
ATOM     13  C   LIG A   1      -8.519  -3.503 127.440  0.00  0.00    +0.001 C 
ATOM     14  C   LIG A   1      -8.230  -2.240 126.626  0.00  0.00    +0.007 C 
ENDROOT
BRANCH   6  15
ATOM     15  O   LIG A   1      -4.592   0.835 126.634  0.00  0.00    -0.389 OA
ATOM     16  H   LIG A   1      -4.319   1.583 126.074  0.00  0.00    +0.210 HD
ENDBRANCH   6  15
BRANCH   7  17
ATOM     17  C   LIG A   1      -6.644  -0.165 124.724  0.00  0.00    +0.011 C 
BRANCH  17  18
ATOM     18  C   LIG A   1      -7.822   0.132 123.767  0.00  0.00    +0.031 C 
BRANCH  18  19
ATOM     19  C   LIG A   1      -7.857   1.578 123.285  0.00  0.00    -0.066 C 
ATOM     20  C   LIG A   1      -6.738   2.159 122.802  0.00  0.00    +0.090 C 
ATOM     21  C   LIG A   1      -9.201   2.258 123.309  0.00  0.00    +0.039 C 
BRANCH  20  22
ATOM     22  C   LIG A   1      -6.682   3.513 122.214  0.00  0.00    +0.330 C 
ATOM     23  O   LIG A   1      -6.998   3.807 121.062  0.00  0.00    -0.246 OA
BRANCH  22  24
ATOM     24  O   LIG A   1      -6.219   4.413 123.100  0.00  0.00    -0.477 OA
ATOM     25  H   LIG A   1      -5.354   4.230 123.476  0.00  0.00    +0.295 HD
ENDBRANCH  22  24
ENDBRANCH  20  22
ENDBRANCH  18  19
ENDBRANCH  17  18
ENDBRANCH   7  17
TORSDOF 6
ENDMDL
MODEL 7
REMARK VINA RESULT:      -6.5      2.957      5.164
REMARK  Name = NuBBE_2392
REMARK  11 active torsions:
REMARK  status: ('A' for Active; 'I' for Inactive)
REMARK    1  A    between atoms: C_1  and  C_2
REMARK    2  A    between atoms: C_7  and  C_18
REMARK    3  A    between atoms: C_7  and  O_19
REMARK    4  A    between atoms: C_8  and  C_10
REMARK    5  A    between atoms: C_10  and  C_11
REMARK    6  A    between atoms: C_11  and  C_12
REMARK    7  A    between atoms: C_12  and  C_17
REMARK    8  A    between atoms: C_13  and  C_14
REMARK    9  A    between atoms: C_14  and  O_16
REMARK   10  A    between atoms: C_20  and  C_21
REMARK   11  A    between atoms: C_20  and  C_22
REMARK                            x       y       z     vdW  Elec       q    Type
REMARK                         _______ _______ _______ _____ _____    ______ ____
ROOT
ATOM      1  C   LIG A   1      -8.260  -0.292 127.781  0.00  0.00    +0.012 C 
ATOM      2  C   LIG A   1      -7.291  -1.368 127.266  0.00  0.00    -0.023 C 
ATOM      3  C   LIG A   1      -7.212  -2.630 128.207  0.00  0.00    +0.001 C 
ATOM      4  C   LIG A   1      -8.539  -3.398 128.188  0.00  0.00    +0.007 C 
ATOM      5  C   LIG A   1      -8.728  -4.001 126.803  0.00  0.00    +0.035 C 
ATOM      6  C   LIG A   1      -8.825  -2.933 125.704  0.00  0.00    +0.067 C 
ATOM      7  C   LIG A   1      -7.717  -1.818 125.784  0.00  0.00    +0.027 C 
ATOM      8  C   LIG A   1      -8.758  -3.657 124.344  0.00  0.00    +0.041 C 
ATOM      9  C   LIG A   1      -6.599  -2.422 129.642  0.00  0.00    -0.032 C 
ATOM     10  C   LIG A   1      -7.480  -1.629 130.630  0.00  0.00    +0.011 C 
ATOM     11  C   LIG A   1      -6.347  -3.801 130.313  0.00  0.00    +0.011 C 
ATOM     12  C   LIG A   1      -5.221  -1.735 129.486  0.00  0.00    +0.007 C 
ATOM     13  C   LIG A   1      -5.248  -0.490 128.605  0.00  0.00    +0.001 C 
ATOM     14  C   LIG A   1      -5.854  -0.757 127.225  0.00  0.00    +0.007 C 
ENDROOT
BRANCH   6  15
ATOM     15  O   LIG A   1     -10.121  -2.352 125.834  0.00  0.00    -0.389 OA
ATOM     16  H   LIG A   1     -10.052  -1.586 126.433  0.00  0.00    +0.210 HD
ENDBRANCH   6  15
BRANCH   7  17
ATOM     17  C   LIG A   1      -7.941  -0.631 124.763  0.00  0.00    +0.011 C 
BRANCH  17  18
ATOM     18  C   LIG A   1      -6.751  -0.076 123.946  0.00  0.00    +0.031 C 
BRANCH  18  19
ATOM     19  C   LIG A   1      -6.768   1.443 123.813  0.00  0.00    -0.066 C 
ATOM     20  C   LIG A   1      -6.809   2.016 122.592  0.00  0.00    +0.090 C 
ATOM     21  C   LIG A   1      -6.820   2.226 125.099  0.00  0.00    +0.039 C 
BRANCH  20  22
ATOM     22  C   LIG A   1      -6.934   3.469 122.349  0.00  0.00    +0.330 C 
ATOM     23  O   LIG A   1      -5.997   4.260 122.238  0.00  0.00    -0.246 OA
BRANCH  22  24
ATOM     24  O   LIG A   1      -8.223   3.844 122.277  0.00  0.00    -0.477 OA
ATOM     25  H   LIG A   1      -8.405   4.772 122.450  0.00  0.00    +0.295 HD
ENDBRANCH  22  24
ENDBRANCH  20  22
ENDBRANCH  18  19
ENDBRANCH  17  18
ENDBRANCH   7  17
TORSDOF 6
ENDMDL
MODEL 8
REMARK VINA RESULT:      -6.5      8.132     10.276
REMARK  Name = NuBBE_2392
REMARK  11 active torsions:
REMARK  status: ('A' for Active; 'I' for Inactive)
REMARK    1  A    between atoms: C_1  and  C_2
REMARK    2  A    between atoms: C_7  and  C_18
REMARK    3  A    between atoms: C_7  and  O_19
REMARK    4  A    between atoms: C_8  and  C_10
REMARK    5  A    between atoms: C_10  and  C_11
REMARK    6  A    between atoms: C_11  and  C_12
REMARK    7  A    between atoms: C_12  and  C_17
REMARK    8  A    between atoms: C_13  and  C_14
REMARK    9  A    between atoms: C_14  and  O_16
REMARK   10  A    between atoms: C_20  and  C_21
REMARK   11  A    between atoms: C_20  and  C_22
REMARK                            x       y       z     vdW  Elec       q    Type
REMARK                         _______ _______ _______ _____ _____    ______ ____
ROOT
ATOM      1  C   LIG A   1      -7.264   5.802 134.503  0.00  0.00    +0.012 C 
ATOM      2  C   LIG A   1      -6.872   5.103 133.192  0.00  0.00    -0.023 C 
ATOM      3  C   LIG A   1      -6.156   3.717 133.421  0.00  0.00    +0.001 C 
ATOM      4  C   LIG A   1      -7.134   2.698 134.015  0.00  0.00    +0.007 C 
ATOM      5  C   LIG A   1      -8.193   2.379 132.970  0.00  0.00    +0.035 C 
ATOM      6  C   LIG A   1      -9.026   3.610 132.581  0.00  0.00    +0.067 C 
ATOM      7  C   LIG A   1      -8.176   4.898 132.276  0.00  0.00    +0.027 C 
ATOM      8  C   LIG A   1      -9.878   3.227 131.354  0.00  0.00    +0.041 C 
ATOM      9  C   LIG A   1      -4.741   3.743 134.110  0.00  0.00    -0.032 C 
ATOM     10  C   LIG A   1      -4.743   4.091 135.613  0.00  0.00    +0.011 C 
ATOM     11  C   LIG A   1      -4.075   2.343 134.002  0.00  0.00    +0.011 C 
ATOM     12  C   LIG A   1      -3.840   4.735 133.334  0.00  0.00    +0.007 C 
ATOM     13  C   LIG A   1      -4.478   6.102 133.110  0.00  0.00    +0.001 C 
ATOM     14  C   LIG A   1      -5.849   6.010 132.436  0.00  0.00    +0.007 C 
ENDROOT
BRANCH   6  15
ATOM     15  O   LIG A   1      -9.909   3.849 133.677  0.00  0.00    -0.389 OA
ATOM     16  H   LIG A   1      -9.373   3.935 134.485  0.00  0.00    +0.210 HD
ENDBRANCH   6  15
BRANCH   7  17
ATOM     17  C   LIG A   1      -9.052   6.197 132.060  0.00  0.00    +0.011 C 
BRANCH  17  18
ATOM     18  C   LIG A   1      -8.960   6.982 130.731  0.00  0.00    +0.031 C 
BRANCH  18  19
ATOM     19  C   LIG A   1     -10.319   7.246 130.092  0.00  0.00    -0.066 C 
ATOM     20  C   LIG A   1     -10.404   7.957 128.948  0.00  0.00    +0.090 C 
ATOM     21  C   LIG A   1     -11.508   6.608 130.762  0.00  0.00    +0.039 C 
BRANCH  20  22
ATOM     22  C   LIG A   1     -11.653   8.182 128.190  0.00  0.00    +0.330 C 
ATOM     23  O   LIG A   1     -12.131   7.417 127.353  0.00  0.00    -0.246 OA
BRANCH  22  24
ATOM     24  O   LIG A   1     -12.218   9.359 128.515  0.00  0.00    -0.477 OA
ATOM     25  H   LIG A   1     -13.178   9.374 128.543  0.00  0.00    +0.295 HD
ENDBRANCH  22  24
ENDBRANCH  20  22
ENDBRANCH  18  19
ENDBRANCH  17  18
ENDBRANCH   7  17
TORSDOF 6
ENDMDL
MODEL 9
REMARK VINA RESULT:      -6.4      2.237      3.798
REMARK  Name = NuBBE_2392
REMARK  11 active torsions:
REMARK  status: ('A' for Active; 'I' for Inactive)
REMARK    1  A    between atoms: C_1  and  C_2
REMARK    2  A    between atoms: C_7  and  C_18
REMARK    3  A    between atoms: C_7  and  O_19
REMARK    4  A    between atoms: C_8  and  C_10
REMARK    5  A    between atoms: C_10  and  C_11
REMARK    6  A    between atoms: C_11  and  C_12
REMARK    7  A    between atoms: C_12  and  C_17
REMARK    8  A    between atoms: C_13  and  C_14
REMARK    9  A    between atoms: C_14  and  O_16
REMARK   10  A    between atoms: C_20  and  C_21
REMARK   11  A    between atoms: C_20  and  C_22
REMARK                            x       y       z     vdW  Elec       q    Type
REMARK                         _______ _______ _______ _____ _____    ______ ____
ROOT
ATOM      1  C   LIG A   1      -5.319  -1.598 125.972  0.00  0.00    +0.012 C 
ATOM      2  C   LIG A   1      -6.710  -0.982 126.192  0.00  0.00    -0.023 C 
ATOM      3  C   LIG A   1      -7.884  -2.009 125.962  0.00  0.00    +0.001 C 
ATOM      4  C   LIG A   1      -7.869  -3.095 127.043  0.00  0.00    +0.007 C 
ATOM      5  C   LIG A   1      -8.220  -2.451 128.378  0.00  0.00    +0.035 C 
ATOM      6  C   LIG A   1      -7.195  -1.391 128.808  0.00  0.00    +0.067 C 
ATOM      7  C   LIG A   1      -6.803  -0.371 127.675  0.00  0.00    +0.027 C 
ATOM      8  C   LIG A   1      -7.781  -0.643 130.023  0.00  0.00    +0.041 C 
ATOM      9  C   LIG A   1      -8.091  -2.549 124.498  0.00  0.00    -0.032 C 
ATOM     10  C   LIG A   1      -7.013  -3.532 123.996  0.00  0.00    +0.011 C 
ATOM     11  C   LIG A   1      -9.439  -3.316 124.404  0.00  0.00    +0.011 C 
ATOM     12  C   LIG A   1      -8.192  -1.336 123.542  0.00  0.00    +0.007 C 
ATOM     13  C   LIG A   1      -7.062  -0.324 123.707  0.00  0.00    +0.001 C 
ATOM     14  C   LIG A   1      -6.913   0.163 125.150  0.00  0.00    +0.007 C 
ENDROOT
BRANCH   6  15
ATOM     15  O   LIG A   1      -6.044  -2.111 129.243  0.00  0.00    -0.389 OA
ATOM     16  H   LIG A   1      -5.337  -1.982 128.585  0.00  0.00    +0.210 HD
ENDBRANCH   6  15
BRANCH   7  17
ATOM     17  C   LIG A   1      -5.616   0.594 128.077  0.00  0.00    +0.011 C 
BRANCH  17  18
ATOM     18  C   LIG A   1      -5.770   2.123 127.910  0.00  0.00    +0.031 C 
BRANCH  18  19
ATOM     19  C   LIG A   1      -4.587   2.774 127.200  0.00  0.00    -0.066 C 
ATOM     20  C   LIG A   1      -3.376   2.811 127.794  0.00  0.00    +0.090 C 
ATOM     21  C   LIG A   1      -4.842   3.277 125.803  0.00  0.00    +0.039 C 
BRANCH  20  22
ATOM     22  C   LIG A   1      -2.144   3.320 127.157  0.00  0.00    +0.330 C 
ATOM     23  O   LIG A   1      -1.315   2.639 126.555  0.00  0.00    -0.246 OA
BRANCH  22  24
ATOM     24  O   LIG A   1      -2.017   4.648 127.328  0.00  0.00    -0.477 OA
ATOM     25  H   LIG A   1      -2.083   4.968 128.232  0.00  0.00    +0.295 HD
ENDBRANCH  22  24
ENDBRANCH  20  22
ENDBRANCH  18  19
ENDBRANCH  17  18
ENDBRANCH   7  17
TORSDOF 6
ENDMDL
