MODEL 1
REMARK VINA RESULT:      -7.8      0.000      0.000
REMARK  Name = NuBBE_994
REMARK  7 active torsions:
REMARK  status: ('A' for Active; 'I' for Inactive)
REMARK    1  A    between atoms: C_1  and  C_2
REMARK    2  A    between atoms: C_6  and  C_8
REMARK    3  A    between atoms: C_8  and  C_9
REMARK    4  A    between atoms: C_15  and  O_17
REMARK    5  A    between atoms: C_18  and  O_20
REMARK    6  A    between atoms: C_21  and  O_23
REMARK    7  A    between atoms: C_25  and  C_26
REMARK                            x       y       z     vdW  Elec       q    Type
REMARK                         _______ _______ _______ _____ _____    ______ ____
ROOT
ATOM      1  C   LIG A   1      -6.447  -1.638 123.609  0.00  0.00    +0.012 C 
ATOM      2  C   LIG A   1      -7.619  -1.486 124.606  0.00  0.00    -0.019 C 
ATOM      3  C   LIG A   1      -7.619  -2.718 125.568  0.00  0.00    +0.006 C 
ATOM      4  C   LIG A   1      -8.339  -3.819 124.775  0.00  0.00    +0.079 C 
ATOM      5  C   LIG A   1      -9.281  -3.052 123.891  0.00  0.00    +0.137 C 
ATOM      6  C   LIG A   1      -9.015  -1.559 123.911  0.00  0.00    +0.061 C 
ATOM      7  O   LIG A   1     -10.169  -3.589 123.238  0.00  0.00    -0.297 OA
ATOM      8  C   LIG A   1      -8.238  -2.402 126.963  0.00  0.00    -0.003 C 
ATOM      9  C   LIG A   1      -8.366  -3.673 127.823  0.00  0.00    +0.004 C 
ATOM     10  C   LIG A   1      -8.509  -3.463 129.324  0.00  0.00    +0.007 C 
ATOM     11  C   LIG A   1      -7.723  -2.289 129.925  0.00  0.00    +0.026 C 
ATOM     12  C   LIG A   1      -7.196  -2.584 131.344  0.00  0.00    +0.149 C 
ATOM     13  C   LIG A   1      -6.598  -1.323 131.993  0.00  0.00    +0.172 C 
ATOM     14  C   LIG A   1      -5.621  -0.548 131.096  0.00  0.00    +0.146 C 
ATOM     15  C   LIG A   1      -6.155  -0.338 129.675  0.00  0.00    +0.041 C 
ATOM     16  C   LIG A   1      -6.689  -1.627 128.966  0.00  0.00    -0.021 C 
ATOM     17  C   LIG A   1      -5.482  -2.525 128.607  0.00  0.00    +0.012 C 
ATOM     18  C   LIG A   1      -7.488  -1.225 127.669  0.00  0.00    -0.001 C 
ATOM     19  C   LIG A   1      -6.683  -0.356 126.680  0.00  0.00    +0.005 C 
ATOM     20  C   LIG A   1      -7.455  -0.160 125.380  0.00  0.00    +0.008 C 
ENDROOT
BRANCH   6  21
ATOM     21  C   LIG A   1      -9.169  -0.949 122.515  0.00  0.00    +0.008 C 
ATOM     22  C   LIG A   1     -10.100   0.252 122.471  0.00  0.00    +0.004 C 
ENDBRANCH   6  21
BRANCH  12  23
ATOM     23  O   LIG A   1      -6.218  -3.625 131.404  0.00  0.00    -0.389 OA
ATOM     24  H   LIG A   1      -6.339  -4.213 130.638  0.00  0.00    +0.210 HD
ENDBRANCH  12  23
BRANCH  13  25
ATOM     25  O   LIG A   1      -5.917  -1.700 133.202  0.00  0.00    -0.387 OA
ATOM     26  H   LIG A   1      -5.220  -1.016 133.307  0.00  0.00    +0.210 HD
ENDBRANCH  13  25
BRANCH  14  27
ATOM     27  O   LIG A   1      -4.343  -1.183 131.044  0.00  0.00    -0.389 OA
ATOM     28  H   LIG A   1      -4.026  -1.196 131.968  0.00  0.00    +0.210 HD
ENDBRANCH  14  27
TORSDOF 4
ENDMDL
MODEL 2
REMARK VINA RESULT:      -7.7      2.076      7.205
REMARK  Name = NuBBE_994
REMARK  7 active torsions:
REMARK  status: ('A' for Active; 'I' for Inactive)
REMARK    1  A    between atoms: C_1  and  C_2
REMARK    2  A    between atoms: C_6  and  C_8
REMARK    3  A    between atoms: C_8  and  C_9
REMARK    4  A    between atoms: C_15  and  O_17
REMARK    5  A    between atoms: C_18  and  O_20
REMARK    6  A    between atoms: C_21  and  O_23
REMARK    7  A    between atoms: C_25  and  C_26
REMARK                            x       y       z     vdW  Elec       q    Type
REMARK                         _______ _______ _______ _____ _____    ______ ____
ROOT
ATOM      1  C   LIG A   1      -4.752  -1.027 131.697  0.00  0.00    +0.012 C 
ATOM      2  C   LIG A   1      -5.105  -2.365 131.007  0.00  0.00    -0.019 C 
ATOM      3  C   LIG A   1      -6.630  -2.362 130.662  0.00  0.00    +0.006 C 
ATOM      4  C   LIG A   1      -7.317  -2.771 131.974  0.00  0.00    +0.079 C 
ATOM      5  C   LIG A   1      -6.294  -3.642 132.646  0.00  0.00    +0.137 C 
ATOM      6  C   LIG A   1      -4.943  -3.593 131.957  0.00  0.00    +0.061 C 
ATOM      7  O   LIG A   1      -6.542  -4.318 133.638  0.00  0.00    -0.297 OA
ATOM      8  C   LIG A   1      -6.977  -3.252 129.432  0.00  0.00    -0.003 C 
ATOM      9  C   LIG A   1      -8.500  -3.350 129.220  0.00  0.00    +0.004 C 
ATOM     10  C   LIG A   1      -8.965  -3.782 127.836  0.00  0.00    +0.007 C 
ATOM     11  C   LIG A   1      -8.124  -3.285 126.651  0.00  0.00    +0.026 C 
ATOM     12  C   LIG A   1      -8.974  -2.979 125.401  0.00  0.00    +0.149 C 
ATOM     13  C   LIG A   1      -8.087  -2.686 124.178  0.00  0.00    +0.172 C 
ATOM     14  C   LIG A   1      -6.952  -1.684 124.442  0.00  0.00    +0.146 C 
ATOM     15  C   LIG A   1      -6.178  -1.985 125.729  0.00  0.00    +0.041 C 
ATOM     16  C   LIG A   1      -7.062  -2.202 127.003  0.00  0.00    -0.021 C 
ATOM     17  C   LIG A   1      -7.654  -0.837 127.427  0.00  0.00    +0.012 C 
ATOM     18  C   LIG A   1      -6.182  -2.809 128.160  0.00  0.00    -0.001 C 
ATOM     19  C   LIG A   1      -4.932  -1.974 128.504  0.00  0.00    +0.005 C 
ATOM     20  C   LIG A   1      -4.235  -2.525 129.742  0.00  0.00    +0.008 C 
ENDROOT
BRANCH   6  21
ATOM     21  C   LIG A   1      -3.801  -3.585 132.976  0.00  0.00    +0.008 C 
ATOM     22  C   LIG A   1      -3.184  -4.954 133.217  0.00  0.00    +0.004 C 
ENDBRANCH   6  21
BRANCH  12  23
ATOM     23  O   LIG A   1      -9.888  -1.890 125.563  0.00  0.00    -0.389 OA
ATOM     24  H   LIG A   1      -9.694  -1.216 124.889  0.00  0.00    +0.210 HD
ENDBRANCH  12  23
BRANCH  13  25
ATOM     25  O   LIG A   1      -8.912  -2.180 123.114  0.00  0.00    -0.387 OA
ATOM     26  H   LIG A   1      -8.511  -2.556 122.301  0.00  0.00    +0.210 HD
ENDBRANCH  13  25
BRANCH  14  27
ATOM     27  O   LIG A   1      -7.436  -0.341 124.469  0.00  0.00    -0.389 OA
ATOM     28  H   LIG A   1      -7.345  -0.017 123.553  0.00  0.00    +0.210 HD
ENDBRANCH  14  27
TORSDOF 4
ENDMDL
MODEL 3
REMARK VINA RESULT:      -7.6      3.482      5.189
REMARK  Name = NuBBE_994
REMARK  7 active torsions:
REMARK  status: ('A' for Active; 'I' for Inactive)
REMARK    1  A    between atoms: C_1  and  C_2
REMARK    2  A    between atoms: C_6  and  C_8
REMARK    3  A    between atoms: C_8  and  C_9
REMARK    4  A    between atoms: C_15  and  O_17
REMARK    5  A    between atoms: C_18  and  O_20
REMARK    6  A    between atoms: C_21  and  O_23
REMARK    7  A    between atoms: C_25  and  C_26
REMARK                            x       y       z     vdW  Elec       q    Type
REMARK                         _______ _______ _______ _____ _____    ______ ____
ROOT
ATOM      1  C   LIG A   1      -7.915  -3.206 125.343  0.00  0.00    +0.012 C 
ATOM      2  C   LIG A   1      -6.722  -2.224 125.271  0.00  0.00    -0.019 C 
ATOM      3  C   LIG A   1      -7.246  -0.837 124.774  0.00  0.00    +0.006 C 
ATOM      4  C   LIG A   1      -7.315  -0.982 123.246  0.00  0.00    +0.079 C 
ATOM      5  C   LIG A   1      -6.230  -1.976 122.942  0.00  0.00    +0.137 C 
ATOM      6  C   LIG A   1      -5.671  -2.631 124.191  0.00  0.00    +0.061 C 
ATOM      7  O   LIG A   1      -5.845  -2.214 121.803  0.00  0.00    -0.297 OA
ATOM      8  C   LIG A   1      -6.385   0.357 125.283  0.00  0.00    -0.003 C 
ATOM      9  C   LIG A   1      -6.834   1.686 124.648  0.00  0.00    +0.004 C 
ATOM     10  C   LIG A   1      -6.415   2.958 125.372  0.00  0.00    +0.007 C 
ATOM     11  C   LIG A   1      -6.387   2.890 126.906  0.00  0.00    +0.026 C 
ATOM     12  C   LIG A   1      -6.807   4.216 127.571  0.00  0.00    +0.149 C 
ATOM     13  C   LIG A   1      -6.570   4.180 129.092  0.00  0.00    +0.172 C 
ATOM     14  C   LIG A   1      -7.102   2.917 129.788  0.00  0.00    +0.146 C 
ATOM     15  C   LIG A   1      -6.719   1.627 129.055  0.00  0.00    +0.041 C 
ATOM     16  C   LIG A   1      -7.033   1.614 127.521  0.00  0.00    -0.021 C 
ATOM     17  C   LIG A   1      -8.565   1.517 127.335  0.00  0.00    +0.012 C 
ATOM     18  C   LIG A   1      -6.312   0.387 126.845  0.00  0.00    -0.001 C 
ATOM     19  C   LIG A   1      -6.660  -0.975 127.481  0.00  0.00    +0.005 C 
ATOM     20  C   LIG A   1      -6.070  -2.120 126.666  0.00  0.00    +0.008 C 
ENDROOT
BRANCH   6  21
ATOM     21  C   LIG A   1      -5.397  -4.120 123.962  0.00  0.00    +0.008 C 
ATOM     22  C   LIG A   1      -3.953  -4.428 123.599  0.00  0.00    +0.004 C 
ENDBRANCH   6  21
BRANCH  12  23
ATOM     23  O   LIG A   1      -8.170   4.586 127.339  0.00  0.00    -0.389 OA
ATOM     24  H   LIG A   1      -8.629   4.639 128.195  0.00  0.00    +0.210 HD
ENDBRANCH  12  23
BRANCH  13  25
ATOM     25  O   LIG A   1      -7.190   5.333 129.688  0.00  0.00    -0.387 OA
ATOM     26  H   LIG A   1      -7.764   4.959 130.391  0.00  0.00    +0.210 HD
ENDBRANCH  13  25
BRANCH  14  27
ATOM     27  O   LIG A   1      -8.517   2.974 129.964  0.00  0.00    -0.389 OA
ATOM     28  H   LIG A   1      -8.687   3.832 130.398  0.00  0.00    +0.210 HD
ENDBRANCH  14  27
TORSDOF 4
ENDMDL
MODEL 4
REMARK VINA RESULT:      -7.5      2.612      6.961
REMARK  Name = NuBBE_994
REMARK  7 active torsions:
REMARK  status: ('A' for Active; 'I' for Inactive)
REMARK    1  A    between atoms: C_1  and  C_2
REMARK    2  A    between atoms: C_6  and  C_8
REMARK    3  A    between atoms: C_8  and  C_9
REMARK    4  A    between atoms: C_15  and  O_17
REMARK    5  A    between atoms: C_18  and  O_20
REMARK    6  A    between atoms: C_21  and  O_23
REMARK    7  A    between atoms: C_25  and  C_26
REMARK                            x       y       z     vdW  Elec       q    Type
REMARK                         _______ _______ _______ _____ _____    ______ ____
ROOT
ATOM      1  C   LIG A   1      -5.984   3.987 127.426  0.00  0.00    +0.012 C 
ATOM      2  C   LIG A   1      -5.419   2.549 127.356  0.00  0.00    -0.019 C 
ATOM      3  C   LIG A   1      -6.476   1.568 127.957  0.00  0.00    +0.006 C 
ATOM      4  C   LIG A   1      -6.259   1.659 129.476  0.00  0.00    +0.079 C 
ATOM      5  C   LIG A   1      -4.799   1.990 129.599  0.00  0.00    +0.137 C 
ATOM      6  C   LIG A   1      -4.167   2.349 128.267  0.00  0.00    +0.061 C 
ATOM      7  O   LIG A   1      -4.197   1.961 130.666  0.00  0.00    -0.297 OA
ATOM      8  C   LIG A   1      -6.379   0.130 127.365  0.00  0.00    -0.003 C 
ATOM      9  C   LIG A   1      -7.325  -0.844 128.091  0.00  0.00    +0.004 C 
ATOM     10  C   LIG A   1      -7.677  -2.126 127.350  0.00  0.00    +0.007 C 
ATOM     11  C   LIG A   1      -7.827  -2.011 125.826  0.00  0.00    +0.026 C 
ATOM     12  C   LIG A   1      -8.922  -2.938 125.261  0.00  0.00    +0.149 C 
ATOM     13  C   LIG A   1      -8.905  -2.952 123.722  0.00  0.00    +0.172 C 
ATOM     14  C   LIG A   1      -8.847  -1.561 123.074  0.00  0.00    +0.146 C 
ATOM     15  C   LIG A   1      -7.792  -0.650 123.711  0.00  0.00    +0.041 C 
ATOM     16  C   LIG A   1      -7.850  -0.555 125.273  0.00  0.00    -0.021 C 
ATOM     17  C   LIG A   1      -9.103   0.261 125.669  0.00  0.00    +0.012 C 
ATOM     18  C   LIG A   1      -6.541   0.139 125.809  0.00  0.00    -0.001 C 
ATOM     19  C   LIG A   1      -6.268   1.526 125.192  0.00  0.00    +0.005 C 
ATOM     20  C   LIG A   1      -5.093   2.206 125.886  0.00  0.00    +0.008 C 
ENDROOT
BRANCH   6  21
ATOM     21  C   LIG A   1      -3.179   3.508 128.417  0.00  0.00    +0.008 C 
ATOM     22  C   LIG A   1      -2.170   3.604 127.283  0.00  0.00    +0.004 C 
ENDBRANCH   6  21
BRANCH  12  23
ATOM     23  O   LIG A   1     -10.248  -2.613 125.691  0.00  0.00    -0.389 OA
ATOM     24  H   LIG A   1     -10.397  -1.662 125.553  0.00  0.00    +0.210 HD
ENDBRANCH  12  23
BRANCH  13  25
ATOM     25  O   LIG A   1     -10.080  -3.634 123.249  0.00  0.00    -0.387 OA
ATOM     26  H   LIG A   1      -9.742  -4.240 122.555  0.00  0.00    +0.210 HD
ENDBRANCH  13  25
BRANCH  14  27
ATOM     27  O   LIG A   1     -10.122  -0.919 123.098  0.00  0.00    -0.389 OA
ATOM     28  H   LIG A   1     -10.724  -1.561 123.520  0.00  0.00    +0.210 HD
ENDBRANCH  14  27
TORSDOF 4
ENDMDL
MODEL 5
REMARK VINA RESULT:      -7.5      7.946     11.275
REMARK  Name = NuBBE_994
REMARK  7 active torsions:
REMARK  status: ('A' for Active; 'I' for Inactive)
REMARK    1  A    between atoms: C_1  and  C_2
REMARK    2  A    between atoms: C_6  and  C_8
REMARK    3  A    between atoms: C_8  and  C_9
REMARK    4  A    between atoms: C_15  and  O_17
REMARK    5  A    between atoms: C_18  and  O_20
REMARK    6  A    between atoms: C_21  and  O_23
REMARK    7  A    between atoms: C_25  and  C_26
REMARK                            x       y       z     vdW  Elec       q    Type
REMARK                         _______ _______ _______ _____ _____    ______ ____
ROOT
ATOM      1  C   LIG A   1      -6.724   2.296 134.114  0.00  0.00    +0.012 C 
ATOM      2  C   LIG A   1      -6.829   3.839 134.153  0.00  0.00    -0.019 C 
ATOM      3  C   LIG A   1      -6.504   4.398 132.731  0.00  0.00    +0.006 C 
ATOM      4  C   LIG A   1      -4.969   4.430 132.677  0.00  0.00    +0.079 C 
ATOM      5  C   LIG A   1      -4.575   4.641 134.111  0.00  0.00    +0.137 C 
ATOM      6  C   LIG A   1      -5.745   4.493 135.066  0.00  0.00    +0.061 C 
ATOM      7  O   LIG A   1      -3.429   4.910 134.455  0.00  0.00    -0.297 OA
ATOM      8  C   LIG A   1      -7.200   5.761 132.438  0.00  0.00    -0.003 C 
ATOM      9  C   LIG A   1      -6.733   6.356 131.097  0.00  0.00    +0.004 C 
ATOM     10  C   LIG A   1      -7.636   7.410 130.472  0.00  0.00    +0.007 C 
ATOM     11  C   LIG A   1      -9.147   7.209 130.659  0.00  0.00    +0.026 C 
ATOM     12  C   LIG A   1      -9.968   7.672 129.439  0.00  0.00    +0.149 C 
ATOM     13  C   LIG A   1     -11.478   7.651 129.739  0.00  0.00    +0.172 C 
ATOM     14  C   LIG A   1     -11.978   6.353 130.391  0.00  0.00    +0.146 C 
ATOM     15  C   LIG A   1     -11.094   5.891 131.555  0.00  0.00    +0.041 C 
ATOM     16  C   LIG A   1      -9.561   5.825 131.241  0.00  0.00    -0.021 C 
ATOM     17  C   LIG A   1      -9.306   4.629 130.294  0.00  0.00    +0.012 C 
ATOM     18  C   LIG A   1      -8.754   5.653 132.583  0.00  0.00    -0.001 C 
ATOM     19  C   LIG A   1      -9.188   4.437 133.427  0.00  0.00    +0.005 C 
ATOM     20  C   LIG A   1      -8.250   4.235 134.611  0.00  0.00    +0.008 C 
ENDROOT
BRANCH   6  21
ATOM     21  C   LIG A   1      -5.328   3.764 136.346  0.00  0.00    +0.008 C 
ATOM     22  C   LIG A   1      -5.388   4.631 137.593  0.00  0.00    +0.004 C 
ENDBRANCH   6  21
BRANCH  12  23
ATOM     23  O   LIG A   1      -9.737   6.911 128.250  0.00  0.00    -0.389 OA
ATOM     24  H   LIG A   1      -9.591   7.524 127.509  0.00  0.00    +0.210 HD
ENDBRANCH  12  23
BRANCH  13  25
ATOM     25  O   LIG A   1     -12.200   7.859 128.512  0.00  0.00    -0.387 OA
ATOM     26  H   LIG A   1     -11.972   7.077 127.965  0.00  0.00    +0.210 HD
ENDBRANCH  13  25
BRANCH  14  27
ATOM     27  O   LIG A   1     -12.107   5.302 129.434  0.00  0.00    -0.389 OA
ATOM     28  H   LIG A   1     -11.963   5.726 128.566  0.00  0.00    +0.210 HD
ENDBRANCH  14  27
TORSDOF 4
ENDMDL
MODEL 6
REMARK VINA RESULT:      -7.4      4.334      6.709
REMARK  Name = NuBBE_994
REMARK  7 active torsions:
REMARK  status: ('A' for Active; 'I' for Inactive)
REMARK    1  A    between atoms: C_1  and  C_2
REMARK    2  A    between atoms: C_6  and  C_8
REMARK    3  A    between atoms: C_8  and  C_9
REMARK    4  A    between atoms: C_15  and  O_17
REMARK    5  A    between atoms: C_18  and  O_20
REMARK    6  A    between atoms: C_21  and  O_23
REMARK    7  A    between atoms: C_25  and  C_26
REMARK                            x       y       z     vdW  Elec       q    Type
REMARK                         _______ _______ _______ _____ _____    ______ ____
ROOT
ATOM      1  C   LIG A   1      -7.316  -2.823 131.077  0.00  0.00    +0.012 C 
ATOM      2  C   LIG A   1      -6.658  -1.526 130.550  0.00  0.00    -0.019 C 
ATOM      3  C   LIG A   1      -7.753  -0.660 129.848  0.00  0.00    +0.006 C 
ATOM      4  C   LIG A   1      -7.868  -1.262 128.439  0.00  0.00    +0.079 C 
ATOM      5  C   LIG A   1      -6.491  -1.804 128.179  0.00  0.00    +0.137 C 
ATOM      6  C   LIG A   1      -5.617  -1.796 129.419  0.00  0.00    +0.061 C 
ATOM      7  O   LIG A   1      -6.127  -2.199 127.077  0.00  0.00    -0.297 OA
ATOM      8  C   LIG A   1      -7.441   0.865 129.887  0.00  0.00    -0.003 C 
ATOM      9  C   LIG A   1      -8.455   1.669 129.051  0.00  0.00    +0.004 C 
ATOM     10  C   LIG A   1      -8.560   3.156 129.361  0.00  0.00    +0.007 C 
ATOM     11  C   LIG A   1      -8.392   3.559 130.833  0.00  0.00    +0.026 C 
ATOM     12  C   LIG A   1      -9.282   4.752 131.233  0.00  0.00    +0.149 C 
ATOM     13  C   LIG A   1      -8.939   5.259 132.646  0.00  0.00    +0.172 C 
ATOM     14  C   LIG A   1      -8.835   4.154 133.708  0.00  0.00    +0.146 C 
ATOM     15  C   LIG A   1      -7.999   2.957 133.244  0.00  0.00    +0.041 C 
ATOM     16  C   LIG A   1      -8.391   2.374 131.845  0.00  0.00    -0.021 C 
ATOM     17  C   LIG A   1      -9.749   1.645 131.980  0.00  0.00    +0.012 C 
ATOM     18  C   LIG A   1      -7.272   1.379 131.355  0.00  0.00    -0.001 C 
ATOM     19  C   LIG A   1      -6.964   0.240 132.349  0.00  0.00    +0.005 C 
ATOM     20  C   LIG A   1      -6.009  -0.774 131.732  0.00  0.00    +0.008 C 
ENDROOT
BRANCH   6  21
ATOM     21  C   LIG A   1      -4.758  -3.060 129.501  0.00  0.00    +0.008 C 
ATOM     22  C   LIG A   1      -3.282  -2.784 129.740  0.00  0.00    +0.004 C 
ENDBRANCH   6  21
BRANCH  12  23
ATOM     23  O   LIG A   1     -10.686   4.484 131.182  0.00  0.00    -0.389 OA
ATOM     24  H   LIG A   1     -11.040   4.494 132.088  0.00  0.00    +0.210 HD
ENDBRANCH  12  23
BRANCH  13  25
ATOM     25  O   LIG A   1      -9.942   6.204 133.058  0.00  0.00    -0.387 OA
ATOM     26  H   LIG A   1      -9.567   6.612 133.868  0.00  0.00    +0.210 HD
ENDBRANCH  13  25
BRANCH  14  27
ATOM     27  O   LIG A   1     -10.125   3.712 134.131  0.00  0.00    -0.389 OA
ATOM     28  H   LIG A   1     -10.009   2.771 134.366  0.00  0.00    +0.210 HD
ENDBRANCH  14  27
TORSDOF 4
ENDMDL
MODEL 7
REMARK VINA RESULT:      -7.2      3.878      6.602
REMARK  Name = NuBBE_994
REMARK  7 active torsions:
REMARK  status: ('A' for Active; 'I' for Inactive)
REMARK    1  A    between atoms: C_1  and  C_2
REMARK    2  A    between atoms: C_6  and  C_8
REMARK    3  A    between atoms: C_8  and  C_9
REMARK    4  A    between atoms: C_15  and  O_17
REMARK    5  A    between atoms: C_18  and  O_20
REMARK    6  A    between atoms: C_21  and  O_23
REMARK    7  A    between atoms: C_25  and  C_26
REMARK                            x       y       z     vdW  Elec       q    Type
REMARK                         _______ _______ _______ _____ _____    ______ ____
ROOT
ATOM      1  C   LIG A   1      -7.846  -3.441 128.979  0.00  0.00    +0.012 C 
ATOM      2  C   LIG A   1      -6.867  -2.532 129.757  0.00  0.00    -0.019 C 
ATOM      3  C   LIG A   1      -6.333  -1.428 128.788  0.00  0.00    +0.006 C 
ATOM      4  C   LIG A   1      -5.197  -2.117 128.016  0.00  0.00    +0.079 C 
ATOM      5  C   LIG A   1      -4.681  -3.135 128.993  0.00  0.00    +0.137 C 
ATOM      6  C   LIG A   1      -5.576  -3.285 130.209  0.00  0.00    +0.061 C 
ATOM      7  O   LIG A   1      -3.643  -3.763 128.815  0.00  0.00    -0.297 OA
ATOM      8  C   LIG A   1      -5.926  -0.117 129.524  0.00  0.00    -0.003 C 
ATOM      9  C   LIG A   1      -5.260   0.885 128.563  0.00  0.00    +0.004 C 
ATOM     10  C   LIG A   1      -5.234   2.340 129.011  0.00  0.00    +0.007 C 
ATOM     11  C   LIG A   1      -6.460   2.832 129.794  0.00  0.00    +0.026 C 
ATOM     12  C   LIG A   1      -6.814   4.302 129.490  0.00  0.00    +0.149 C 
ATOM     13  C   LIG A   1      -7.910   4.822 130.438  0.00  0.00    +0.172 C 
ATOM     14  C   LIG A   1      -9.121   3.888 130.582  0.00  0.00    +0.146 C 
ATOM     15  C   LIG A   1      -8.723   2.427 130.814  0.00  0.00    +0.041 C 
ATOM     16  C   LIG A   1      -7.672   1.854 129.805  0.00  0.00    -0.021 C 
ATOM     17  C   LIG A   1      -8.360   1.671 128.432  0.00  0.00    +0.012 C 
ATOM     18  C   LIG A   1      -7.122   0.478 130.339  0.00  0.00    -0.001 C 
ATOM     19  C   LIG A   1      -8.218  -0.567 130.630  0.00  0.00    +0.005 C 
ATOM     20  C   LIG A   1      -7.602  -1.920 130.969  0.00  0.00    +0.008 C 
ENDROOT
BRANCH   6  21
ATOM     21  C   LIG A   1      -5.694  -4.751 130.634  0.00  0.00    +0.008 C 
ATOM     22  C   LIG A   1      -5.349  -4.996 132.094  0.00  0.00    +0.004 C 
ENDBRANCH   6  21
BRANCH  12  23
ATOM     23  O   LIG A   1      -7.237   4.539 128.144  0.00  0.00    -0.389 OA
ATOM     24  H   LIG A   1      -6.546   5.047 127.684  0.00  0.00    +0.210 HD
ENDBRANCH  12  23
BRANCH  13  25
ATOM     25  O   LIG A   1      -8.365   6.102 129.966  0.00  0.00    -0.387 OA
ATOM     26  H   LIG A   1      -7.656   6.723 130.236  0.00  0.00    +0.210 HD
ENDBRANCH  13  25
BRANCH  14  27
ATOM     27  O   LIG A   1      -9.990   3.981 129.454  0.00  0.00    -0.389 OA
ATOM     28  H   LIG A   1     -10.888   3.834 129.808  0.00  0.00    +0.210 HD
ENDBRANCH  14  27
TORSDOF 4
ENDMDL
MODEL 8
REMARK VINA RESULT:      -7.2      1.870      3.320
REMARK  Name = NuBBE_994
REMARK  7 active torsions:
REMARK  status: ('A' for Active; 'I' for Inactive)
REMARK    1  A    between atoms: C_1  and  C_2
REMARK    2  A    between atoms: C_6  and  C_8
REMARK    3  A    between atoms: C_8  and  C_9
REMARK    4  A    between atoms: C_15  and  O_17
REMARK    5  A    between atoms: C_18  and  O_20
REMARK    6  A    between atoms: C_21  and  O_23
REMARK    7  A    between atoms: C_25  and  C_26
REMARK                            x       y       z     vdW  Elec       q    Type
REMARK                         _______ _______ _______ _____ _____    ______ ____
ROOT
ATOM      1  C   LIG A   1      -8.313  -0.610 126.073  0.00  0.00    +0.012 C 
ATOM      2  C   LIG A   1      -7.613  -1.950 126.398  0.00  0.00    -0.019 C 
ATOM      3  C   LIG A   1      -6.249  -1.644 127.097  0.00  0.00    +0.006 C 
ATOM      4  C   LIG A   1      -5.288  -1.339 125.937  0.00  0.00    +0.079 C 
ATOM      5  C   LIG A   1      -5.840  -2.156 124.804  0.00  0.00    +0.137 C 
ATOM      6  C   LIG A   1      -7.204  -2.742 125.117  0.00  0.00    +0.061 C 
ATOM      7  O   LIG A   1      -5.238  -2.327 123.750  0.00  0.00    -0.297 OA
ATOM      8  C   LIG A   1      -5.785  -2.785 128.052  0.00  0.00    -0.003 C 
ATOM      9  C   LIG A   1      -4.368  -2.521 128.597  0.00  0.00    +0.004 C 
ATOM     10  C   LIG A   1      -3.977  -3.276 129.859  0.00  0.00    +0.007 C 
ATOM     11  C   LIG A   1      -5.092  -3.501 130.891  0.00  0.00    +0.026 C 
ATOM     12  C   LIG A   1      -4.583  -3.444 132.345  0.00  0.00    +0.149 C 
ATOM     13  C   LIG A   1      -5.677  -3.877 133.339  0.00  0.00    +0.172 C 
ATOM     14  C   LIG A   1      -7.042  -3.210 133.112  0.00  0.00    +0.146 C 
ATOM     15  C   LIG A   1      -7.477  -3.227 131.642  0.00  0.00    +0.041 C 
ATOM     16  C   LIG A   1      -6.407  -2.709 130.624  0.00  0.00    -0.021 C 
ATOM     17  C   LIG A   1      -6.276  -1.177 130.788  0.00  0.00    +0.012 C 
ATOM     18  C   LIG A   1      -6.851  -3.076 129.158  0.00  0.00    -0.001 C 
ATOM     19  C   LIG A   1      -8.255  -2.559 128.779  0.00  0.00    +0.005 C 
ATOM     20  C   LIG A   1      -8.538  -2.796 127.300  0.00  0.00    +0.008 C 
ENDROOT
BRANCH   6  21
ATOM     21  C   LIG A   1      -8.126  -2.685 123.896  0.00  0.00    +0.008 C 
ATOM     22  C   LIG A   1      -9.379  -3.536 124.034  0.00  0.00    +0.004 C 
ENDBRANCH   6  21
BRANCH  12  23
ATOM     23  O   LIG A   1      -4.094  -2.162 132.748  0.00  0.00    -0.389 OA
ATOM     24  H   LIG A   1      -4.178  -2.084 133.714  0.00  0.00    +0.210 HD
ENDBRANCH  12  23
BRANCH  13  25
ATOM     25  O   LIG A   1      -5.234  -3.582 134.675  0.00  0.00    -0.387 OA
ATOM     26  H   LIG A   1      -4.373  -3.131 134.548  0.00  0.00    +0.210 HD
ENDBRANCH  13  25
BRANCH  14  27
ATOM     27  O   LIG A   1      -7.058  -1.871 133.606  0.00  0.00    -0.389 OA
ATOM     28  H   LIG A   1      -7.971  -1.555 133.462  0.00  0.00    +0.210 HD
ENDBRANCH  14  27
TORSDOF 4
ENDMDL
MODEL 9
REMARK VINA RESULT:      -7.2      6.297      8.135
REMARK  Name = NuBBE_994
REMARK  7 active torsions:
REMARK  status: ('A' for Active; 'I' for Inactive)
REMARK    1  A    between atoms: C_1  and  C_2
REMARK    2  A    between atoms: C_6  and  C_8
REMARK    3  A    between atoms: C_8  and  C_9
REMARK    4  A    between atoms: C_15  and  O_17
REMARK    5  A    between atoms: C_18  and  O_20
REMARK    6  A    between atoms: C_21  and  O_23
REMARK    7  A    between atoms: C_25  and  C_26
REMARK                            x       y       z     vdW  Elec       q    Type
REMARK                         _______ _______ _______ _____ _____    ______ ____
ROOT
ATOM      1  C   LIG A   1     -11.670   6.443 131.726  0.00  0.00    +0.012 C 
ATOM      2  C   LIG A   1     -11.013   5.830 130.468  0.00  0.00    -0.019 C 
ATOM      3  C   LIG A   1      -9.463   5.815 130.671  0.00  0.00    +0.006 C 
ATOM      4  C   LIG A   1      -9.018   7.239 130.300  0.00  0.00    +0.079 C 
ATOM      5  C   LIG A   1     -10.040   7.669 129.287  0.00  0.00    +0.137 C 
ATOM      6  C   LIG A   1     -11.212   6.710 129.195  0.00  0.00    +0.061 C 
ATOM      7  O   LIG A   1      -9.921   8.684 128.609  0.00  0.00    -0.297 OA
ATOM      8  C   LIG A   1      -8.755   4.678 129.876  0.00  0.00    -0.003 C 
ATOM      9  C   LIG A   1      -7.222   4.793 129.973  0.00  0.00    +0.004 C 
ATOM     10  C   LIG A   1      -6.427   3.535 129.653  0.00  0.00    +0.007 C 
ATOM     11  C   LIG A   1      -7.057   2.203 130.087  0.00  0.00    +0.026 C 
ATOM     12  C   LIG A   1      -6.011   1.166 130.541  0.00  0.00    +0.149 C 
ATOM     13  C   LIG A   1      -6.653  -0.215 130.769  0.00  0.00    +0.172 C 
ATOM     14  C   LIG A   1      -7.936  -0.188 131.614  0.00  0.00    +0.146 C 
ATOM     15  C   LIG A   1      -8.918   0.903 131.172  0.00  0.00    +0.041 C 
ATOM     16  C   LIG A   1      -8.299   2.333 131.018  0.00  0.00    -0.021 C 
ATOM     17  C   LIG A   1      -7.988   2.887 132.429  0.00  0.00    +0.012 C 
ATOM     18  C   LIG A   1      -9.317   3.271 130.265  0.00  0.00    -0.001 C 
ATOM     19  C   LIG A   1     -10.707   3.350 130.928  0.00  0.00    +0.005 C 
ATOM     20  C   LIG A   1     -11.572   4.407 130.249  0.00  0.00    +0.008 C 
ENDROOT
BRANCH   6  21
ATOM     21  C   LIG A   1     -12.534   7.463 129.025  0.00  0.00    +0.008 C 
ATOM     22  C   LIG A   1     -13.450   6.864 127.971  0.00  0.00    +0.004 C 
ENDBRANCH   6  21
BRANCH  12  23
ATOM     23  O   LIG A   1      -5.298   1.528 131.727  0.00  0.00    -0.389 OA
ATOM     24  H   LIG A   1      -5.636   2.383 132.047  0.00  0.00    +0.210 HD
ENDBRANCH  12  23
BRANCH  13  25
ATOM     25  O   LIG A   1      -5.695  -1.074 131.411  0.00  0.00    -0.387 OA
ATOM     26  H   LIG A   1      -5.292  -0.508 132.103  0.00  0.00    +0.210 HD
ENDBRANCH  13  25
BRANCH  14  27
ATOM     27  O   LIG A   1      -7.644  -0.044 133.004  0.00  0.00    -0.389 OA
ATOM     28  H   LIG A   1      -8.063   0.798 133.268  0.00  0.00    +0.210 HD
ENDBRANCH  14  27
TORSDOF 4
ENDMDL
