MODEL 1
REMARK VINA RESULT:      -7.9      0.000      0.000
REMARK  Name = NuBBE_998
REMARK  6 active torsions:
REMARK  status: ('A' for Active; 'I' for Inactive)
REMARK    1  A    between atoms: C_1  and  C_2
REMARK    2  A    between atoms: C_9  and  O_20
REMARK    3  A    between atoms: C_11  and  O_19
REMARK    4  A    between atoms: C_14  and  C_18
REMARK    5  A    between atoms: C_23  and  C_25
REMARK    6  A    between atoms: C_25  and  C_26
REMARK                            x       y       z     vdW  Elec       q    Type
REMARK                         _______ _______ _______ _____ _____    ______ ____
ROOT
ATOM      1  C   LIG A   1      -6.471  -1.592 123.465  0.00  0.00    +0.012 C 
ATOM      2  C   LIG A   1      -7.594  -1.437 124.517  0.00  0.00    -0.019 C 
ATOM      3  C   LIG A   1      -7.530  -2.652 125.498  0.00  0.00    +0.006 C 
ATOM      4  C   LIG A   1      -8.073  -2.299 126.911  0.00  0.00    -0.003 C 
ATOM      5  C   LIG A   1      -8.217  -3.537 127.812  0.00  0.00    +0.004 C 
ATOM      6  C   LIG A   1      -8.324  -3.198 129.286  0.00  0.00    +0.004 C 
ATOM      7  C   LIG A   1      -7.219  -2.273 129.850  0.00  0.00    -0.002 C 
ATOM      8  C   LIG A   1      -7.921  -1.288 130.823  0.00  0.00    +0.038 C 
ATOM      9  C   LIG A   1      -7.015  -0.214 131.411  0.00  0.00    +0.143 C 
ATOM     10  C   LIG A   1      -6.292   0.559 130.307  0.00  0.00    +0.144 C 
ATOM     11  C   LIG A   1      -5.519  -0.391 129.394  0.00  0.00    +0.041 C 
ATOM     12  C   LIG A   1      -6.331  -1.574 128.762  0.00  0.00    -0.024 C 
ATOM     13  C   LIG A   1      -7.260  -1.132 127.573  0.00  0.00    -0.001 C 
ATOM     14  C   LIG A   1      -6.555  -0.255 126.514  0.00  0.00    +0.005 C 
ATOM     15  C   LIG A   1      -7.411  -0.096 125.262  0.00  0.00    +0.008 C 
ATOM     16  C   LIG A   1      -5.224  -2.552 128.270  0.00  0.00    +0.012 C 
ATOM     17  C   LIG A   1      -8.285  -3.774 124.769  0.00  0.00    +0.079 C 
ATOM     18  C   LIG A   1      -9.270  -3.033 123.912  0.00  0.00    +0.137 C 
ATOM     19  C   LIG A   1      -9.021  -1.537 123.894  0.00  0.00    +0.061 C 
ATOM     20  O   LIG A   1     -10.175  -3.591 123.302  0.00  0.00    -0.297 OA
ENDROOT
BRANCH  10  21
ATOM     21  O   LIG A   1      -7.219   1.331 129.550  0.00  0.00    -0.389 OA
ATOM     22  H   LIG A   1      -7.430   0.823 128.747  0.00  0.00    +0.210 HD
ENDBRANCH  10  21
BRANCH   9  23
ATOM     23  O   LIG A   1      -6.086  -0.788 132.332  0.00  0.00    -0.389 OA
ATOM     24  H   LIG A   1      -6.578  -1.200 133.059  0.00  0.00    +0.210 HD
ENDBRANCH   9  23
BRANCH  19  25
ATOM     25  C   LIG A   1      -9.255  -0.949 122.499  0.00  0.00    +0.008 C 
ATOM     26  C   LIG A   1     -10.112   0.307 122.498  0.00  0.00    +0.004 C 
ENDBRANCH  19  25
TORSDOF 3
ENDMDL
MODEL 2
REMARK VINA RESULT:      -7.6      2.607      6.566
REMARK  Name = NuBBE_998
REMARK  6 active torsions:
REMARK  status: ('A' for Active; 'I' for Inactive)
REMARK    1  A    between atoms: C_1  and  C_2
REMARK    2  A    between atoms: C_9  and  O_20
REMARK    3  A    between atoms: C_11  and  O_19
REMARK    4  A    between atoms: C_14  and  C_18
REMARK    5  A    between atoms: C_23  and  C_25
REMARK    6  A    between atoms: C_25  and  C_26
REMARK                            x       y       z     vdW  Elec       q    Type
REMARK                         _______ _______ _______ _____ _____    ______ ____
ROOT
ATOM      1  C   LIG A   1      -6.217   4.048 126.516  0.00  0.00    +0.012 C 
ATOM      2  C   LIG A   1      -5.725   2.582 126.504  0.00  0.00    -0.019 C 
ATOM      3  C   LIG A   1      -6.715   1.717 127.351  0.00  0.00    +0.006 C 
ATOM      4  C   LIG A   1      -6.762   0.238 126.875  0.00  0.00    -0.003 C 
ATOM      5  C   LIG A   1      -7.560  -0.663 127.832  0.00  0.00    +0.004 C 
ATOM      6  C   LIG A   1      -7.986  -1.977 127.205  0.00  0.00    +0.004 C 
ATOM      7  C   LIG A   1      -8.729  -1.871 125.852  0.00  0.00    -0.002 C 
ATOM      8  C   LIG A   1      -8.193  -3.024 124.963  0.00  0.00    +0.038 C 
ATOM      9  C   LIG A   1      -8.727  -3.034 123.536  0.00  0.00    +0.143 C 
ATOM     10  C   LIG A   1      -8.492  -1.686 122.852  0.00  0.00    +0.144 C 
ATOM     11  C   LIG A   1      -9.097  -0.547 123.672  0.00  0.00    +0.041 C 
ATOM     12  C   LIG A   1      -8.663  -0.457 125.177  0.00  0.00    -0.024 C 
ATOM     13  C   LIG A   1      -7.216   0.122 125.378  0.00  0.00    -0.001 C 
ATOM     14  C   LIG A   1      -6.943   1.425 124.595  0.00  0.00    +0.005 C 
ATOM     15  C   LIG A   1      -5.643   2.084 125.044  0.00  0.00    +0.008 C 
ATOM     16  C   LIG A   1      -9.732   0.484 125.806  0.00  0.00    +0.012 C 
ATOM     17  C   LIG A   1      -6.258   1.922 128.803  0.00  0.00    +0.079 C 
ATOM     18  C   LIG A   1      -4.788   2.198 128.672  0.00  0.00    +0.137 C 
ATOM     19  C   LIG A   1      -4.357   2.399 127.232  0.00  0.00    +0.061 C 
ATOM     20  O   LIG A   1      -4.031   2.248 129.635  0.00  0.00    -0.297 OA
ENDROOT
BRANCH  10  21
ATOM     21  O   LIG A   1      -7.100  -1.466 122.650  0.00  0.00    -0.389 OA
ATOM     22  H   LIG A   1      -6.652  -2.322 122.767  0.00  0.00    +0.210 HD
ENDBRANCH  10  21
BRANCH   9  23
ATOM     23  O   LIG A   1     -10.111  -3.386 123.518  0.00  0.00    -0.389 OA
ATOM     24  H   LIG A   1     -10.631  -2.630 123.834  0.00  0.00    +0.210 HD
ENDBRANCH   9  23
BRANCH  19  25
ATOM     25  C   LIG A   1      -3.310   3.511 127.113  0.00  0.00    +0.008 C 
ATOM     26  C   LIG A   1      -1.930   3.013 126.714  0.00  0.00    +0.004 C 
ENDBRANCH  19  25
TORSDOF 3
ENDMDL
MODEL 3
REMARK VINA RESULT:      -7.5      2.387      6.913
REMARK  Name = NuBBE_998
REMARK  6 active torsions:
REMARK  status: ('A' for Active; 'I' for Inactive)
REMARK    1  A    between atoms: C_1  and  C_2
REMARK    2  A    between atoms: C_9  and  O_20
REMARK    3  A    between atoms: C_11  and  O_19
REMARK    4  A    between atoms: C_14  and  C_18
REMARK    5  A    between atoms: C_23  and  C_25
REMARK    6  A    between atoms: C_25  and  C_26
REMARK                            x       y       z     vdW  Elec       q    Type
REMARK                         _______ _______ _______ _____ _____    ______ ____
ROOT
ATOM      1  C   LIG A   1      -4.914  -0.831 131.269  0.00  0.00    +0.012 C 
ATOM      2  C   LIG A   1      -5.243  -2.172 130.571  0.00  0.00    -0.019 C 
ATOM      3  C   LIG A   1      -6.780  -2.223 130.289  0.00  0.00    +0.006 C 
ATOM      4  C   LIG A   1      -7.124  -3.100 129.053  0.00  0.00    -0.003 C 
ATOM      5  C   LIG A   1      -8.636  -3.333 128.899  0.00  0.00    +0.004 C 
ATOM      6  C   LIG A   1      -9.034  -3.800 127.512  0.00  0.00    +0.004 C 
ATOM      7  C   LIG A   1      -8.521  -2.938 126.335  0.00  0.00    -0.002 C 
ATOM      8  C   LIG A   1      -8.096  -3.925 125.216  0.00  0.00    +0.038 C 
ATOM      9  C   LIG A   1      -7.457  -3.275 123.996  0.00  0.00    +0.143 C 
ATOM     10  C   LIG A   1      -6.274  -2.393 124.400  0.00  0.00    +0.144 C 
ATOM     11  C   LIG A   1      -6.700  -1.352 125.434  0.00  0.00    +0.041 C 
ATOM     12  C   LIG A   1      -7.417  -1.893 126.720  0.00  0.00    -0.024 C 
ATOM     13  C   LIG A   1      -6.436  -2.564 127.749  0.00  0.00    -0.001 C 
ATOM     14  C   LIG A   1      -5.183  -1.720 128.070  0.00  0.00    +0.005 C 
ATOM     15  C   LIG A   1      -4.423  -2.282 129.267  0.00  0.00    +0.008 C 
ATOM     16  C   LIG A   1      -8.076  -0.620 127.329  0.00  0.00    +0.012 C 
ATOM     17  C   LIG A   1      -7.398  -2.691 131.615  0.00  0.00    +0.079 C 
ATOM     18  C   LIG A   1      -6.310  -3.520 132.235  0.00  0.00    +0.137 C 
ATOM     19  C   LIG A   1      -4.993  -3.407 131.491  0.00  0.00    +0.061 C 
ATOM     20  O   LIG A   1      -6.485  -4.210 133.233  0.00  0.00    -0.297 OA
ENDROOT
BRANCH  10  21
ATOM     21  O   LIG A   1      -5.209  -3.190 124.906  0.00  0.00    -0.389 OA
ATOM     22  H   LIG A   1      -5.300  -4.076 124.515  0.00  0.00    +0.210 HD
ENDBRANCH  10  21
BRANCH   9  23
ATOM     23  O   LIG A   1      -8.426  -2.531 123.257  0.00  0.00    -0.389 OA
ATOM     24  H   LIG A   1      -8.902  -1.943 123.865  0.00  0.00    +0.210 HD
ENDBRANCH   9  23
BRANCH  19  25
ATOM     25  C   LIG A   1      -3.807  -3.371 132.460  0.00  0.00    +0.008 C 
ATOM     26  C   LIG A   1      -3.349  -4.746 132.920  0.00  0.00    +0.004 C 
ENDBRANCH  19  25
TORSDOF 3
ENDMDL
MODEL 4
REMARK VINA RESULT:      -7.5      3.114      5.064
REMARK  Name = NuBBE_998
REMARK  6 active torsions:
REMARK  status: ('A' for Active; 'I' for Inactive)
REMARK    1  A    between atoms: C_1  and  C_2
REMARK    2  A    between atoms: C_9  and  O_20
REMARK    3  A    between atoms: C_11  and  O_19
REMARK    4  A    between atoms: C_14  and  C_18
REMARK    5  A    between atoms: C_23  and  C_25
REMARK    6  A    between atoms: C_25  and  C_26
REMARK                            x       y       z     vdW  Elec       q    Type
REMARK                         _______ _______ _______ _____ _____    ______ ____
ROOT
ATOM      1  C   LIG A   1      -7.497  -2.507 126.259  0.00  0.00    +0.012 C 
ATOM      2  C   LIG A   1      -6.550  -1.582 125.458  0.00  0.00    -0.019 C 
ATOM      3  C   LIG A   1      -7.327  -0.279 125.081  0.00  0.00    +0.006 C 
ATOM      4  C   LIG A   1      -6.384   0.946 124.925  0.00  0.00    -0.003 C 
ATOM      5  C   LIG A   1      -7.105   2.174 124.345  0.00  0.00    +0.004 C 
ATOM      6  C   LIG A   1      -6.359   3.474 124.576  0.00  0.00    +0.004 C 
ATOM      7  C   LIG A   1      -5.937   3.763 126.036  0.00  0.00    -0.002 C 
ATOM      8  C   LIG A   1      -4.513   4.374 125.972  0.00  0.00    +0.038 C 
ATOM      9  C   LIG A   1      -3.866   4.636 127.327  0.00  0.00    +0.143 C 
ATOM     10  C   LIG A   1      -3.861   3.371 128.186  0.00  0.00    +0.144 C 
ATOM     11  C   LIG A   1      -5.274   2.808 128.336  0.00  0.00    +0.041 C 
ATOM     12  C   LIG A   1      -6.067   2.540 127.009  0.00  0.00    -0.024 C 
ATOM     13  C   LIG A   1      -5.596   1.248 126.248  0.00  0.00    -0.001 C 
ATOM     14  C   LIG A   1      -5.482  -0.006 127.143  0.00  0.00    +0.005 C 
ATOM     15  C   LIG A   1      -5.301  -1.271 126.312  0.00  0.00    +0.008 C 
ATOM     16  C   LIG A   1      -7.540   2.397 127.492  0.00  0.00    +0.012 C 
ATOM     17  C   LIG A   1      -8.122  -0.657 123.823  0.00  0.00    +0.079 C 
ATOM     18  C   LIG A   1      -7.281  -1.724 123.185  0.00  0.00    +0.137 C 
ATOM     19  C   LIG A   1      -6.145  -2.185 124.078  0.00  0.00    +0.061 C 
ATOM     20  O   LIG A   1      -7.500  -2.163 122.061  0.00  0.00    -0.297 OA
ENDROOT
BRANCH  10  21
ATOM     21  O   LIG A   1      -2.993   2.391 127.625  0.00  0.00    -0.389 OA
ATOM     22  H   LIG A   1      -3.507   1.896 126.963  0.00  0.00    +0.210 HD
ENDBRANCH  10  21
BRANCH   9  23
ATOM     23  O   LIG A   1      -4.523   5.712 127.998  0.00  0.00    -0.389 OA
ATOM     24  H   LIG A   1      -5.274   6.007 127.459  0.00  0.00    +0.210 HD
ENDBRANCH   9  23
BRANCH  19  25
ATOM     25  C   LIG A   1      -5.932  -3.698 123.973  0.00  0.00    +0.008 C 
ATOM     26  C   LIG A   1      -4.513  -4.093 123.598  0.00  0.00    +0.004 C 
ENDBRANCH  19  25
TORSDOF 3
ENDMDL
MODEL 5
REMARK VINA RESULT:      -7.2      1.457      6.782
REMARK  Name = NuBBE_998
REMARK  6 active torsions:
REMARK  status: ('A' for Active; 'I' for Inactive)
REMARK    1  A    between atoms: C_1  and  C_2
REMARK    2  A    between atoms: C_9  and  O_20
REMARK    3  A    between atoms: C_11  and  O_19
REMARK    4  A    between atoms: C_14  and  C_18
REMARK    5  A    between atoms: C_23  and  C_25
REMARK    6  A    between atoms: C_25  and  C_26
REMARK                            x       y       z     vdW  Elec       q    Type
REMARK                         _______ _______ _______ _____ _____    ______ ____
ROOT
ATOM      1  C   LIG A   1      -5.728  -4.395 130.195  0.00  0.00    +0.012 C 
ATOM      2  C   LIG A   1      -6.457  -3.116 129.723  0.00  0.00    -0.019 C 
ATOM      3  C   LIG A   1      -5.541  -2.368 128.700  0.00  0.00    +0.006 C 
ATOM      4  C   LIG A   1      -6.358  -1.531 127.677  0.00  0.00    -0.003 C 
ATOM      5  C   LIG A   1      -5.467  -0.625 126.811  0.00  0.00    +0.004 C 
ATOM      6  C   LIG A   1      -6.153  -0.135 125.551  0.00  0.00    +0.004 C 
ATOM      7  C   LIG A   1      -6.799  -1.225 124.664  0.00  0.00    -0.002 C 
ATOM      8  C   LIG A   1      -8.147  -0.644 124.161  0.00  0.00    +0.038 C 
ATOM      9  C   LIG A   1      -8.999  -1.610 123.348  0.00  0.00    +0.143 C 
ATOM     10  C   LIG A   1      -9.238  -2.912 124.116  0.00  0.00    +0.144 C 
ATOM     11  C   LIG A   1      -7.913  -3.545 124.538  0.00  0.00    +0.041 C 
ATOM     12  C   LIG A   1      -6.923  -2.634 125.343  0.00  0.00    -0.024 C 
ATOM     13  C   LIG A   1      -7.341  -2.426 126.844  0.00  0.00    -0.001 C 
ATOM     14  C   LIG A   1      -7.692  -3.734 127.588  0.00  0.00    +0.005 C 
ATOM     15  C   LIG A   1      -7.812  -3.506 129.091  0.00  0.00    +0.008 C 
ATOM     16  C   LIG A   1      -5.568  -3.394 125.242  0.00  0.00    +0.012 C 
ATOM     17  C   LIG A   1      -4.567  -1.563 129.574  0.00  0.00    +0.079 C 
ATOM     18  C   LIG A   1      -5.356  -1.300 130.825  0.00  0.00    +0.137 C 
ATOM     19  C   LIG A   1      -6.658  -2.077 130.870  0.00  0.00    +0.061 C 
ATOM     20  O   LIG A   1      -4.975  -0.534 131.703  0.00  0.00    -0.297 OA
ENDROOT
BRANCH  10  21
ATOM     21  O   LIG A   1     -10.059  -2.674 125.255  0.00  0.00    -0.389 OA
ATOM     22  H   LIG A   1     -10.390  -3.537 125.558  0.00  0.00    +0.210 HD
ENDBRANCH  10  21
BRANCH   9  23
ATOM     23  O   LIG A   1      -8.397  -1.865 122.078  0.00  0.00    -0.389 OA
ATOM     24  H   LIG A   1      -7.608  -1.307 121.987  0.00  0.00    +0.210 HD
ENDBRANCH   9  23
BRANCH  19  25
ATOM     25  C   LIG A   1      -6.950  -2.593 132.282  0.00  0.00    +0.008 C 
ATOM     26  C   LIG A   1      -8.017  -1.796 133.017  0.00  0.00    +0.004 C 
ENDBRANCH  19  25
TORSDOF 3
ENDMDL
MODEL 6
REMARK VINA RESULT:      -7.0      6.366      9.803
REMARK  Name = NuBBE_998
REMARK  6 active torsions:
REMARK  status: ('A' for Active; 'I' for Inactive)
REMARK    1  A    between atoms: C_1  and  C_2
REMARK    2  A    between atoms: C_9  and  O_20
REMARK    3  A    between atoms: C_11  and  O_19
REMARK    4  A    between atoms: C_14  and  C_18
REMARK    5  A    between atoms: C_23  and  C_25
REMARK    6  A    between atoms: C_25  and  C_26
REMARK                            x       y       z     vdW  Elec       q    Type
REMARK                         _______ _______ _______ _____ _____    ______ ____
ROOT
ATOM      1  C   LIG A   1      -2.708   5.549 129.204  0.00  0.00    +0.012 C 
ATOM      2  C   LIG A   1      -3.430   5.641 130.569  0.00  0.00    -0.019 C 
ATOM      3  C   LIG A   1      -4.805   6.356 130.360  0.00  0.00    +0.006 C 
ATOM      4  C   LIG A   1      -5.866   5.912 131.404  0.00  0.00    -0.003 C 
ATOM      5  C   LIG A   1      -7.145   6.763 131.343  0.00  0.00    +0.004 C 
ATOM      6  C   LIG A   1      -8.334   6.111 132.021  0.00  0.00    +0.004 C 
ATOM      7  C   LIG A   1      -8.655   4.664 131.580  0.00  0.00    -0.002 C 
ATOM      8  C   LIG A   1      -9.046   3.887 132.865  0.00  0.00    +0.038 C 
ATOM      9  C   LIG A   1      -9.301   2.399 132.662  0.00  0.00    +0.143 C 
ATOM     10  C   LIG A   1      -8.108   1.726 131.979  0.00  0.00    +0.144 C 
ATOM     11  C   LIG A   1      -7.769   2.424 130.663  0.00  0.00    +0.041 C 
ATOM     12  C   LIG A   1      -7.531   3.973 130.731  0.00  0.00    -0.024 C 
ATOM     13  C   LIG A   1      -6.137   4.367 131.339  0.00  0.00    -0.001 C 
ATOM     14  C   LIG A   1      -4.942   3.603 130.727  0.00  0.00    +0.005 C 
ATOM     15  C   LIG A   1      -3.612   4.220 131.146  0.00  0.00    +0.008 C 
ATOM     16  C   LIG A   1      -7.637   4.420 129.243  0.00  0.00    +0.012 C 
ATOM     17  C   LIG A   1      -4.464   7.854 130.369  0.00  0.00    +0.079 C 
ATOM     18  C   LIG A   1      -3.245   7.930 131.243  0.00  0.00    +0.137 C 
ATOM     19  C   LIG A   1      -2.684   6.562 131.584  0.00  0.00    +0.061 C 
ATOM     20  O   LIG A   1      -2.770   8.990 131.633  0.00  0.00    -0.297 OA
ENDROOT
BRANCH  10  21
ATOM     21  O   LIG A   1      -6.977   1.721 132.845  0.00  0.00    -0.389 OA
ATOM     22  H   LIG A   1      -7.302   1.534 133.743  0.00  0.00    +0.210 HD
ENDBRANCH  10  21
BRANCH   9  23
ATOM     23  O   LIG A   1     -10.503   2.190 131.920  0.00  0.00    -0.389 OA
ATOM     24  H   LIG A   1     -11.044   2.994 131.966  0.00  0.00    +0.210 HD
ENDBRANCH   9  23
BRANCH  19  25
ATOM     25  C   LIG A   1      -1.152   6.571 131.577  0.00  0.00    +0.008 C 
ATOM     26  C   LIG A   1      -0.533   6.662 132.963  0.00  0.00    +0.004 C 
ENDBRANCH  19  25
TORSDOF 3
ENDMDL
MODEL 7
REMARK VINA RESULT:      -6.9      2.091      6.492
REMARK  Name = NuBBE_998
REMARK  6 active torsions:
REMARK  status: ('A' for Active; 'I' for Inactive)
REMARK    1  A    between atoms: C_1  and  C_2
REMARK    2  A    between atoms: C_9  and  O_20
REMARK    3  A    between atoms: C_11  and  O_19
REMARK    4  A    between atoms: C_14  and  C_18
REMARK    5  A    between atoms: C_23  and  C_25
REMARK    6  A    between atoms: C_25  and  C_26
REMARK                            x       y       z     vdW  Elec       q    Type
REMARK                         _______ _______ _______ _____ _____    ______ ____
ROOT
ATOM      1  C   LIG A   1      -6.624  -2.278 130.977  0.00  0.00    +0.012 C 
ATOM      2  C   LIG A   1      -5.995  -1.425 129.851  0.00  0.00    -0.019 C 
ATOM      3  C   LIG A   1      -5.853  -2.314 128.572  0.00  0.00    +0.006 C 
ATOM      4  C   LIG A   1      -5.912  -1.479 127.263  0.00  0.00    -0.003 C 
ATOM      5  C   LIG A   1      -5.556  -2.309 126.019  0.00  0.00    +0.004 C 
ATOM      6  C   LIG A   1      -6.009  -1.670 124.720  0.00  0.00    +0.004 C 
ATOM      7  C   LIG A   1      -7.497  -1.251 124.655  0.00  0.00    -0.002 C 
ATOM      8  C   LIG A   1      -7.539   0.117 123.923  0.00  0.00    +0.038 C 
ATOM      9  C   LIG A   1      -8.917   0.761 123.847  0.00  0.00    +0.143 C 
ATOM     10  C   LIG A   1      -9.543   0.886 125.238  0.00  0.00    +0.144 C 
ATOM     11  C   LIG A   1      -9.593  -0.473 125.935  0.00  0.00    +0.041 C 
ATOM     12  C   LIG A   1      -8.242  -1.262 126.035  0.00  0.00    -0.024 C 
ATOM     13  C   LIG A   1      -7.266  -0.697 127.130  0.00  0.00    -0.001 C 
ATOM     14  C   LIG A   1      -7.928  -0.464 128.506  0.00  0.00    +0.005 C 
ATOM     15  C   LIG A   1      -6.887  -0.192 129.587  0.00  0.00    +0.008 C 
ATOM     16  C   LIG A   1      -8.694  -2.710 126.385  0.00  0.00    +0.012 C 
ATOM     17  C   LIG A   1      -4.549  -3.096 128.792  0.00  0.00    +0.079 C 
ATOM     18  C   LIG A   1      -3.733  -2.178 129.656  0.00  0.00    +0.137 C 
ATOM     19  C   LIG A   1      -4.530  -0.993 130.167  0.00  0.00    +0.061 C 
ATOM     20  O   LIG A   1      -2.550  -2.379 129.909  0.00  0.00    -0.297 OA
ENDROOT
BRANCH  10  21
ATOM     21  O   LIG A   1      -8.817   1.823 126.027  0.00  0.00    -0.389 OA
ATOM     22  H   LIG A   1      -9.469   2.360 126.510  0.00  0.00    +0.210 HD
ENDBRANCH  10  21
BRANCH   9  23
ATOM     23  O   LIG A   1      -9.768   0.028 122.964  0.00  0.00    -0.389 OA
ATOM     24  H   LIG A   1      -9.384  -0.851 122.817  0.00  0.00    +0.210 HD
ENDBRANCH   9  23
BRANCH  19  25
ATOM     25  C   LIG A   1      -4.161  -0.657 131.615  0.00  0.00    +0.008 C 
ATOM     26  C   LIG A   1      -4.156   0.834 131.917  0.00  0.00    +0.004 C 
ENDBRANCH  19  25
TORSDOF 3
ENDMDL
MODEL 8
REMARK VINA RESULT:      -6.9      3.882      6.081
REMARK  Name = NuBBE_998
REMARK  6 active torsions:
REMARK  status: ('A' for Active; 'I' for Inactive)
REMARK    1  A    between atoms: C_1  and  C_2
REMARK    2  A    between atoms: C_9  and  O_20
REMARK    3  A    between atoms: C_11  and  O_19
REMARK    4  A    between atoms: C_14  and  C_18
REMARK    5  A    between atoms: C_23  and  C_25
REMARK    6  A    between atoms: C_25  and  C_26
REMARK                            x       y       z     vdW  Elec       q    Type
REMARK                         _______ _______ _______ _____ _____    ______ ____
ROOT
ATOM      1  C   LIG A   1      -7.774  -3.493 129.014  0.00  0.00    +0.012 C 
ATOM      2  C   LIG A   1      -6.832  -2.617 129.872  0.00  0.00    -0.019 C 
ATOM      3  C   LIG A   1      -6.312  -1.433 128.993  0.00  0.00    +0.006 C 
ATOM      4  C   LIG A   1      -5.969  -0.175 129.839  0.00  0.00    -0.003 C 
ATOM      5  C   LIG A   1      -5.257   0.911 129.016  0.00  0.00    +0.004 C 
ATOM      6  C   LIG A   1      -5.293   2.280 129.668  0.00  0.00    +0.004 C 
ATOM      7  C   LIG A   1      -6.690   2.788 130.097  0.00  0.00    -0.002 C 
ATOM      8  C   LIG A   1      -6.505   3.485 131.470  0.00  0.00    +0.038 C 
ATOM      9  C   LIG A   1      -7.793   3.969 132.123  0.00  0.00    +0.143 C 
ATOM     10  C   LIG A   1      -8.810   2.831 132.240  0.00  0.00    +0.144 C 
ATOM     11  C   LIG A   1      -9.073   2.195 130.876  0.00  0.00    +0.041 C 
ATOM     12  C   LIG A   1      -7.818   1.698 130.079  0.00  0.00    -0.024 C 
ATOM     13  C   LIG A   1      -7.218   0.354 130.629  0.00  0.00    -0.001 C 
ATOM     14  C   LIG A   1      -8.264  -0.760 130.855  0.00  0.00    +0.005 C 
ATOM     15  C   LIG A   1      -7.599  -2.107 131.113  0.00  0.00    +0.008 C 
ATOM     16  C   LIG A   1      -8.359   1.515 128.630  0.00  0.00    +0.012 C 
ATOM     17  C   LIG A   1      -5.138  -2.029 128.202  0.00  0.00    +0.079 C 
ATOM     18  C   LIG A   1      -4.619  -3.109 129.107  0.00  0.00    +0.137 C 
ATOM     19  C   LIG A   1      -5.529  -3.366 130.293  0.00  0.00    +0.061 C 
ATOM     20  O   LIG A   1      -3.569  -3.706 128.898  0.00  0.00    -0.297 OA
ENDROOT
BRANCH  10  21
ATOM     21  O   LIG A   1      -8.354   1.851 133.167  0.00  0.00    -0.389 OA
ATOM     22  H   LIG A   1      -7.383   1.897 133.181  0.00  0.00    +0.210 HD
ENDBRANCH  10  21
BRANCH   9  23
ATOM     23  O   LIG A   1      -8.339   5.075 131.402  0.00  0.00    -0.389 OA
ATOM     24  H   LIG A   1      -8.274   5.871 131.953  0.00  0.00    +0.210 HD
ENDBRANCH   9  23
BRANCH  19  25
ATOM     25  C   LIG A   1      -5.616  -4.861 130.616  0.00  0.00    +0.008 C 
ATOM     26  C   LIG A   1      -5.310  -5.193 132.068  0.00  0.00    +0.004 C 
ENDBRANCH  19  25
TORSDOF 3
ENDMDL
MODEL 9
REMARK VINA RESULT:      -6.8      5.724      8.260
REMARK  Name = NuBBE_998
REMARK  6 active torsions:
REMARK  status: ('A' for Active; 'I' for Inactive)
REMARK    1  A    between atoms: C_1  and  C_2
REMARK    2  A    between atoms: C_9  and  O_20
REMARK    3  A    between atoms: C_11  and  O_19
REMARK    4  A    between atoms: C_14  and  C_18
REMARK    5  A    between atoms: C_23  and  C_25
REMARK    6  A    between atoms: C_25  and  C_26
REMARK                            x       y       z     vdW  Elec       q    Type
REMARK                         _______ _______ _______ _____ _____    ______ ____
ROOT
ATOM      1  C   LIG A   1      -9.721   3.272 130.202  0.00  0.00    +0.012 C 
ATOM      2  C   LIG A   1      -8.606   4.326 130.005  0.00  0.00    -0.019 C 
ATOM      3  C   LIG A   1      -7.357   3.895 130.840  0.00  0.00    +0.006 C 
ATOM      4  C   LIG A   1      -6.028   4.415 130.226  0.00  0.00    -0.003 C 
ATOM      5  C   LIG A   1      -4.822   4.183 131.152  0.00  0.00    +0.004 C 
ATOM      6  C   LIG A   1      -3.488   4.274 130.435  0.00  0.00    +0.004 C 
ATOM      7  C   LIG A   1      -3.341   3.404 129.165  0.00  0.00    -0.002 C 
ATOM      8  C   LIG A   1      -2.577   4.265 128.125  0.00  0.00    +0.038 C 
ATOM      9  C   LIG A   1      -2.419   3.622 126.752  0.00  0.00    +0.143 C 
ATOM     10  C   LIG A   1      -3.774   3.191 126.189  0.00  0.00    +0.144 C 
ATOM     11  C   LIG A   1      -4.500   2.265 127.164  0.00  0.00    +0.041 C 
ATOM     12  C   LIG A   1      -4.684   2.794 128.629  0.00  0.00    -0.024 C 
ATOM     13  C   LIG A   1      -5.811   3.880 128.767  0.00  0.00    -0.001 C 
ATOM     14  C   LIG A   1      -7.148   3.490 128.098  0.00  0.00    +0.005 C 
ATOM     15  C   LIG A   1      -8.272   4.438 128.501  0.00  0.00    +0.008 C 
ATOM     16  C   LIG A   1      -5.044   1.510 129.434  0.00  0.00    +0.012 C 
ATOM     17  C   LIG A   1      -7.658   4.389 132.263  0.00  0.00    +0.079 C 
ATOM     18  C   LIG A   1      -8.540   5.583 132.040  0.00  0.00    +0.137 C 
ATOM     19  C   LIG A   1      -8.984   5.720 130.596  0.00  0.00    +0.061 C 
ATOM     20  O   LIG A   1      -8.855   6.356 132.938  0.00  0.00    -0.297 OA
ENDROOT
BRANCH  10  21
ATOM     21  O   LIG A   1      -4.576   4.331 125.895  0.00  0.00    -0.389 OA
ATOM     22  H   LIG A   1      -4.555   4.908 126.679  0.00  0.00    +0.210 HD
ENDBRANCH  10  21
BRANCH   9  23
ATOM     23  O   LIG A   1      -1.513   2.520 126.814  0.00  0.00    -0.389 OA
ATOM     24  H   LIG A   1      -1.688   1.927 126.066  0.00  0.00    +0.210 HD
ENDBRANCH   9  23
BRANCH  19  25
ATOM     25  C   LIG A   1     -10.440   6.186 130.503  0.00  0.00    +0.008 C 
ATOM     26  C   LIG A   1     -10.623   7.474 129.715  0.00  0.00    +0.004 C 
ENDBRANCH  19  25
TORSDOF 3
ENDMDL
