MODEL 1
REMARK VINA RESULT:      -8.6      0.000      0.000
REMARK  Name = NuBBE_1479
REMARK  15 active torsions:
REMARK  status: ('A' for Active; 'I' for Inactive)
REMARK    1  A    between atoms: C_2  and  C_27
REMARK    2  A    between atoms: N_3  and  C_5
REMARK    3  A    between atoms: C_5  and  C_6
REMARK    4  A    between atoms: C_6  and  C_7
REMARK    5  A    between atoms: C_10  and  O_11
REMARK    6  A    between atoms: O_11  and  C_12
REMARK    7  A    between atoms: C_12  and  C_13
REMARK    8  A    between atoms: C_14  and  C_15
REMARK    9  A    between atoms: C_14  and  C_16
REMARK   10  A    between atoms: C_16  and  C_17
REMARK   11  A    between atoms: C_16  and  C_20
REMARK   12  A    between atoms: C_17  and  C_18
REMARK   13  A    between atoms: C_20  and  C_21
REMARK   14  A    between atoms: C_22  and  C_23
REMARK   15  A    between atoms: C_22  and  C_24
REMARK                            x       y       z     vdW  Elec       q    Type
REMARK                         _______ _______ _______ _____ _____    ______ ____
ROOT
ATOM      1  C   LIG A   1      -8.746   2.651 133.059  0.00  0.00    -0.046 A 
ATOM      2  C   LIG A   1      -9.498   1.841 132.201  0.00  0.00    +0.007 A 
ATOM      3  C   LIG A   1      -8.878   0.825 131.463  0.00  0.00    +0.046 A 
ATOM      4  C   LIG A   1      -7.503   0.609 131.582  0.00  0.00    +0.121 A 
ATOM      5  C   LIG A   1      -6.760   1.391 132.460  0.00  0.00    +0.046 A 
ATOM      6  C   LIG A   1      -7.370   2.419 133.164  0.00  0.00    +0.007 A 
ENDROOT
BRANCH   1   7
ATOM      7  C   LIG A   1      -9.392   3.783 133.827  0.00  0.00    +0.054 C 
BRANCH   7   8
ATOM      8  C   LIG A   1      -8.800   5.160 133.521  0.00  0.00    +0.109 C 
BRANCH   8  11
ATOM      9  O   LIG A   1      -8.540   5.629 130.720  0.00  0.00    -0.270 OA
ATOM     10  C   LIG A   1      -9.473   6.113 131.325  0.00  0.00    +0.244 C 
ATOM     11  N   LIG A   1      -9.633   6.003 132.699  0.00  0.00    -0.311 N 
ATOM     12  H   LIG A   1     -10.302   6.556 133.199  0.00  0.00    +0.149 HD
BRANCH  10  13
ATOM     13  C   LIG A   1     -10.565   6.863 130.619  0.00  0.00    +0.037 A 
ATOM     14  C   LIG A   1     -11.856   6.869 131.183  0.00  0.00    +0.013 A 
ATOM     15  C   LIG A   1     -12.885   7.581 130.554  0.00  0.00    +0.001 A 
ATOM     16  C   LIG A   1     -12.634   8.287 129.378  0.00  0.00    +0.000 A 
ATOM     17  C   LIG A   1     -11.358   8.297 128.831  0.00  0.00    +0.001 A 
ATOM     18  C   LIG A   1     -10.334   7.593 129.453  0.00  0.00    +0.013 A 
ENDBRANCH  10  13
ENDBRANCH   8  11
ENDBRANCH   7   8
ENDBRANCH   1   7
BRANCH   4  19
ATOM     19  O   LIG A   1      -6.950  -0.376 130.810  0.00  0.00    -0.488 OA
BRANCH  19  20
ATOM     20  C   LIG A   1      -7.900  -1.346 130.336  0.00  0.00    +0.257 C 
BRANCH  20  21
ATOM     21  C   LIG A   1      -7.708  -1.487 128.858  0.00  0.00    +0.013 C 
ATOM     22  C   LIG A   1      -8.060  -2.538 128.086  0.00  0.00    -0.063 C 
ATOM     23  C   LIG A   1      -8.722  -3.781 128.645  0.00  0.00    +0.040 C 
BRANCH  22  24
ATOM     24  C   LIG A   1      -7.813  -2.560 126.571  0.00  0.00    +0.084 C 
BRANCH  24  25
ATOM     25  C   LIG A   1      -9.042  -2.005 125.847  0.00  0.00    +0.138 C 
ATOM     26  C   LIG A   1      -9.056  -0.548 125.448  0.00  0.00    +0.086 C 
ATOM     27  O   LIG A   1     -10.017  -2.727 125.618  0.00  0.00    -0.297 OA
ENDBRANCH  24  25
BRANCH  24  28
ATOM     28  C   LIG A   1      -6.534  -1.842 126.076  0.00  0.00    +0.042 C 
BRANCH  28  29
ATOM     29  C   LIG A   1      -5.564  -2.725 125.323  0.00  0.00    -0.027 C 
ATOM     30  C   LIG A   1      -5.431  -2.815 123.984  0.00  0.00    -0.080 C 
ATOM     31  C   LIG A   1      -6.281  -2.091 122.974  0.00  0.00    +0.038 C 
ATOM     32  C   LIG A   1      -4.336  -3.653 123.370  0.00  0.00    +0.038 C 
ENDBRANCH  28  29
ENDBRANCH  24  28
ENDBRANCH  22  24
ENDBRANCH  20  21
ENDBRANCH  19  20
ENDBRANCH   4  19
TORSDOF 11
ENDMDL
MODEL 2
REMARK VINA RESULT:      -8.2      4.739      8.775
REMARK  Name = NuBBE_1479
REMARK  15 active torsions:
REMARK  status: ('A' for Active; 'I' for Inactive)
REMARK    1  A    between atoms: C_2  and  C_27
REMARK    2  A    between atoms: N_3  and  C_5
REMARK    3  A    between atoms: C_5  and  C_6
REMARK    4  A    between atoms: C_6  and  C_7
REMARK    5  A    between atoms: C_10  and  O_11
REMARK    6  A    between atoms: O_11  and  C_12
REMARK    7  A    between atoms: C_12  and  C_13
REMARK    8  A    between atoms: C_14  and  C_15
REMARK    9  A    between atoms: C_14  and  C_16
REMARK   10  A    between atoms: C_16  and  C_17
REMARK   11  A    between atoms: C_16  and  C_20
REMARK   12  A    between atoms: C_17  and  C_18
REMARK   13  A    between atoms: C_20  and  C_21
REMARK   14  A    between atoms: C_22  and  C_23
REMARK   15  A    between atoms: C_22  and  C_24
REMARK                            x       y       z     vdW  Elec       q    Type
REMARK                         _______ _______ _______ _____ _____    ______ ____
ROOT
ATOM      1  C   LIG A   1      -7.399  -2.859 129.252  0.00  0.00    -0.046 A 
ATOM      2  C   LIG A   1      -7.549  -1.468 129.277  0.00  0.00    +0.007 A 
ATOM      3  C   LIG A   1      -6.442  -0.642 129.506  0.00  0.00    +0.046 A 
ATOM      4  C   LIG A   1      -5.177  -1.200 129.706  0.00  0.00    +0.121 A 
ATOM      5  C   LIG A   1      -5.021  -2.581 129.647  0.00  0.00    +0.046 A 
ATOM      6  C   LIG A   1      -6.124  -3.400 129.454  0.00  0.00    +0.007 A 
ENDROOT
BRANCH   1   7
ATOM      7  C   LIG A   1      -8.592  -3.768 129.052  0.00  0.00    +0.054 C 
BRANCH   7   8
ATOM      8  C   LIG A   1      -9.233  -3.657 127.668  0.00  0.00    +0.109 C 
BRANCH   8  11
ATOM      9  O   LIG A   1      -9.703  -2.625 125.051  0.00  0.00    -0.270 OA
ATOM     10  C   LIG A   1      -8.593  -3.012 125.353  0.00  0.00    +0.244 C 
ATOM     11  N   LIG A   1      -8.295  -3.600 126.573  0.00  0.00    -0.311 N 
ATOM     12  H   LIG A   1      -7.427  -4.074 126.733  0.00  0.00    +0.149 HD
BRANCH  10  13
ATOM     13  C   LIG A   1      -7.425  -2.858 124.423  0.00  0.00    +0.037 A 
ATOM     14  C   LIG A   1      -7.535  -1.964 123.340  0.00  0.00    +0.013 A 
ATOM     15  C   LIG A   1      -6.450  -1.788 122.473  0.00  0.00    +0.001 A 
ATOM     16  C   LIG A   1      -5.263  -2.489 122.681  0.00  0.00    +0.000 A 
ATOM     17  C   LIG A   1      -5.146  -3.357 123.758  0.00  0.00    +0.001 A 
ATOM     18  C   LIG A   1      -6.221  -3.534 124.622  0.00  0.00    +0.013 A 
ENDBRANCH  10  13
ENDBRANCH   8  11
ENDBRANCH   7   8
ENDBRANCH   1   7
BRANCH   4  19
ATOM     19  O   LIG A   1      -4.141  -0.342 129.959  0.00  0.00    -0.488 OA
BRANCH  19  20
ATOM     20  C   LIG A   1      -4.551   1.022 130.153  0.00  0.00    +0.257 C 
BRANCH  20  21
ATOM     21  C   LIG A   1      -4.160   1.793 128.931  0.00  0.00    +0.013 C 
ATOM     22  C   LIG A   1      -4.699   2.951 128.490  0.00  0.00    -0.063 C 
ATOM     23  C   LIG A   1      -5.833   3.654 129.207  0.00  0.00    +0.040 C 
BRANCH  22  24
ATOM     24  C   LIG A   1      -4.204   3.651 127.216  0.00  0.00    +0.084 C 
BRANCH  24  25
ATOM     25  C   LIG A   1      -2.708   3.951 127.349  0.00  0.00    +0.138 C 
ATOM     26  C   LIG A   1      -1.723   3.087 126.598  0.00  0.00    +0.086 C 
ATOM     27  O   LIG A   1      -2.312   4.864 128.079  0.00  0.00    -0.297 OA
ENDBRANCH  24  25
BRANCH  24  28
ATOM     28  C   LIG A   1      -4.483   2.919 125.881  0.00  0.00    +0.042 C 
BRANCH  28  29
ATOM     29  C   LIG A   1      -5.879   2.349 125.754  0.00  0.00    -0.027 C 
ATOM     30  C   LIG A   1      -6.224   1.046 125.806  0.00  0.00    -0.080 C 
ATOM     31  C   LIG A   1      -5.263  -0.105 125.938  0.00  0.00    +0.038 C 
ATOM     32  C   LIG A   1      -7.674   0.629 125.784  0.00  0.00    +0.038 C 
ENDBRANCH  28  29
ENDBRANCH  24  28
ENDBRANCH  22  24
ENDBRANCH  20  21
ENDBRANCH  19  20
ENDBRANCH   4  19
TORSDOF 11
ENDMDL
MODEL 3
REMARK VINA RESULT:      -8.2      2.252      3.713
REMARK  Name = NuBBE_1479
REMARK  15 active torsions:
REMARK  status: ('A' for Active; 'I' for Inactive)
REMARK    1  A    between atoms: C_2  and  C_27
REMARK    2  A    between atoms: N_3  and  C_5
REMARK    3  A    between atoms: C_5  and  C_6
REMARK    4  A    between atoms: C_6  and  C_7
REMARK    5  A    between atoms: C_10  and  O_11
REMARK    6  A    between atoms: O_11  and  C_12
REMARK    7  A    between atoms: C_12  and  C_13
REMARK    8  A    between atoms: C_14  and  C_15
REMARK    9  A    between atoms: C_14  and  C_16
REMARK   10  A    between atoms: C_16  and  C_17
REMARK   11  A    between atoms: C_16  and  C_20
REMARK   12  A    between atoms: C_17  and  C_18
REMARK   13  A    between atoms: C_20  and  C_21
REMARK   14  A    between atoms: C_22  and  C_23
REMARK   15  A    between atoms: C_22  and  C_24
REMARK                            x       y       z     vdW  Elec       q    Type
REMARK                         _______ _______ _______ _____ _____    ______ ____
ROOT
ATOM      1  C   LIG A   1      -8.223   3.361 129.853  0.00  0.00    -0.046 A 
ATOM      2  C   LIG A   1      -7.469   3.908 128.809  0.00  0.00    +0.007 A 
ATOM      3  C   LIG A   1      -6.700   3.079 127.983  0.00  0.00    +0.046 A 
ATOM      4  C   LIG A   1      -6.684   1.697 128.192  0.00  0.00    +0.121 A 
ATOM      5  C   LIG A   1      -7.459   1.149 129.208  0.00  0.00    +0.046 A 
ATOM      6  C   LIG A   1      -8.194   1.975 130.046  0.00  0.00    +0.007 A 
ENDROOT
BRANCH   1   7
ATOM      7  C   LIG A   1      -9.023   4.246 130.784  0.00  0.00    +0.054 C 
BRANCH   7   8
ATOM      8  C   LIG A   1     -10.520   3.934 130.804  0.00  0.00    +0.109 C 
BRANCH   8  11
ATOM      9  O   LIG A   1     -11.608   6.314 131.940  0.00  0.00    -0.270 OA
ATOM     10  C   LIG A   1     -11.772   6.082 130.760  0.00  0.00    +0.244 C 
ATOM     11  N   LIG A   1     -11.348   4.914 130.144  0.00  0.00    -0.311 N 
ATOM     12  H   LIG A   1     -11.649   4.663 129.222  0.00  0.00    +0.149 HD
BRANCH  10  13
ATOM     13  C   LIG A   1     -12.438   7.072 129.848  0.00  0.00    +0.037 A 
ATOM     14  C   LIG A   1     -12.356   8.443 130.163  0.00  0.00    +0.013 A 
ATOM     15  C   LIG A   1     -12.950   9.386 129.314  0.00  0.00    +0.001 A 
ATOM     16  C   LIG A   1     -13.615   8.973 128.160  0.00  0.00    +0.000 A 
ATOM     17  C   LIG A   1     -13.680   7.623 127.839  0.00  0.00    +0.001 A 
ATOM     18  C   LIG A   1     -13.091   6.684 128.678  0.00  0.00    +0.013 A 
ENDBRANCH  10  13
ENDBRANCH   8  11
ENDBRANCH   7   8
ENDBRANCH   1   7
BRANCH   4  19
ATOM     19  O   LIG A   1      -5.886   0.945 127.373  0.00  0.00    -0.488 OA
BRANCH  19  20
ATOM     20  C   LIG A   1      -6.420   0.758 126.052  0.00  0.00    +0.257 C 
BRANCH  20  21
ATOM     21  C   LIG A   1      -7.081  -0.584 126.013  0.00  0.00    +0.013 C 
ATOM     22  C   LIG A   1      -8.406  -0.843 126.056  0.00  0.00    -0.063 C 
ATOM     23  C   LIG A   1      -9.452   0.248 126.164  0.00  0.00    +0.040 C 
BRANCH  22  24
ATOM     24  C   LIG A   1      -8.964  -2.273 126.004  0.00  0.00    +0.084 C 
BRANCH  24  25
ATOM     25  C   LIG A   1      -8.924  -2.781 124.559  0.00  0.00    +0.138 C 
ATOM     26  C   LIG A   1      -7.771  -3.655 124.128  0.00  0.00    +0.086 C 
ATOM     27  O   LIG A   1      -9.803  -2.459 123.755  0.00  0.00    -0.297 OA
ENDBRANCH  24  25
BRANCH  24  28
ATOM     28  C   LIG A   1      -8.297  -3.301 126.948  0.00  0.00    +0.042 C 
BRANCH  28  29
ATOM     29  C   LIG A   1      -8.443  -2.993 128.422  0.00  0.00    -0.027 C 
ATOM     30  C   LIG A   1      -7.456  -2.649 129.275  0.00  0.00    -0.080 C 
ATOM     31  C   LIG A   1      -5.993  -2.571 128.926  0.00  0.00    +0.038 C 
ATOM     32  C   LIG A   1      -7.765  -2.251 130.697  0.00  0.00    +0.038 C 
ENDBRANCH  28  29
ENDBRANCH  24  28
ENDBRANCH  22  24
ENDBRANCH  20  21
ENDBRANCH  19  20
ENDBRANCH   4  19
TORSDOF 11
ENDMDL
MODEL 4
REMARK VINA RESULT:      -8.0      4.073      7.887
REMARK  Name = NuBBE_1479
REMARK  15 active torsions:
REMARK  status: ('A' for Active; 'I' for Inactive)
REMARK    1  A    between atoms: C_2  and  C_27
REMARK    2  A    between atoms: N_3  and  C_5
REMARK    3  A    between atoms: C_5  and  C_6
REMARK    4  A    between atoms: C_6  and  C_7
REMARK    5  A    between atoms: C_10  and  O_11
REMARK    6  A    between atoms: O_11  and  C_12
REMARK    7  A    between atoms: C_12  and  C_13
REMARK    8  A    between atoms: C_14  and  C_15
REMARK    9  A    between atoms: C_14  and  C_16
REMARK   10  A    between atoms: C_16  and  C_17
REMARK   11  A    between atoms: C_16  and  C_20
REMARK   12  A    between atoms: C_17  and  C_18
REMARK   13  A    between atoms: C_20  and  C_21
REMARK   14  A    between atoms: C_22  and  C_23
REMARK   15  A    between atoms: C_22  and  C_24
REMARK                            x       y       z     vdW  Elec       q    Type
REMARK                         _______ _______ _______ _____ _____    ______ ____
ROOT
ATOM      1  C   LIG A   1      -7.998  -2.596 124.679  0.00  0.00    -0.046 A 
ATOM      2  C   LIG A   1      -6.612  -2.420 124.765  0.00  0.00    +0.007 A 
ATOM      3  C   LIG A   1      -5.993  -2.280 126.013  0.00  0.00    +0.046 A 
ATOM      4  C   LIG A   1      -6.755  -2.320 127.184  0.00  0.00    +0.121 A 
ATOM      5  C   LIG A   1      -8.127  -2.528 127.101  0.00  0.00    +0.046 A 
ATOM      6  C   LIG A   1      -8.743  -2.633 125.863  0.00  0.00    +0.007 A 
ENDROOT
BRANCH   1   7
ATOM      7  C   LIG A   1      -8.688  -2.703 123.337  0.00  0.00    +0.054 C 
BRANCH   7   8
ATOM      8  C   LIG A   1      -9.289  -1.387 122.840  0.00  0.00    +0.109 C 
BRANCH   8  11
ATOM      9  O   LIG A   1     -10.196   0.710 124.547  0.00  0.00    -0.270 OA
ATOM     10  C   LIG A   1      -9.057   0.727 124.129  0.00  0.00    +0.244 C 
ATOM     11  N   LIG A   1      -8.558  -0.206 123.233  0.00  0.00    -0.311 N 
ATOM     12  H   LIG A   1      -7.684  -0.073 122.763  0.00  0.00    +0.149 HD
BRANCH  10  13
ATOM     13  C   LIG A   1      -8.070   1.765 124.576  0.00  0.00    +0.037 A 
ATOM     14  C   LIG A   1      -8.539   3.056 124.888  0.00  0.00    +0.013 A 
ATOM     15  C   LIG A   1      -7.639   4.034 125.329  0.00  0.00    +0.001 A 
ATOM     16  C   LIG A   1      -6.285   3.733 125.466  0.00  0.00    +0.000 A 
ATOM     17  C   LIG A   1      -5.823   2.455 125.176  0.00  0.00    +0.001 A 
ATOM     18  C   LIG A   1      -6.713   1.482 124.739  0.00  0.00    +0.013 A 
ENDBRANCH  10  13
ENDBRANCH   8  11
ENDBRANCH   7   8
ENDBRANCH   1   7
BRANCH   4  19
ATOM     19  O   LIG A   1      -6.097  -2.142 128.371  0.00  0.00    -0.488 OA
BRANCH  19  20
ATOM     20  C   LIG A   1      -6.837  -1.378 129.338  0.00  0.00    +0.257 C 
BRANCH  20  21
ATOM     21  C   LIG A   1      -6.294   0.017 129.329  0.00  0.00    +0.013 C 
ATOM     22  C   LIG A   1      -6.879   1.117 128.809  0.00  0.00    -0.063 C 
ATOM     23  C   LIG A   1      -8.230   1.081 128.122  0.00  0.00    +0.040 C 
BRANCH  22  24
ATOM     24  C   LIG A   1      -6.218   2.502 128.868  0.00  0.00    +0.084 C 
BRANCH  24  25
ATOM     25  C   LIG A   1      -7.048   3.423 129.768  0.00  0.00    +0.138 C 
ATOM     26  C   LIG A   1      -7.773   4.590 129.142  0.00  0.00    +0.086 C 
ATOM     27  O   LIG A   1      -7.102   3.230 130.986  0.00  0.00    -0.297 OA
ENDBRANCH  24  25
BRANCH  24  28
ATOM     28  C   LIG A   1      -4.733   2.532 129.302  0.00  0.00    +0.042 C 
BRANCH  28  29
ATOM     29  C   LIG A   1      -3.741   2.422 128.165  0.00  0.00    -0.027 C 
ATOM     30  C   LIG A   1      -2.902   3.386 127.731  0.00  0.00    -0.080 C 
ATOM     31  C   LIG A   1      -2.843   4.792 128.265  0.00  0.00    +0.038 C 
ATOM     32  C   LIG A   1      -1.880   3.097 126.661  0.00  0.00    +0.038 C 
ENDBRANCH  28  29
ENDBRANCH  24  28
ENDBRANCH  22  24
ENDBRANCH  20  21
ENDBRANCH  19  20
ENDBRANCH   4  19
TORSDOF 11
ENDMDL
MODEL 5
REMARK VINA RESULT:      -8.0      1.612      2.078
REMARK  Name = NuBBE_1479
REMARK  15 active torsions:
REMARK  status: ('A' for Active; 'I' for Inactive)
REMARK    1  A    between atoms: C_2  and  C_27
REMARK    2  A    between atoms: N_3  and  C_5
REMARK    3  A    between atoms: C_5  and  C_6
REMARK    4  A    between atoms: C_6  and  C_7
REMARK    5  A    between atoms: C_10  and  O_11
REMARK    6  A    between atoms: O_11  and  C_12
REMARK    7  A    between atoms: C_12  and  C_13
REMARK    8  A    between atoms: C_14  and  C_15
REMARK    9  A    between atoms: C_14  and  C_16
REMARK   10  A    between atoms: C_16  and  C_17
REMARK   11  A    between atoms: C_16  and  C_20
REMARK   12  A    between atoms: C_17  and  C_18
REMARK   13  A    between atoms: C_20  and  C_21
REMARK   14  A    between atoms: C_22  and  C_23
REMARK   15  A    between atoms: C_22  and  C_24
REMARK                            x       y       z     vdW  Elec       q    Type
REMARK                         _______ _______ _______ _____ _____    ______ ____
ROOT
ATOM      1  C   LIG A   1      -8.710   3.023 131.143  0.00  0.00    -0.046 A 
ATOM      2  C   LIG A   1      -9.527   2.242 131.968  0.00  0.00    +0.007 A 
ATOM      3  C   LIG A   1      -9.460   0.844 131.911  0.00  0.00    +0.046 A 
ATOM      4  C   LIG A   1      -8.571   0.219 131.033  0.00  0.00    +0.121 A 
ATOM      5  C   LIG A   1      -7.735   0.993 130.237  0.00  0.00    +0.046 A 
ATOM      6  C   LIG A   1      -7.827   2.377 130.270  0.00  0.00    +0.007 A 
ENDROOT
BRANCH   1   7
ATOM      7  C   LIG A   1      -8.803   4.533 131.159  0.00  0.00    +0.054 C 
BRANCH   7   8
ATOM      8  C   LIG A   1     -10.125   5.069 131.711  0.00  0.00    +0.109 C 
BRANCH   8  11
ATOM      9  O   LIG A   1     -12.349   6.786 132.200  0.00  0.00    -0.270 OA
ATOM     10  C   LIG A   1     -11.998   6.569 131.059  0.00  0.00    +0.244 C 
ATOM     11  N   LIG A   1     -10.981   5.687 130.727  0.00  0.00    -0.311 N 
ATOM     12  H   LIG A   1     -10.829   5.386 129.784  0.00  0.00    +0.149 HD
BRANCH  10  13
ATOM     13  C   LIG A   1     -12.632   7.271 129.893  0.00  0.00    +0.037 A 
ATOM     14  C   LIG A   1     -12.640   8.679 129.874  0.00  0.00    +0.013 A 
ATOM     15  C   LIG A   1     -13.205   9.355 128.785  0.00  0.00    +0.001 A 
ATOM     16  C   LIG A   1     -13.755   8.640 127.722  0.00  0.00    +0.000 A 
ATOM     17  C   LIG A   1     -13.732   7.251 127.731  0.00  0.00    +0.001 A 
ATOM     18  C   LIG A   1     -13.170   6.577 128.809  0.00  0.00    +0.013 A 
ENDBRANCH  10  13
ENDBRANCH   8  11
ENDBRANCH   7   8
ENDBRANCH   1   7
BRANCH   4  19
ATOM     19  O   LIG A   1      -8.577  -1.150 130.999  0.00  0.00    -0.488 OA
BRANCH  19  20
ATOM     20  C   LIG A   1      -7.389  -1.722 130.426  0.00  0.00    +0.257 C 
BRANCH  20  21
ATOM     21  C   LIG A   1      -7.672  -2.009 128.984  0.00  0.00    +0.013 C 
ATOM     22  C   LIG A   1      -6.937  -1.628 127.917  0.00  0.00    -0.063 C 
ATOM     23  C   LIG A   1      -5.668  -0.810 128.045  0.00  0.00    +0.040 C 
BRANCH  22  24
ATOM     24  C   LIG A   1      -7.332  -1.991 126.478  0.00  0.00    +0.084 C 
BRANCH  24  25
ATOM     25  C   LIG A   1      -8.637  -1.276 126.114  0.00  0.00    +0.138 C 
ATOM     26  C   LIG A   1      -8.711   0.224 126.266  0.00  0.00    +0.086 C 
ATOM     27  O   LIG A   1      -9.619  -1.918 125.729  0.00  0.00    -0.297 OA
ENDBRANCH  24  25
BRANCH  24  28
ATOM     28  C   LIG A   1      -6.262  -1.733 125.390  0.00  0.00    +0.042 C 
BRANCH  28  29
ATOM     29  C   LIG A   1      -5.494  -2.962 124.957  0.00  0.00    -0.027 C 
ATOM     30  C   LIG A   1      -5.166  -3.302 123.693  0.00  0.00    -0.080 C 
ATOM     31  C   LIG A   1      -5.565  -2.543 122.456  0.00  0.00    +0.038 C 
ATOM     32  C   LIG A   1      -4.291  -4.500 123.417  0.00  0.00    +0.038 C 
ENDBRANCH  28  29
ENDBRANCH  24  28
ENDBRANCH  22  24
ENDBRANCH  20  21
ENDBRANCH  19  20
ENDBRANCH   4  19
TORSDOF 11
ENDMDL
MODEL 6
REMARK VINA RESULT:      -8.0      3.604      6.750
REMARK  Name = NuBBE_1479
REMARK  15 active torsions:
REMARK  status: ('A' for Active; 'I' for Inactive)
REMARK    1  A    between atoms: C_2  and  C_27
REMARK    2  A    between atoms: N_3  and  C_5
REMARK    3  A    between atoms: C_5  and  C_6
REMARK    4  A    between atoms: C_6  and  C_7
REMARK    5  A    between atoms: C_10  and  O_11
REMARK    6  A    between atoms: O_11  and  C_12
REMARK    7  A    between atoms: C_12  and  C_13
REMARK    8  A    between atoms: C_14  and  C_15
REMARK    9  A    between atoms: C_14  and  C_16
REMARK   10  A    between atoms: C_16  and  C_17
REMARK   11  A    between atoms: C_16  and  C_20
REMARK   12  A    between atoms: C_17  and  C_18
REMARK   13  A    between atoms: C_20  and  C_21
REMARK   14  A    between atoms: C_22  and  C_23
REMARK   15  A    between atoms: C_22  and  C_24
REMARK                            x       y       z     vdW  Elec       q    Type
REMARK                         _______ _______ _______ _____ _____    ______ ____
ROOT
ATOM      1  C   LIG A   1      -7.609  -3.068 128.277  0.00  0.00    -0.046 A 
ATOM      2  C   LIG A   1      -8.662  -3.337 127.396  0.00  0.00    +0.007 A 
ATOM      3  C   LIG A   1      -8.588  -2.925 126.059  0.00  0.00    +0.046 A 
ATOM      4  C   LIG A   1      -7.458  -2.247 125.594  0.00  0.00    +0.121 A 
ATOM      5  C   LIG A   1      -6.397  -2.009 126.460  0.00  0.00    +0.046 A 
ATOM      6  C   LIG A   1      -6.486  -2.387 127.792  0.00  0.00    +0.007 A 
ENDROOT
BRANCH   1   7
ATOM      7  C   LIG A   1      -7.692  -3.464 129.735  0.00  0.00    +0.054 C 
BRANCH   7   8
ATOM      8  C   LIG A   1      -7.042  -2.461 130.690  0.00  0.00    +0.109 C 
BRANCH   8  11
ATOM      9  O   LIG A   1      -6.207   0.207 130.124  0.00  0.00    -0.270 OA
ATOM     10  C   LIG A   1      -7.335   0.002 130.522  0.00  0.00    +0.244 C 
ATOM     11  N   LIG A   1      -7.799  -1.250 130.896  0.00  0.00    -0.311 N 
ATOM     12  H   LIG A   1      -8.663  -1.369 131.389  0.00  0.00    +0.149 HD
BRANCH  10  13
ATOM     13  C   LIG A   1      -8.348   1.106 130.618  0.00  0.00    +0.037 A 
ATOM     14  C   LIG A   1      -9.214   1.135 131.729  0.00  0.00    +0.013 A 
ATOM     15  C   LIG A   1     -10.151   2.168 131.852  0.00  0.00    +0.001 A 
ATOM     16  C   LIG A   1     -10.226   3.168 130.883  0.00  0.00    +0.000 A 
ATOM     17  C   LIG A   1      -9.360   3.152 129.796  0.00  0.00    +0.001 A 
ATOM     18  C   LIG A   1      -8.428   2.129 129.672  0.00  0.00    +0.013 A 
ENDBRANCH  10  13
ENDBRANCH   8  11
ENDBRANCH   7   8
ENDBRANCH   1   7
BRANCH   4  19
ATOM     19  O   LIG A   1      -7.461  -1.841 124.287  0.00  0.00    -0.488 OA
BRANCH  19  20
ATOM     20  C   LIG A   1      -8.630  -1.094 123.912  0.00  0.00    +0.257 C 
BRANCH  20  21
ATOM     21  C   LIG A   1      -8.221   0.335 123.735  0.00  0.00    +0.013 C 
ATOM     22  C   LIG A   1      -8.986   1.432 123.923  0.00  0.00    -0.063 C 
ATOM     23  C   LIG A   1     -10.438   1.356 124.350  0.00  0.00    +0.040 C 
BRANCH  22  24
ATOM     24  C   LIG A   1      -8.445   2.854 123.713  0.00  0.00    +0.084 C 
BRANCH  24  25
ATOM     25  C   LIG A   1      -8.181   3.502 125.075  0.00  0.00    +0.138 C 
ATOM     26  C   LIG A   1      -7.078   2.946 125.943  0.00  0.00    +0.086 C 
ATOM     27  O   LIG A   1      -8.874   4.445 125.468  0.00  0.00    -0.297 OA
ENDBRANCH  24  25
BRANCH  24  28
ATOM     28  C   LIG A   1      -7.195   2.982 122.810  0.00  0.00    +0.042 C 
BRANCH  28  29
ATOM     29  C   LIG A   1      -7.472   3.513 121.421  0.00  0.00    -0.027 C 
ATOM     30  C   LIG A   1      -6.564   3.997 120.548  0.00  0.00    -0.080 C 
ATOM     31  C   LIG A   1      -5.093   4.162 120.825  0.00  0.00    +0.038 C 
ATOM     32  C   LIG A   1      -6.967   4.383 119.146  0.00  0.00    +0.038 C 
ENDBRANCH  28  29
ENDBRANCH  24  28
ENDBRANCH  22  24
ENDBRANCH  20  21
ENDBRANCH  19  20
ENDBRANCH   4  19
TORSDOF 11
ENDMDL
MODEL 7
REMARK VINA RESULT:      -7.9      4.513      7.794
REMARK  Name = NuBBE_1479
REMARK  15 active torsions:
REMARK  status: ('A' for Active; 'I' for Inactive)
REMARK    1  A    between atoms: C_2  and  C_27
REMARK    2  A    between atoms: N_3  and  C_5
REMARK    3  A    between atoms: C_5  and  C_6
REMARK    4  A    between atoms: C_6  and  C_7
REMARK    5  A    between atoms: C_10  and  O_11
REMARK    6  A    between atoms: O_11  and  C_12
REMARK    7  A    between atoms: C_12  and  C_13
REMARK    8  A    between atoms: C_14  and  C_15
REMARK    9  A    between atoms: C_14  and  C_16
REMARK   10  A    between atoms: C_16  and  C_17
REMARK   11  A    between atoms: C_16  and  C_20
REMARK   12  A    between atoms: C_17  and  C_18
REMARK   13  A    between atoms: C_20  and  C_21
REMARK   14  A    between atoms: C_22  and  C_23
REMARK   15  A    between atoms: C_22  and  C_24
REMARK                            x       y       z     vdW  Elec       q    Type
REMARK                         _______ _______ _______ _____ _____    ______ ____
ROOT
ATOM      1  C   LIG A   1      -5.384   2.779 127.104  0.00  0.00    -0.046 A 
ATOM      2  C   LIG A   1      -5.512   3.156 125.763  0.00  0.00    +0.007 A 
ATOM      3  C   LIG A   1      -6.778   3.244 125.171  0.00  0.00    +0.046 A 
ATOM      4  C   LIG A   1      -7.924   2.960 125.918  0.00  0.00    +0.121 A 
ATOM      5  C   LIG A   1      -7.800   2.618 127.259  0.00  0.00    +0.046 A 
ATOM      6  C   LIG A   1      -6.544   2.498 127.835  0.00  0.00    +0.007 A 
ENDROOT
BRANCH   1   7
ATOM      7  C   LIG A   1      -4.022   2.634 127.746  0.00  0.00    +0.054 C 
BRANCH   7   8
ATOM      8  C   LIG A   1      -4.065   2.137 129.192  0.00  0.00    +0.109 C 
BRANCH   8  11
ATOM      9  O   LIG A   1      -4.014   0.650 131.626  0.00  0.00    -0.270 OA
ATOM     10  C   LIG A   1      -4.097   0.065 130.566  0.00  0.00    +0.244 C 
ATOM     11  N   LIG A   1      -4.048   0.701 129.335  0.00  0.00    -0.311 N 
ATOM     12  H   LIG A   1      -3.936   0.191 128.480  0.00  0.00    +0.149 HD
BRANCH  10  13
ATOM     13  C   LIG A   1      -4.289  -1.423 130.502  0.00  0.00    +0.037 A 
ATOM     14  C   LIG A   1      -4.653  -2.110 131.676  0.00  0.00    +0.013 A 
ATOM     15  C   LIG A   1      -4.860  -3.494 131.635  0.00  0.00    +0.001 A 
ATOM     16  C   LIG A   1      -4.713  -4.192 130.436  0.00  0.00    +0.000 A 
ATOM     17  C   LIG A   1      -4.372  -3.513 129.273  0.00  0.00    +0.001 A 
ATOM     18  C   LIG A   1      -4.167  -2.139 129.310  0.00  0.00    +0.013 A 
ENDBRANCH  10  13
ENDBRANCH   8  11
ENDBRANCH   7   8
ENDBRANCH   1   7
BRANCH   4  19
ATOM     19  O   LIG A   1      -9.130   3.030 125.273  0.00  0.00    -0.488 OA
BRANCH  19  20
ATOM     20  C   LIG A   1      -9.299   2.039 124.246  0.00  0.00    +0.257 C 
BRANCH  20  21
ATOM     21  C   LIG A   1      -9.398   0.703 124.914  0.00  0.00    +0.013 C 
ATOM     22  C   LIG A   1      -8.511  -0.313 124.843  0.00  0.00    -0.063 C 
ATOM     23  C   LIG A   1      -7.236  -0.233 124.028  0.00  0.00    +0.040 C 
BRANCH  22  24
ATOM     24  C   LIG A   1      -8.725  -1.641 125.584  0.00  0.00    +0.084 C 
BRANCH  24  25
ATOM     25  C   LIG A   1      -8.870  -2.774 124.564  0.00  0.00    +0.138 C 
ATOM     26  C   LIG A   1      -7.857  -3.894 124.572  0.00  0.00    +0.086 C 
ATOM     27  O   LIG A   1      -9.782  -2.758 123.731  0.00  0.00    -0.297 OA
ENDBRANCH  24  25
BRANCH  24  28
ATOM     28  C   LIG A   1      -7.660  -2.011 126.643  0.00  0.00    +0.042 C 
BRANCH  28  29
ATOM     29  C   LIG A   1      -7.685  -1.154 127.890  0.00  0.00    -0.027 C 
ATOM     30  C   LIG A   1      -7.872  -1.580 129.156  0.00  0.00    -0.080 C 
ATOM     31  C   LIG A   1      -8.161  -3.001 129.563  0.00  0.00    +0.038 C 
ATOM     32  C   LIG A   1      -7.753  -0.626 130.319  0.00  0.00    +0.038 C 
ENDBRANCH  28  29
ENDBRANCH  24  28
ENDBRANCH  22  24
ENDBRANCH  20  21
ENDBRANCH  19  20
ENDBRANCH   4  19
TORSDOF 11
ENDMDL
MODEL 8
REMARK VINA RESULT:      -7.9      1.341      2.079
REMARK  Name = NuBBE_1479
REMARK  15 active torsions:
REMARK  status: ('A' for Active; 'I' for Inactive)
REMARK    1  A    between atoms: C_2  and  C_27
REMARK    2  A    between atoms: N_3  and  C_5
REMARK    3  A    between atoms: C_5  and  C_6
REMARK    4  A    between atoms: C_6  and  C_7
REMARK    5  A    between atoms: C_10  and  O_11
REMARK    6  A    between atoms: O_11  and  C_12
REMARK    7  A    between atoms: C_12  and  C_13
REMARK    8  A    between atoms: C_14  and  C_15
REMARK    9  A    between atoms: C_14  and  C_16
REMARK   10  A    between atoms: C_16  and  C_17
REMARK   11  A    between atoms: C_16  and  C_20
REMARK   12  A    between atoms: C_17  and  C_18
REMARK   13  A    between atoms: C_20  and  C_21
REMARK   14  A    between atoms: C_22  and  C_23
REMARK   15  A    between atoms: C_22  and  C_24
REMARK                            x       y       z     vdW  Elec       q    Type
REMARK                         _______ _______ _______ _____ _____    ______ ____
ROOT
ATOM      1  C   LIG A   1      -8.663   2.775 133.317  0.00  0.00    -0.046 A 
ATOM      2  C   LIG A   1      -9.460   1.987 132.479  0.00  0.00    +0.007 A 
ATOM      3  C   LIG A   1      -8.934   0.837 131.878  0.00  0.00    +0.046 A 
ATOM      4  C   LIG A   1      -7.609   0.464 132.114  0.00  0.00    +0.121 A 
ATOM      5  C   LIG A   1      -6.825   1.227 132.973  0.00  0.00    +0.046 A 
ATOM      6  C   LIG A   1      -7.337   2.384 133.541  0.00  0.00    +0.007 A 
ENDROOT
BRANCH   1   7
ATOM      7  C   LIG A   1      -9.201   4.045 133.937  0.00  0.00    +0.054 C 
BRANCH   7   8
ATOM      8  C   LIG A   1      -8.564   5.323 133.389  0.00  0.00    +0.109 C 
BRANCH   8  11
ATOM      9  O   LIG A   1      -8.679   5.561 130.549  0.00  0.00    -0.270 OA
ATOM     10  C   LIG A   1      -9.487   6.153 131.234  0.00  0.00    +0.244 C 
ATOM     11  N   LIG A   1      -9.456   6.157 132.621  0.00  0.00    -0.311 N 
ATOM     12  H   LIG A   1     -10.013   6.791 133.160  0.00  0.00    +0.149 HD
BRANCH  10  13
ATOM     13  C   LIG A   1     -10.623   6.921 130.624  0.00  0.00    +0.037 A 
ATOM     14  C   LIG A   1     -10.396   7.629 129.428  0.00  0.00    +0.013 A 
ATOM     15  C   LIG A   1     -11.448   8.334 128.829  0.00  0.00    +0.001 A 
ATOM     16  C   LIG A   1     -12.716   8.333 129.409  0.00  0.00    +0.000 A 
ATOM     17  C   LIG A   1     -12.945   7.621 130.579  0.00  0.00    +0.001 A 
ATOM     18  C   LIG A   1     -11.905   6.919 131.176  0.00  0.00    +0.013 A 
ENDBRANCH  10  13
ENDBRANCH   8  11
ENDBRANCH   7   8
ENDBRANCH   1   7
BRANCH   4  19
ATOM     19  O   LIG A   1      -7.143  -0.651 131.471  0.00  0.00    -0.488 OA
BRANCH  19  20
ATOM     20  C   LIG A   1      -8.136  -1.323 130.678  0.00  0.00    +0.257 C 
BRANCH  20  21
ATOM     21  C   LIG A   1      -7.728  -1.208 129.243  0.00  0.00    +0.013 C 
ATOM     22  C   LIG A   1      -7.845  -2.152 128.284  0.00  0.00    -0.063 C 
ATOM     23  C   LIG A   1      -8.427  -3.525 128.550  0.00  0.00    +0.040 C 
BRANCH  22  24
ATOM     24  C   LIG A   1      -7.391  -1.909 126.836  0.00  0.00    +0.084 C 
BRANCH  24  25
ATOM     25  C   LIG A   1      -5.870  -1.732 126.804  0.00  0.00    +0.138 C 
ATOM     26  C   LIG A   1      -5.292  -0.540 126.079  0.00  0.00    +0.086 C 
ATOM     27  O   LIG A   1      -5.129  -2.562 127.337  0.00  0.00    -0.297 OA
ENDBRANCH  24  25
BRANCH  24  28
ATOM     28  C   LIG A   1      -7.826  -2.971 125.797  0.00  0.00    +0.042 C 
BRANCH  28  29
ATOM     29  C   LIG A   1      -8.750  -2.455 124.717  0.00  0.00    -0.027 C 
ATOM     30  C   LIG A   1      -8.389  -1.987 123.504  0.00  0.00    -0.080 C 
ATOM     31  C   LIG A   1      -6.973  -1.827 123.019  0.00  0.00    +0.038 C 
ATOM     32  C   LIG A   1      -9.430  -1.615 122.477  0.00  0.00    +0.038 C 
ENDBRANCH  28  29
ENDBRANCH  24  28
ENDBRANCH  22  24
ENDBRANCH  20  21
ENDBRANCH  19  20
ENDBRANCH   4  19
TORSDOF 11
ENDMDL
MODEL 9
REMARK VINA RESULT:      -7.8      4.108      8.416
REMARK  Name = NuBBE_1479
REMARK  15 active torsions:
REMARK  status: ('A' for Active; 'I' for Inactive)
REMARK    1  A    between atoms: C_2  and  C_27
REMARK    2  A    between atoms: N_3  and  C_5
REMARK    3  A    between atoms: C_5  and  C_6
REMARK    4  A    between atoms: C_6  and  C_7
REMARK    5  A    between atoms: C_10  and  O_11
REMARK    6  A    between atoms: O_11  and  C_12
REMARK    7  A    between atoms: C_12  and  C_13
REMARK    8  A    between atoms: C_14  and  C_15
REMARK    9  A    between atoms: C_14  and  C_16
REMARK   10  A    between atoms: C_16  and  C_17
REMARK   11  A    between atoms: C_16  and  C_20
REMARK   12  A    between atoms: C_17  and  C_18
REMARK   13  A    between atoms: C_20  and  C_21
REMARK   14  A    between atoms: C_22  and  C_23
REMARK   15  A    between atoms: C_22  and  C_24
REMARK                            x       y       z     vdW  Elec       q    Type
REMARK                         _______ _______ _______ _____ _____    ______ ____
ROOT
ATOM      1  C   LIG A   1      -7.480  -1.689 129.523  0.00  0.00    -0.046 A 
ATOM      2  C   LIG A   1      -6.441  -1.109 128.788  0.00  0.00    +0.007 A 
ATOM      3  C   LIG A   1      -6.265   0.280 128.786  0.00  0.00    +0.046 A 
ATOM      4  C   LIG A   1      -7.124   1.098 129.524  0.00  0.00    +0.121 A 
ATOM      5  C   LIG A   1      -8.137   0.521 130.282  0.00  0.00    +0.046 A 
ATOM      6  C   LIG A   1      -8.331  -0.852 130.256  0.00  0.00    +0.007 A 
ENDROOT
BRANCH   1   7
ATOM      7  C   LIG A   1      -7.713  -3.183 129.499  0.00  0.00    +0.054 C 
BRANCH   7   8
ATOM      8  C   LIG A   1      -8.576  -3.660 128.330  0.00  0.00    +0.109 C 
BRANCH   8  11
ATOM      9  O   LIG A   1      -9.943  -2.961 125.926  0.00  0.00    -0.270 OA
ATOM     10  C   LIG A   1      -8.732  -3.038 125.927  0.00  0.00    +0.244 C 
ATOM     11  N   LIG A   1      -7.993  -3.448 127.027  0.00  0.00    -0.311 N 
ATOM     12  H   LIG A   1      -7.021  -3.679 126.955  0.00  0.00    +0.149 HD
BRANCH  10  13
ATOM     13  C   LIG A   1      -7.918  -2.664 124.722  0.00  0.00    +0.037 A 
ATOM     14  C   LIG A   1      -6.527  -2.887 124.750  0.00  0.00    +0.013 A 
ATOM     15  C   LIG A   1      -5.751  -2.568 123.628  0.00  0.00    +0.001 A 
ATOM     16  C   LIG A   1      -6.350  -2.036 122.487  0.00  0.00    +0.000 A 
ATOM     17  C   LIG A   1      -7.724  -1.833 122.452  0.00  0.00    +0.001 A 
ATOM     18  C   LIG A   1      -8.497  -2.150 123.562  0.00  0.00    +0.013 A 
ENDBRANCH  10  13
ENDBRANCH   8  11
ENDBRANCH   7   8
ENDBRANCH   1   7
BRANCH   4  19
ATOM     19  O   LIG A   1      -6.922   2.451 129.454  0.00  0.00    -0.488 OA
BRANCH  19  20
ATOM     20  C   LIG A   1      -7.993   3.167 128.816  0.00  0.00    +0.257 C 
BRANCH  20  21
ATOM     21  C   LIG A   1      -7.491   3.653 127.493  0.00  0.00    +0.013 C 
ATOM     22  C   LIG A   1      -7.628   3.044 126.295  0.00  0.00    -0.063 C 
ATOM     23  C   LIG A   1      -8.338   1.716 126.126  0.00  0.00    +0.040 C 
BRANCH  22  24
ATOM     24  C   LIG A   1      -7.069   3.651 124.999  0.00  0.00    +0.084 C 
BRANCH  24  25
ATOM     25  C   LIG A   1      -5.902   4.582 125.337  0.00  0.00    +0.138 C 
ATOM     26  C   LIG A   1      -4.544   3.979 125.603  0.00  0.00    +0.086 C 
ATOM     27  O   LIG A   1      -6.073   5.802 125.417  0.00  0.00    -0.297 OA
ENDBRANCH  24  25
BRANCH  24  28
ATOM     28  C   LIG A   1      -6.648   2.645 123.901  0.00  0.00    +0.042 C 
BRANCH  28  29
ATOM     29  C   LIG A   1      -7.072   3.027 122.500  0.00  0.00    -0.027 C 
ATOM     30  C   LIG A   1      -6.357   3.745 121.609  0.00  0.00    -0.080 C 
ATOM     31  C   LIG A   1      -5.010   4.364 121.872  0.00  0.00    +0.038 C 
ATOM     32  C   LIG A   1      -6.857   3.949 120.200  0.00  0.00    +0.038 C 
ENDBRANCH  28  29
ENDBRANCH  24  28
ENDBRANCH  22  24
ENDBRANCH  20  21
ENDBRANCH  19  20
ENDBRANCH   4  19
TORSDOF 11
ENDMDL
