MODEL 1
REMARK VINA RESULT:      -8.0      0.000      0.000
REMARK  Name = NuBBE_2505
REMARK  8 active torsions:
REMARK  status: ('A' for Active; 'I' for Inactive)
REMARK    1  A    between atoms: C_1  and  C_2
REMARK    2  A    between atoms: C_2  and  C_3
REMARK    3  A    between atoms: C_2  and  C_4
REMARK    4  A    between atoms: C_8  and  O_9
REMARK    5  A    between atoms: C_10  and  O_11
REMARK    6  A    between atoms: C_16  and  C_17
REMARK    7  A    between atoms: C_16  and  C_18
REMARK    8  A    between atoms: C_20  and  O_22
REMARK                            x       y       z     vdW  Elec       q    Type
REMARK                         _______ _______ _______ _____ _____    ______ ____
ROOT
ATOM      1  C   LIG A   1     -11.933   6.992 129.539  0.00  0.00    +0.001 A 
ATOM      2  C   LIG A   1     -10.813   6.469 128.875  0.00  0.00    +0.015 A 
ATOM      3  C   LIG A   1      -9.826   5.796 129.596  0.00  0.00    +0.004 A 
ATOM      4  C   LIG A   1      -9.898   5.641 131.001  0.00  0.00    +0.022 A 
ATOM      5  C   LIG A   1     -11.005   6.153 131.654  0.00  0.00    +0.163 A 
ATOM      6  C   LIG A   1     -12.019   6.795 130.926  0.00  0.00    +0.162 A 
ATOM      7  C   LIG A   1      -8.672   4.880 131.553  0.00  0.00    +0.102 C 
ATOM      8  C   LIG A   1      -8.549   4.750 133.084  0.00  0.00    +0.023 C 
ATOM      9  C   LIG A   1      -9.217   3.487 133.605  0.00  0.00    +0.002 C 
ATOM     10  C   LIG A   1      -8.551   2.218 133.063  0.00  0.00    +0.007 C 
ATOM     11  C   LIG A   1      -7.996   2.319 131.604  0.00  0.00    -0.028 C 
ATOM     12  C   LIG A   1      -8.259   0.954 130.926  0.00  0.00    +0.011 C 
ATOM     13  C   LIG A   1      -6.466   2.514 131.669  0.00  0.00    +0.011 C 
ATOM     14  C   LIG A   1      -8.748   3.463 130.852  0.00  0.00    +0.049 C 
ATOM     15  C   LIG A   1      -8.563   3.655 129.310  0.00  0.00    +0.165 C 
ATOM     16  C   LIG A   1      -8.593   5.173 128.987  0.00  0.00    +0.236 C 
ATOM     17  O   LIG A   1      -7.461   5.792 129.634  0.00  0.00    -0.453 OA
ATOM     18  C   LIG A   1      -7.427   5.626 130.992  0.00  0.00    +0.319 C 
ATOM     19  O   LIG A   1      -6.511   6.081 131.668  0.00  0.00    -0.250 OA
ENDROOT
BRANCH   1  21
ATOM     20  C   LIG A   1     -13.120   7.198 127.334  0.00  0.00    +0.012 C 
ATOM     21  C   LIG A   1     -13.034   7.710 128.774  0.00  0.00    +0.017 C 
ATOM     22  C   LIG A   1     -12.858   9.232 128.800  0.00  0.00    +0.012 C 
ENDBRANCH   1  21
BRANCH   5  23
ATOM     23  O   LIG A   1     -11.154   6.058 133.004  0.00  0.00    -0.503 OA
ATOM     24  H   LIG A   1     -10.831   5.167 133.241  0.00  0.00    +0.292 HD
ENDBRANCH   5  23
BRANCH   6  25
ATOM     25  O   LIG A   1     -13.141   7.204 131.602  0.00  0.00    -0.503 OA
ATOM     26  H   LIG A   1     -13.041   8.166 131.728  0.00  0.00    +0.292 HD
ENDBRANCH   6  25
BRANCH  15  27
ATOM     27  O   LIG A   1      -7.352   3.104 128.813  0.00  0.00    -0.387 OA
ATOM     28  H   LIG A   1      -6.645   3.760 128.932  0.00  0.00    +0.210 HD
ENDBRANCH  15  27
TORSDOF 4
ENDMDL
MODEL 2
REMARK VINA RESULT:      -7.6      5.591      8.669
REMARK  Name = NuBBE_2505
REMARK  8 active torsions:
REMARK  status: ('A' for Active; 'I' for Inactive)
REMARK    1  A    between atoms: C_1  and  C_2
REMARK    2  A    between atoms: C_2  and  C_3
REMARK    3  A    between atoms: C_2  and  C_4
REMARK    4  A    between atoms: C_8  and  O_9
REMARK    5  A    between atoms: C_10  and  O_11
REMARK    6  A    between atoms: C_16  and  C_17
REMARK    7  A    between atoms: C_16  and  C_18
REMARK    8  A    between atoms: C_20  and  O_22
REMARK                            x       y       z     vdW  Elec       q    Type
REMARK                         _______ _______ _______ _____ _____    ______ ____
ROOT
ATOM      1  C   LIG A   1      -7.662  -1.817 125.991  0.00  0.00    +0.001 A 
ATOM      2  C   LIG A   1      -8.389  -0.770 125.401  0.00  0.00    +0.015 A 
ATOM      3  C   LIG A   1      -7.955   0.548 125.545  0.00  0.00    +0.004 A 
ATOM      4  C   LIG A   1      -6.805   0.880 126.299  0.00  0.00    +0.022 A 
ATOM      5  C   LIG A   1      -6.087  -0.152 126.876  0.00  0.00    +0.163 A 
ATOM      6  C   LIG A   1      -6.499  -1.483 126.699  0.00  0.00    +0.162 A 
ATOM      7  C   LIG A   1      -6.557   2.405 126.318  0.00  0.00    +0.102 C 
ATOM      8  C   LIG A   1      -5.414   2.927 127.210  0.00  0.00    +0.023 C 
ATOM      9  C   LIG A   1      -4.094   3.004 126.457  0.00  0.00    +0.002 C 
ATOM     10  C   LIG A   1      -4.151   4.001 125.295  0.00  0.00    +0.007 C 
ATOM     11  C   LIG A   1      -5.530   4.100 124.560  0.00  0.00    -0.028 C 
ATOM     12  C   LIG A   1      -5.227   4.294 123.057  0.00  0.00    +0.011 C 
ATOM     13  C   LIG A   1      -6.260   5.369 125.051  0.00  0.00    +0.011 C 
ATOM     14  C   LIG A   1      -6.328   2.779 124.797  0.00  0.00    +0.049 C 
ATOM     15  C   LIG A   1      -7.649   2.497 124.006  0.00  0.00    +0.165 C 
ATOM     16  C   LIG A   1      -8.640   1.748 124.937  0.00  0.00    +0.236 C 
ATOM     17  O   LIG A   1      -8.977   2.624 126.033  0.00  0.00    -0.453 OA
ATOM     18  C   LIG A   1      -7.903   3.044 126.771  0.00  0.00    +0.319 C 
ATOM     19  O   LIG A   1      -8.039   3.808 127.720  0.00  0.00    -0.250 OA
ENDROOT
BRANCH   1  21
ATOM     20  C   LIG A   1      -8.836  -3.467 124.502  0.00  0.00    +0.012 C 
ATOM     21  C   LIG A   1      -8.101  -3.263 125.830  0.00  0.00    +0.017 C 
ATOM     22  C   LIG A   1      -8.961  -3.742 127.005  0.00  0.00    +0.012 C 
ENDBRANCH   1  21
BRANCH   5  23
ATOM     23  O   LIG A   1      -4.973   0.074 127.626  0.00  0.00    -0.503 OA
ATOM     24  H   LIG A   1      -4.540   0.852 127.223  0.00  0.00    +0.292 HD
ENDBRANCH   5  23
BRANCH   6  25
ATOM     25  O   LIG A   1      -5.705  -2.478 127.211  0.00  0.00    -0.503 OA
ATOM     26  H   LIG A   1      -6.109  -3.317 126.922  0.00  0.00    +0.292 HD
ENDBRANCH   6  25
BRANCH  15  27
ATOM     27  O   LIG A   1      -8.278   3.674 123.519  0.00  0.00    -0.387 OA
ATOM     28  H   LIG A   1      -8.921   3.976 124.183  0.00  0.00    +0.210 HD
ENDBRANCH  15  27
TORSDOF 4
ENDMDL
MODEL 3
REMARK VINA RESULT:      -7.6      1.972      2.651
REMARK  Name = NuBBE_2505
REMARK  8 active torsions:
REMARK  status: ('A' for Active; 'I' for Inactive)
REMARK    1  A    between atoms: C_1  and  C_2
REMARK    2  A    between atoms: C_2  and  C_3
REMARK    3  A    between atoms: C_2  and  C_4
REMARK    4  A    between atoms: C_8  and  O_9
REMARK    5  A    between atoms: C_10  and  O_11
REMARK    6  A    between atoms: C_16  and  C_17
REMARK    7  A    between atoms: C_16  and  C_18
REMARK    8  A    between atoms: C_20  and  O_22
REMARK                            x       y       z     vdW  Elec       q    Type
REMARK                         _______ _______ _______ _____ _____    ______ ____
ROOT
ATOM      1  C   LIG A   1     -10.348   7.111 129.725  0.00  0.00    +0.001 A 
ATOM      2  C   LIG A   1      -9.139   7.193 130.434  0.00  0.00    +0.015 A 
ATOM      3  C   LIG A   1      -8.697   6.105 131.188  0.00  0.00    +0.004 A 
ATOM      4  C   LIG A   1      -9.448   4.909 131.289  0.00  0.00    +0.022 A 
ATOM      5  C   LIG A   1     -10.636   4.828 130.586  0.00  0.00    +0.163 A 
ATOM      6  C   LIG A   1     -11.063   5.907 129.795  0.00  0.00    +0.162 A 
ATOM      7  C   LIG A   1      -8.749   3.874 132.198  0.00  0.00    +0.102 C 
ATOM      8  C   LIG A   1      -9.513   2.571 132.508  0.00  0.00    +0.023 C 
ATOM      9  C   LIG A   1      -9.205   1.477 131.497  0.00  0.00    +0.002 C 
ATOM     10  C   LIG A   1      -7.729   1.065 131.526  0.00  0.00    +0.007 C 
ATOM     11  C   LIG A   1      -6.715   2.216 131.833  0.00  0.00    -0.028 C 
ATOM     12  C   LIG A   1      -5.466   1.961 130.959  0.00  0.00    +0.011 C 
ATOM     13  C   LIG A   1      -6.276   2.106 133.309  0.00  0.00    +0.011 C 
ATOM     14  C   LIG A   1      -7.374   3.584 131.470  0.00  0.00    +0.049 C 
ATOM     15  C   LIG A   1      -6.523   4.898 131.463  0.00  0.00    +0.165 C 
ATOM     16  C   LIG A   1      -7.406   6.070 131.969  0.00  0.00    +0.236 C 
ATOM     17  O   LIG A   1      -7.767   5.801 133.341  0.00  0.00    -0.453 OA
ATOM     18  C   LIG A   1      -8.439   4.623 133.527  0.00  0.00    +0.319 C 
ATOM     19  O   LIG A   1      -8.789   4.258 134.643  0.00  0.00    -0.250 OA
ENDROOT
BRANCH   1  21
ATOM     20  C   LIG A   1     -12.249   8.698 129.299  0.00  0.00    +0.012 C 
ATOM     21  C   LIG A   1     -10.840   8.274 128.878  0.00  0.00    +0.017 C 
ATOM     22  C   LIG A   1     -10.791   7.960 127.379  0.00  0.00    +0.012 C 
ENDBRANCH   1  21
BRANCH   5  23
ATOM     23  O   LIG A   1     -11.428   3.720 130.632  0.00  0.00    -0.503 OA
ATOM     24  H   LIG A   1     -12.172   3.956 131.219  0.00  0.00    +0.292 HD
ENDBRANCH   5  23
BRANCH   6  25
ATOM     25  O   LIG A   1     -12.200   5.746 129.042  0.00  0.00    -0.503 OA
ATOM     26  H   LIG A   1     -12.884   6.291 129.473  0.00  0.00    +0.292 HD
ENDBRANCH   6  25
BRANCH  15  27
ATOM     27  O   LIG A   1      -5.357   4.820 132.271  0.00  0.00    -0.387 OA
ATOM     28  H   LIG A   1      -5.223   5.683 132.699  0.00  0.00    +0.210 HD
ENDBRANCH  15  27
TORSDOF 4
ENDMDL
MODEL 4
REMARK VINA RESULT:      -7.5      1.909      3.683
REMARK  Name = NuBBE_2505
REMARK  8 active torsions:
REMARK  status: ('A' for Active; 'I' for Inactive)
REMARK    1  A    between atoms: C_1  and  C_2
REMARK    2  A    between atoms: C_2  and  C_3
REMARK    3  A    between atoms: C_2  and  C_4
REMARK    4  A    between atoms: C_8  and  O_9
REMARK    5  A    between atoms: C_10  and  O_11
REMARK    6  A    between atoms: C_16  and  C_17
REMARK    7  A    between atoms: C_16  and  C_18
REMARK    8  A    between atoms: C_20  and  O_22
REMARK                            x       y       z     vdW  Elec       q    Type
REMARK                         _______ _______ _______ _____ _____    ______ ____
ROOT
ATOM      1  C   LIG A   1     -11.537   7.768 129.054  0.00  0.00    +0.001 A 
ATOM      2  C   LIG A   1     -11.438   7.380 130.399  0.00  0.00    +0.015 A 
ATOM      3  C   LIG A   1     -10.492   6.430 130.785  0.00  0.00    +0.004 A 
ATOM      4  C   LIG A   1      -9.630   5.809 129.850  0.00  0.00    +0.022 A 
ATOM      5  C   LIG A   1      -9.725   6.195 128.525  0.00  0.00    +0.163 A 
ATOM      6  C   LIG A   1     -10.648   7.181 128.141  0.00  0.00    +0.162 A 
ATOM      7  C   LIG A   1      -8.698   4.783 130.530  0.00  0.00    +0.102 C 
ATOM      8  C   LIG A   1      -7.792   3.932 129.617  0.00  0.00    +0.023 C 
ATOM      9  C   LIG A   1      -6.440   4.589 129.385  0.00  0.00    +0.002 C 
ATOM     10  C   LIG A   1      -5.639   4.732 130.683  0.00  0.00    +0.007 C 
ATOM     11  C   LIG A   1      -6.485   5.013 131.969  0.00  0.00    -0.028 C 
ATOM     12  C   LIG A   1      -5.670   5.997 132.839  0.00  0.00    +0.011 C 
ATOM     13  C   LIG A   1      -6.624   3.698 132.766  0.00  0.00    +0.011 C 
ATOM     14  C   LIG A   1      -7.850   5.646 131.551  0.00  0.00    +0.049 C 
ATOM     15  C   LIG A   1      -8.816   6.236 132.632  0.00  0.00    +0.165 C 
ATOM     16  C   LIG A   1     -10.281   5.955 132.202  0.00  0.00    +0.236 C 
ATOM     17  O   LIG A   1     -10.479   4.525 132.187  0.00  0.00    -0.453 OA
ATOM     18  C   LIG A   1      -9.631   3.847 131.353  0.00  0.00    +0.319 C 
ATOM     19  O   LIG A   1      -9.672   2.626 131.256  0.00  0.00    -0.250 OA
ENDROOT
BRANCH   1  21
ATOM     20  C   LIG A   1     -12.958   9.706 129.788  0.00  0.00    +0.012 C 
ATOM     21  C   LIG A   1     -12.543   8.818 128.612  0.00  0.00    +0.017 C 
ATOM     22  C   LIG A   1     -13.773   8.195 127.942  0.00  0.00    +0.012 C 
ENDBRANCH   1  21
BRANCH   5  23
ATOM     23  O   LIG A   1      -8.942   5.645 127.555  0.00  0.00    -0.503 OA
ATOM     24  H   LIG A   1      -9.554   5.157 126.971  0.00  0.00    +0.292 HD
ENDBRANCH   5  23
BRANCH   6  25
ATOM     25  O   LIG A   1     -10.642   7.598 126.834  0.00  0.00    -0.503 OA
ATOM     26  H   LIG A   1     -11.393   8.214 126.746  0.00  0.00    +0.292 HD
ENDBRANCH   6  25
BRANCH  15  27
ATOM     27  O   LIG A   1      -8.607   5.698 133.930  0.00  0.00    -0.387 OA
ATOM     28  H   LIG A   1      -8.428   6.432 134.541  0.00  0.00    +0.210 HD
ENDBRANCH  15  27
TORSDOF 4
ENDMDL
MODEL 5
REMARK VINA RESULT:      -7.2      6.669      8.424
REMARK  Name = NuBBE_2505
REMARK  8 active torsions:
REMARK  status: ('A' for Active; 'I' for Inactive)
REMARK    1  A    between atoms: C_1  and  C_2
REMARK    2  A    between atoms: C_2  and  C_3
REMARK    3  A    between atoms: C_2  and  C_4
REMARK    4  A    between atoms: C_8  and  O_9
REMARK    5  A    between atoms: C_10  and  O_11
REMARK    6  A    between atoms: C_16  and  C_17
REMARK    7  A    between atoms: C_16  and  C_18
REMARK    8  A    between atoms: C_20  and  O_22
REMARK                            x       y       z     vdW  Elec       q    Type
REMARK                         _______ _______ _______ _____ _____    ______ ____
ROOT
ATOM      1  C   LIG A   1      -8.728  -1.356 124.848  0.00  0.00    +0.001 A 
ATOM      2  C   LIG A   1      -7.862  -0.445 125.471  0.00  0.00    +0.015 A 
ATOM      3  C   LIG A   1      -7.438  -0.669 126.782  0.00  0.00    +0.004 A 
ATOM      4  C   LIG A   1      -7.877  -1.787 127.530  0.00  0.00    +0.022 A 
ATOM      5  C   LIG A   1      -8.727  -2.687 126.913  0.00  0.00    +0.163 A 
ATOM      6  C   LIG A   1      -9.123  -2.485 125.581  0.00  0.00    +0.162 A 
ATOM      7  C   LIG A   1      -7.279  -1.788 128.955  0.00  0.00    +0.102 C 
ATOM      8  C   LIG A   1      -7.772  -2.876 129.930  0.00  0.00    +0.023 C 
ATOM      9  C   LIG A   1      -6.910  -4.128 129.869  0.00  0.00    +0.002 C 
ATOM     10  C   LIG A   1      -5.467  -3.855 130.304  0.00  0.00    +0.007 C 
ATOM     11  C   LIG A   1      -4.904  -2.445 129.927  0.00  0.00    -0.028 C 
ATOM     12  C   LIG A   1      -3.419  -2.640 129.544  0.00  0.00    +0.011 C 
ATOM     13  C   LIG A   1      -4.943  -1.546 131.182  0.00  0.00    +0.011 C 
ATOM     14  C   LIG A   1      -5.717  -1.880 128.719  0.00  0.00    +0.049 C 
ATOM     15  C   LIG A   1      -5.243  -0.584 127.980  0.00  0.00    +0.165 C 
ATOM     16  C   LIG A   1      -6.492   0.228 127.543  0.00  0.00    +0.236 C 
ATOM     17  O   LIG A   1      -7.195   0.647 128.732  0.00  0.00    -0.453 OA
ATOM     18  C   LIG A   1      -7.593  -0.381 129.544  0.00  0.00    +0.319 C 
ATOM     19  O   LIG A   1      -8.182  -0.171 130.598  0.00  0.00    -0.250 OA
ENDROOT
BRANCH   1  21
ATOM     20  C   LIG A   1      -8.220  -1.811 122.429  0.00  0.00    +0.012 C 
ATOM     21  C   LIG A   1      -9.186  -1.147 123.413  0.00  0.00    +0.017 C 
ATOM     22  C   LIG A   1      -9.371   0.337 123.076  0.00  0.00    +0.012 C 
ENDBRANCH   1  21
BRANCH   5  23
ATOM     23  O   LIG A   1      -9.207  -3.786 127.559  0.00  0.00    -0.503 OA
ATOM     24  H   LIG A   1      -8.578  -4.505 127.355  0.00  0.00    +0.292 HD
ENDBRANCH   5  23
BRANCH   6  25
ATOM     25  O   LIG A   1      -9.890  -3.452 124.982  0.00  0.00    -0.503 OA
ATOM     26  H   LIG A   1     -10.124  -3.100 124.102  0.00  0.00    +0.292 HD
ENDBRANCH   6  25
BRANCH  15  27
ATOM     27  O   LIG A   1      -4.410   0.247 128.776  0.00  0.00    -0.387 OA
ATOM     28  H   LIG A   1      -4.837   1.116 128.861  0.00  0.00    +0.210 HD
ENDBRANCH  15  27
TORSDOF 4
ENDMDL
MODEL 6
REMARK VINA RESULT:      -7.2      4.849      6.929
REMARK  Name = NuBBE_2505
REMARK  8 active torsions:
REMARK  status: ('A' for Active; 'I' for Inactive)
REMARK    1  A    between atoms: C_1  and  C_2
REMARK    2  A    between atoms: C_2  and  C_3
REMARK    3  A    between atoms: C_2  and  C_4
REMARK    4  A    between atoms: C_8  and  O_9
REMARK    5  A    between atoms: C_10  and  O_11
REMARK    6  A    between atoms: C_16  and  C_17
REMARK    7  A    between atoms: C_16  and  C_18
REMARK    8  A    between atoms: C_20  and  O_22
REMARK                            x       y       z     vdW  Elec       q    Type
REMARK                         _______ _______ _______ _____ _____    ______ ____
ROOT
ATOM      1  C   LIG A   1      -6.033   3.935 123.184  0.00  0.00    +0.001 A 
ATOM      2  C   LIG A   1      -5.005   3.911 124.139  0.00  0.00    +0.015 A 
ATOM      3  C   LIG A   1      -5.299   3.628 125.473  0.00  0.00    +0.004 A 
ATOM      4  C   LIG A   1      -6.621   3.386 125.914  0.00  0.00    +0.022 A 
ATOM      5  C   LIG A   1      -7.633   3.404 124.971  0.00  0.00    +0.163 A 
ATOM      6  C   LIG A   1      -7.335   3.650 123.621  0.00  0.00    +0.162 A 
ATOM      7  C   LIG A   1      -6.674   3.121 127.435  0.00  0.00    +0.102 C 
ATOM      8  C   LIG A   1      -8.066   2.970 128.081  0.00  0.00    +0.023 C 
ATOM      9  C   LIG A   1      -8.534   1.523 128.095  0.00  0.00    +0.002 C 
ATOM     10  C   LIG A   1      -7.624   0.632 128.947  0.00  0.00    +0.007 C 
ATOM     11  C   LIG A   1      -6.106   1.010 128.932  0.00  0.00    -0.028 C 
ATOM     12  C   LIG A   1      -5.310  -0.316 128.953  0.00  0.00    +0.011 C 
ATOM     13  C   LIG A   1      -5.773   1.769 130.234  0.00  0.00    +0.011 C 
ATOM     14  C   LIG A   1      -5.796   1.819 127.633  0.00  0.00    +0.049 C 
ATOM     15  C   LIG A   1      -4.318   2.144 127.233  0.00  0.00    +0.165 C 
ATOM     16  C   LIG A   1      -4.274   3.552 126.579  0.00  0.00    +0.236 C 
ATOM     17  O   LIG A   1      -4.673   4.522 127.572  0.00  0.00    -0.453 OA
ATOM     18  C   LIG A   1      -5.920   4.312 128.096  0.00  0.00    +0.319 C 
ATOM     19  O   LIG A   1      -6.380   5.046 128.963  0.00  0.00    -0.250 OA
ENDROOT
BRANCH   1  21
ATOM     20  C   LIG A   1      -5.617   2.915 120.924  0.00  0.00    +0.012 C 
ATOM     21  C   LIG A   1      -5.737   4.218 121.720  0.00  0.00    +0.017 C 
ATOM     22  C   LIG A   1      -4.483   5.082 121.540  0.00  0.00    +0.012 C 
ENDBRANCH   1  21
BRANCH   5  23
ATOM     23  O   LIG A   1      -8.936   3.192 125.306  0.00  0.00    -0.503 OA
ATOM     24  H   LIG A   1      -9.052   2.222 125.302  0.00  0.00    +0.292 HD
ENDBRANCH   5  23
BRANCH   6  25
ATOM     25  O   LIG A   1      -8.357   3.566 122.709  0.00  0.00    -0.503 OA
ATOM     26  H   LIG A   1      -9.098   4.074 123.090  0.00  0.00    +0.292 HD
ENDBRANCH   6  25
BRANCH  15  27
ATOM     27  O   LIG A   1      -3.418   2.122 128.332  0.00  0.00    -0.387 OA
ATOM     28  H   LIG A   1      -2.795   2.861 128.234  0.00  0.00    +0.210 HD
ENDBRANCH  15  27
TORSDOF 4
ENDMDL
MODEL 7
REMARK VINA RESULT:      -7.0      6.910      9.828
REMARK  Name = NuBBE_2505
REMARK  8 active torsions:
REMARK  status: ('A' for Active; 'I' for Inactive)
REMARK    1  A    between atoms: C_1  and  C_2
REMARK    2  A    between atoms: C_2  and  C_3
REMARK    3  A    between atoms: C_2  and  C_4
REMARK    4  A    between atoms: C_8  and  O_9
REMARK    5  A    between atoms: C_10  and  O_11
REMARK    6  A    between atoms: C_16  and  C_17
REMARK    7  A    between atoms: C_16  and  C_18
REMARK    8  A    between atoms: C_20  and  O_22
REMARK                            x       y       z     vdW  Elec       q    Type
REMARK                         _______ _______ _______ _____ _____    ______ ____
ROOT
ATOM      1  C   LIG A   1      -7.394  -2.987 128.679  0.00  0.00    +0.001 A 
ATOM      2  C   LIG A   1      -6.413  -2.085 128.239  0.00  0.00    +0.015 A 
ATOM      3  C   LIG A   1      -6.554  -1.447 127.006  0.00  0.00    +0.004 A 
ATOM      4  C   LIG A   1      -7.655  -1.700 126.153  0.00  0.00    +0.022 A 
ATOM      5  C   LIG A   1      -8.623  -2.586 126.590  0.00  0.00    +0.163 A 
ATOM      6  C   LIG A   1      -8.504  -3.199 127.848  0.00  0.00    +0.162 A 
ATOM      7  C   LIG A   1      -7.559  -0.885 124.845  0.00  0.00    +0.102 C 
ATOM      8  C   LIG A   1      -8.622  -1.156 123.761  0.00  0.00    +0.023 C 
ATOM      9  C   LIG A   1      -9.833  -0.248 123.910  0.00  0.00    +0.002 C 
ATOM     10  C   LIG A   1      -9.471   1.230 123.724  0.00  0.00    +0.007 C 
ATOM     11  C   LIG A   1      -8.055   1.647 124.242  0.00  0.00    -0.028 C 
ATOM     12  C   LIG A   1      -8.196   3.061 124.851  0.00  0.00    +0.011 C 
ATOM     13  C   LIG A   1      -7.100   1.758 123.034  0.00  0.00    +0.011 C 
ATOM     14  C   LIG A   1      -7.588   0.623 125.325  0.00  0.00    +0.049 C 
ATOM     15  C   LIG A   1      -6.307   0.902 126.181  0.00  0.00    +0.165 C 
ATOM     16  C   LIG A   1      -5.578  -0.443 126.444  0.00  0.00    +0.236 C 
ATOM     17  O   LIG A   1      -5.137  -0.970 125.174  0.00  0.00    -0.453 OA
ATOM     18  C   LIG A   1      -6.143  -1.178 124.269  0.00  0.00    +0.319 C 
ATOM     19  O   LIG A   1      -5.911  -1.603 123.143  0.00  0.00    -0.250 OA
ENDROOT
BRANCH   1  21
ATOM     20  C   LIG A   1      -7.510  -2.687 131.172  0.00  0.00    +0.012 C 
ATOM     21  C   LIG A   1      -7.275  -3.678 130.028  0.00  0.00    +0.017 C 
ATOM     22  C   LIG A   1      -5.930  -4.393 130.196  0.00  0.00    +0.012 C 
ENDBRANCH   1  21
BRANCH   5  23
ATOM     23  O   LIG A   1      -9.712  -2.897 125.832  0.00  0.00    -0.503 OA
ATOM     24  H   LIG A   1      -9.504  -3.757 125.418  0.00  0.00    +0.292 HD
ENDBRANCH   5  23
BRANCH   6  25
ATOM     25  O   LIG A   1      -9.534  -3.997 128.278  0.00  0.00    -0.503 OA
ATOM     26  H   LIG A   1      -9.401  -4.861 127.845  0.00  0.00    +0.292 HD
ENDBRANCH   6  25
BRANCH  15  27
ATOM     27  O   LIG A   1      -5.400   1.803 125.563  0.00  0.00    -0.387 OA
ATOM     28  H   LIG A   1      -4.731   1.285 125.085  0.00  0.00    +0.210 HD
ENDBRANCH  15  27
TORSDOF 4
ENDMDL
MODEL 8
REMARK VINA RESULT:      -7.0      6.635      9.738
REMARK  Name = NuBBE_2505
REMARK  8 active torsions:
REMARK  status: ('A' for Active; 'I' for Inactive)
REMARK    1  A    between atoms: C_1  and  C_2
REMARK    2  A    between atoms: C_2  and  C_3
REMARK    3  A    between atoms: C_2  and  C_4
REMARK    4  A    between atoms: C_8  and  O_9
REMARK    5  A    between atoms: C_10  and  O_11
REMARK    6  A    between atoms: C_16  and  C_17
REMARK    7  A    between atoms: C_16  and  C_18
REMARK    8  A    between atoms: C_20  and  O_22
REMARK                            x       y       z     vdW  Elec       q    Type
REMARK                         _______ _______ _______ _____ _____    ______ ____
ROOT
ATOM      1  C   LIG A   1      -7.034  -1.023 129.377  0.00  0.00    +0.001 A 
ATOM      2  C   LIG A   1      -6.531  -0.308 128.279  0.00  0.00    +0.015 A 
ATOM      3  C   LIG A   1      -6.648  -0.833 126.992  0.00  0.00    +0.004 A 
ATOM      4  C   LIG A   1      -7.240  -2.095 126.748  0.00  0.00    +0.022 A 
ATOM      5  C   LIG A   1      -7.740  -2.797 127.830  0.00  0.00    +0.163 A 
ATOM      6  C   LIG A   1      -7.660  -2.253 129.122  0.00  0.00    +0.162 A 
ATOM      7  C   LIG A   1      -7.224  -2.450 125.245  0.00  0.00    +0.102 C 
ATOM      8  C   LIG A   1      -7.718  -3.854 124.842  0.00  0.00    +0.023 C 
ATOM      9  C   LIG A   1      -9.209  -3.870 124.544  0.00  0.00    +0.002 C 
ATOM     10  C   LIG A   1      -9.566  -2.985 123.344  0.00  0.00    +0.007 C 
ATOM     11  C   LIG A   1      -8.703  -1.690 123.183  0.00  0.00    -0.028 C 
ATOM     12  C   LIG A   1      -9.651  -0.576 122.682  0.00  0.00    +0.011 C 
ATOM     13  C   LIG A   1      -7.651  -1.932 122.079  0.00  0.00    +0.011 C 
ATOM     14  C   LIG A   1      -8.090  -1.311 124.568  0.00  0.00    +0.049 C 
ATOM     15  C   LIG A   1      -7.359   0.059 124.765  0.00  0.00    +0.165 C 
ATOM     16  C   LIG A   1      -6.166  -0.144 125.738  0.00  0.00    +0.236 C 
ATOM     17  O   LIG A   1      -5.226  -1.045 125.113  0.00  0.00    -0.453 OA
ATOM     18  C   LIG A   1      -5.748  -2.267 124.785  0.00  0.00    +0.319 C 
ATOM     19  O   LIG A   1      -5.068  -3.123 124.231  0.00  0.00    -0.250 OA
ENDROOT
BRANCH   1  21
ATOM     20  C   LIG A   1      -8.105   0.487 131.076  0.00  0.00    +0.012 C 
ATOM     21  C   LIG A   1      -6.940  -0.463 130.787  0.00  0.00    +0.017 C 
ATOM     22  C   LIG A   1      -5.597   0.230 131.046  0.00  0.00    +0.012 C 
ENDBRANCH   1  21
BRANCH   5  23
ATOM     23  O   LIG A   1      -8.318  -4.022 127.691  0.00  0.00    -0.503 OA
ATOM     24  H   LIG A   1      -7.678  -4.657 128.068  0.00  0.00    +0.292 HD
ENDBRANCH   5  23
BRANCH   6  25
ATOM     25  O   LIG A   1      -8.251  -2.941 130.151  0.00  0.00    -0.503 OA
ATOM     26  H   LIG A   1      -8.741  -3.675 129.735  0.00  0.00    +0.292 HD
ENDBRANCH   6  25
BRANCH  15  27
ATOM     27  O   LIG A   1      -6.873   0.619 123.554  0.00  0.00    -0.387 OA
ATOM     28  H   LIG A   1      -6.014   0.213 123.351  0.00  0.00    +0.210 HD
ENDBRANCH  15  27
TORSDOF 4
ENDMDL
MODEL 9
REMARK VINA RESULT:      -6.9      3.017      6.461
REMARK  Name = NuBBE_2505
REMARK  8 active torsions:
REMARK  status: ('A' for Active; 'I' for Inactive)
REMARK    1  A    between atoms: C_1  and  C_2
REMARK    2  A    between atoms: C_2  and  C_3
REMARK    3  A    between atoms: C_2  and  C_4
REMARK    4  A    between atoms: C_8  and  O_9
REMARK    5  A    between atoms: C_10  and  O_11
REMARK    6  A    between atoms: C_16  and  C_17
REMARK    7  A    between atoms: C_16  and  C_18
REMARK    8  A    between atoms: C_20  and  O_22
REMARK                            x       y       z     vdW  Elec       q    Type
REMARK                         _______ _______ _______ _____ _____    ______ ____
ROOT
ATOM      1  C   LIG A   1      -7.525  -1.079 129.262  0.00  0.00    +0.001 A 
ATOM      2  C   LIG A   1      -7.563   0.161 128.605  0.00  0.00    +0.015 A 
ATOM      3  C   LIG A   1      -7.967   1.305 129.296  0.00  0.00    +0.004 A 
ATOM      4  C   LIG A   1      -8.374   1.257 130.651  0.00  0.00    +0.022 A 
ATOM      5  C   LIG A   1      -8.332   0.035 131.298  0.00  0.00    +0.163 A 
ATOM      6  C   LIG A   1      -7.887  -1.110 130.616  0.00  0.00    +0.162 A 
ATOM      7  C   LIG A   1      -8.791   2.651 131.169  0.00  0.00    +0.102 C 
ATOM      8  C   LIG A   1      -9.383   2.731 132.590  0.00  0.00    +0.023 C 
ATOM      9  C   LIG A   1      -8.310   2.970 133.641  0.00  0.00    +0.002 C 
ATOM     10  C   LIG A   1      -7.605   4.317 133.448  0.00  0.00    +0.007 C 
ATOM     11  C   LIG A   1      -7.426   4.777 131.964  0.00  0.00    -0.028 C 
ATOM     12  C   LIG A   1      -6.047   5.470 131.870  0.00  0.00    +0.011 C 
ATOM     13  C   LIG A   1      -8.499   5.839 131.643  0.00  0.00    +0.011 C 
ATOM     14  C   LIG A   1      -7.478   3.524 131.034  0.00  0.00    +0.049 C 
ATOM     15  C   LIG A   1      -7.109   3.645 129.517  0.00  0.00    +0.165 C 
ATOM     16  C   LIG A   1      -8.023   2.691 128.702  0.00  0.00    +0.236 C 
ATOM     17  O   LIG A   1      -9.387   3.142 128.848  0.00  0.00    -0.453 OA
ATOM     18  C   LIG A   1      -9.831   3.187 130.142  0.00  0.00    +0.319 C 
ATOM     19  O   LIG A   1     -10.963   3.570 130.415  0.00  0.00    -0.250 OA
ENDROOT
BRANCH   1  21
ATOM     20  C   LIG A   1      -6.087  -1.991 127.414  0.00  0.00    +0.012 C 
ATOM     21  C   LIG A   1      -7.067  -2.335 128.538  0.00  0.00    +0.017 C 
ATOM     22  C   LIG A   1      -8.245  -3.155 127.999  0.00  0.00    +0.012 C 
ENDBRANCH   1  21
BRANCH   5  23
ATOM     23  O   LIG A   1      -8.714  -0.107 132.598  0.00  0.00    -0.503 OA
ATOM     24  H   LIG A   1      -7.993   0.286 133.126  0.00  0.00    +0.292 HD
ENDBRANCH   5  23
BRANCH   6  25
ATOM     25  O   LIG A   1      -7.774  -2.280 131.324  0.00  0.00    -0.503 OA
ATOM     26  H   LIG A   1      -7.502  -2.958 130.678  0.00  0.00    +0.292 HD
ENDBRANCH   6  25
BRANCH  15  27
ATOM     27  O   LIG A   1      -7.249   4.962 129.005  0.00  0.00    -0.387 OA
ATOM     28  H   LIG A   1      -7.229   5.585 129.751  0.00  0.00    +0.210 HD
ENDBRANCH  15  27
TORSDOF 4
ENDMDL
