MODEL 1
REMARK VINA RESULT:      -7.4      0.000      0.000
REMARK  Name = NuBBE_1666
REMARK  11 active torsions:
REMARK  status: ('A' for Active; 'I' for Inactive)
REMARK    1  A    between atoms: C_2  and  C_3
REMARK    2  A    between atoms: C_2  and  C_12
REMARK    3  A    between atoms: C_12  and  C_14
REMARK    4  A    between atoms: C_12  and  C_15
REMARK    5  A    between atoms: C_15  and  C_17
REMARK    6  A    between atoms: C_15  and  C_18
REMARK    7  A    between atoms: C_18  and  C_19
REMARK    8  A    between atoms: C_22  and  O_23
REMARK    9  A    between atoms: O_23  and  C_24
REMARK   10  A    between atoms: C_25  and  O_26
REMARK   11  A    between atoms: O_26  and  C_27
REMARK                            x       y       z     vdW  Elec       q    Type
REMARK                         _______ _______ _______ _____ _____    ______ ____
ROOT
ATOM      1  C   LIG A   1      -8.195  -3.177 124.591  0.00  0.00    +0.060 C 
ATOM      2  C   LIG A   1      -9.186  -3.376 123.439  0.00  0.00    +0.016 C 
ENDROOT
BRANCH   1   4
ATOM      3  O   LIG A   1     -10.243  -2.640 125.769  0.00  0.00    -0.292 OA
ATOM      4  C   LIG A   1      -9.015  -2.766 125.817  0.00  0.00    +0.166 C 
BRANCH   4   5
ATOM      5  C   LIG A   1      -8.338  -2.613 127.139  0.00  0.00    +0.021 A 
ATOM      6  C   LIG A   1      -8.345  -3.636 128.112  0.00  0.00    +0.015 A 
ATOM      7  C   LIG A   1      -7.701  -3.451 129.343  0.00  0.00    +0.050 A 
ATOM      8  C   LIG A   1      -7.068  -2.249 129.567  0.00  0.00    +0.166 A 
ATOM      9  O   LIG A   1      -6.397  -1.901 130.696  0.00  0.00    -0.453 OA
ATOM     10  C   LIG A   1      -5.972  -0.563 130.361  0.00  0.00    +0.466 C 
ATOM     11  O   LIG A   1      -6.373  -0.151 129.037  0.00  0.00    -0.453 OA
ATOM     12  C   LIG A   1      -7.052  -1.254 128.618  0.00  0.00    +0.167 A 
ATOM     13  C   LIG A   1      -7.671  -1.405 127.396  0.00  0.00    +0.060 A 
ENDBRANCH   4   5
ENDBRANCH   1   4
BRANCH   1  14
ATOM     14  C   LIG A   1      -7.076  -2.139 124.262  0.00  0.00    +0.001 C 
ATOM     15  C   LIG A   1      -5.789  -2.869 123.841  0.00  0.00    +0.008 C 
BRANCH  14  16
ATOM     16  C   LIG A   1      -7.547  -1.165 123.158  0.00  0.00    +0.039 C 
BRANCH  16  17
ATOM     17  C   LIG A   1      -7.872   0.244 123.585  0.00  0.00    -0.043 A 
ATOM     18  C   LIG A   1      -8.980   0.469 124.399  0.00  0.00    +0.007 A 
ATOM     19  C   LIG A   1      -9.248   1.745 124.887  0.00  0.00    +0.050 A 
ATOM     20  C   LIG A   1      -8.436   2.840 124.562  0.00  0.00    +0.162 A 
ATOM     21  C   LIG A   1      -7.314   2.627 123.738  0.00  0.00    +0.162 A 
ATOM     22  C   LIG A   1      -7.049   1.329 123.258  0.00  0.00    +0.053 A 
BRANCH  20  23
ATOM     23  O   LIG A   1      -8.706   4.105 125.014  0.00  0.00    -0.491 OA
ATOM     24  C   LIG A   1      -7.971   4.574 126.138  0.00  0.00    +0.277 C 
ENDBRANCH  20  23
BRANCH  21  25
ATOM     25  O   LIG A   1      -6.379   3.540 123.315  0.00  0.00    -0.491 OA
ATOM     26  C   LIG A   1      -6.198   3.728 121.919  0.00  0.00    +0.277 C 
ENDBRANCH  21  25
ENDBRANCH  16  17
ENDBRANCH  14  16
ENDBRANCH   1  14
TORSDOF 7
ENDMDL
MODEL 2
REMARK VINA RESULT:      -7.4      1.226      1.381
REMARK  Name = NuBBE_1666
REMARK  11 active torsions:
REMARK  status: ('A' for Active; 'I' for Inactive)
REMARK    1  A    between atoms: C_2  and  C_3
REMARK    2  A    between atoms: C_2  and  C_12
REMARK    3  A    between atoms: C_12  and  C_14
REMARK    4  A    between atoms: C_12  and  C_15
REMARK    5  A    between atoms: C_15  and  C_17
REMARK    6  A    between atoms: C_15  and  C_18
REMARK    7  A    between atoms: C_18  and  C_19
REMARK    8  A    between atoms: C_22  and  O_23
REMARK    9  A    between atoms: O_23  and  C_24
REMARK   10  A    between atoms: C_25  and  O_26
REMARK   11  A    between atoms: O_26  and  C_27
REMARK                            x       y       z     vdW  Elec       q    Type
REMARK                         _______ _______ _______ _____ _____    ______ ____
ROOT
ATOM      1  C   LIG A   1      -7.993  -3.048 124.753  0.00  0.00    +0.060 C 
ATOM      2  C   LIG A   1      -8.873  -3.106 123.499  0.00  0.00    +0.016 C 
ENDROOT
BRANCH   1   4
ATOM      3  O   LIG A   1      -9.832  -1.687 125.549  0.00  0.00    -0.292 OA
ATOM      4  C   LIG A   1      -8.787  -2.287 125.818  0.00  0.00    +0.166 C 
BRANCH   4   5
ATOM      5  C   LIG A   1      -8.352  -2.348 127.246  0.00  0.00    +0.021 A 
ATOM      6  C   LIG A   1      -8.502  -3.513 128.029  0.00  0.00    +0.015 A 
ATOM      7  C   LIG A   1      -8.086  -3.530 129.367  0.00  0.00    +0.050 A 
ATOM      8  C   LIG A   1      -7.530  -2.381 129.884  0.00  0.00    +0.166 A 
ATOM      9  O   LIG A   1      -7.073  -2.220 131.154  0.00  0.00    -0.453 OA
ATOM     10  C   LIG A   1      -6.630  -0.847 131.113  0.00  0.00    +0.466 C 
ATOM     11  O   LIG A   1      -6.806  -0.228 129.821  0.00  0.00    -0.453 OA
ATOM     12  C   LIG A   1      -7.375  -1.247 129.122  0.00  0.00    +0.167 A 
ATOM     13  C   LIG A   1      -7.769  -1.199 127.802  0.00  0.00    +0.060 A 
ENDBRANCH   4   5
ENDBRANCH   1   4
BRANCH   1  14
ATOM     14  C   LIG A   1      -6.597  -2.402 124.491  0.00  0.00    +0.001 C 
ATOM     15  C   LIG A   1      -5.613  -3.467 123.975  0.00  0.00    +0.008 C 
BRANCH  14  16
ATOM     16  C   LIG A   1      -6.719  -1.230 123.491  0.00  0.00    +0.039 C 
BRANCH  16  17
ATOM     17  C   LIG A   1      -6.869   0.151 124.075  0.00  0.00    -0.043 A 
ATOM     18  C   LIG A   1      -6.096   0.512 125.176  0.00  0.00    +0.007 A 
ATOM     19  C   LIG A   1      -6.143   1.811 125.675  0.00  0.00    +0.050 A 
ATOM     20  C   LIG A   1      -6.979   2.783 125.110  0.00  0.00    +0.162 A 
ATOM     21  C   LIG A   1      -7.769   2.432 123.998  0.00  0.00    +0.162 A 
ATOM     22  C   LIG A   1      -7.705   1.116 123.497  0.00  0.00    +0.053 A 
BRANCH  20  23
ATOM     23  O   LIG A   1      -7.055   4.057 125.610  0.00  0.00    -0.491 OA
ATOM     24  C   LIG A   1      -6.221   5.047 125.021  0.00  0.00    +0.277 C 
ENDBRANCH  20  23
BRANCH  21  25
ATOM     25  O   LIG A   1      -8.633   3.221 123.281  0.00  0.00    -0.491 OA
ATOM     26  C   LIG A   1      -8.576   3.174 121.862  0.00  0.00    +0.277 C 
ENDBRANCH  21  25
ENDBRANCH  16  17
ENDBRANCH  14  16
ENDBRANCH   1  14
TORSDOF 7
ENDMDL
MODEL 3
REMARK VINA RESULT:      -7.3      1.675      5.607
REMARK  Name = NuBBE_1666
REMARK  11 active torsions:
REMARK  status: ('A' for Active; 'I' for Inactive)
REMARK    1  A    between atoms: C_2  and  C_3
REMARK    2  A    between atoms: C_2  and  C_12
REMARK    3  A    between atoms: C_12  and  C_14
REMARK    4  A    between atoms: C_12  and  C_15
REMARK    5  A    between atoms: C_15  and  C_17
REMARK    6  A    between atoms: C_15  and  C_18
REMARK    7  A    between atoms: C_18  and  C_19
REMARK    8  A    between atoms: C_22  and  O_23
REMARK    9  A    between atoms: O_23  and  C_24
REMARK   10  A    between atoms: C_25  and  O_26
REMARK   11  A    between atoms: O_26  and  C_27
REMARK                            x       y       z     vdW  Elec       q    Type
REMARK                         _______ _______ _______ _____ _____    ______ ____
ROOT
ATOM      1  C   LIG A   1      -8.694  -1.516 122.903  0.00  0.00    +0.060 C 
ATOM      2  C   LIG A   1      -7.212  -1.135 122.996  0.00  0.00    +0.016 C 
ENDROOT
BRANCH   1   4
ATOM      3  O   LIG A   1     -10.493   0.020 122.383  0.00  0.00    -0.292 OA
ATOM      4  C   LIG A   1      -9.498  -0.224 123.072  0.00  0.00    +0.166 C 
BRANCH   4   5
ATOM      5  C   LIG A   1      -9.141   0.728 124.165  0.00  0.00    +0.021 A 
ATOM      6  C   LIG A   1      -9.103   0.338 125.522  0.00  0.00    +0.015 A 
ATOM      7  C   LIG A   1      -8.768   1.263 126.519  0.00  0.00    +0.050 A 
ATOM      8  C   LIG A   1      -8.479   2.553 126.133  0.00  0.00    +0.166 A 
ATOM      9  O   LIG A   1      -8.136   3.574 126.961  0.00  0.00    -0.453 OA
ATOM     10  C   LIG A   1      -7.969   4.651 126.015  0.00  0.00    +0.466 C 
ATOM     11  O   LIG A   1      -8.191   4.248 124.647  0.00  0.00    -0.453 OA
ATOM     12  C   LIG A   1      -8.508   2.935 124.812  0.00  0.00    +0.167 A 
ATOM     13  C   LIG A   1      -8.828   2.049 123.806  0.00  0.00    +0.060 A 
ENDBRANCH   4   5
ENDBRANCH   1   4
BRANCH   1  14
ATOM     14  C   LIG A   1      -9.111  -2.604 123.942  0.00  0.00    +0.001 C 
ATOM     15  C   LIG A   1      -9.931  -3.707 123.249  0.00  0.00    +0.008 C 
BRANCH  14  16
ATOM     16  C   LIG A   1      -7.865  -3.196 124.639  0.00  0.00    +0.039 C 
BRANCH  16  17
ATOM     17  C   LIG A   1      -7.725  -2.940 126.118  0.00  0.00    -0.043 A 
ATOM     18  C   LIG A   1      -8.644  -3.509 126.996  0.00  0.00    +0.007 A 
ATOM     19  C   LIG A   1      -8.483  -3.369 128.372  0.00  0.00    +0.050 A 
ATOM     20  C   LIG A   1      -7.417  -2.639 128.915  0.00  0.00    +0.162 A 
ATOM     21  C   LIG A   1      -6.482  -2.056 128.038  0.00  0.00    +0.162 A 
ATOM     22  C   LIG A   1      -6.651  -2.213 126.648  0.00  0.00    +0.053 A 
BRANCH  20  23
ATOM     23  O   LIG A   1      -7.264  -2.471 130.266  0.00  0.00    -0.491 OA
ATOM     24  C   LIG A   1      -7.884  -1.339 130.864  0.00  0.00    +0.277 C 
ENDBRANCH  20  23
BRANCH  21  25
ATOM     25  O   LIG A   1      -5.361  -1.326 128.347  0.00  0.00    -0.491 OA
ATOM     26  C   LIG A   1      -5.463   0.090 128.388  0.00  0.00    +0.277 C 
ENDBRANCH  21  25
ENDBRANCH  16  17
ENDBRANCH  14  16
ENDBRANCH   1  14
TORSDOF 7
ENDMDL
MODEL 4
REMARK VINA RESULT:      -7.3      2.072      4.985
REMARK  Name = NuBBE_1666
REMARK  11 active torsions:
REMARK  status: ('A' for Active; 'I' for Inactive)
REMARK    1  A    between atoms: C_2  and  C_3
REMARK    2  A    between atoms: C_2  and  C_12
REMARK    3  A    between atoms: C_12  and  C_14
REMARK    4  A    between atoms: C_12  and  C_15
REMARK    5  A    between atoms: C_15  and  C_17
REMARK    6  A    between atoms: C_15  and  C_18
REMARK    7  A    between atoms: C_18  and  C_19
REMARK    8  A    between atoms: C_22  and  O_23
REMARK    9  A    between atoms: O_23  and  C_24
REMARK   10  A    between atoms: C_25  and  O_26
REMARK   11  A    between atoms: O_26  and  C_27
REMARK                            x       y       z     vdW  Elec       q    Type
REMARK                         _______ _______ _______ _____ _____    ______ ____
ROOT
ATOM      1  C   LIG A   1      -8.370  -3.396 124.985  0.00  0.00    +0.060 C 
ATOM      2  C   LIG A   1      -6.971  -3.740 124.463  0.00  0.00    +0.016 C 
ENDROOT
BRANCH   1   4
ATOM      3  O   LIG A   1      -9.954  -2.736 123.276  0.00  0.00    -0.292 OA
ATOM      4  C   LIG A   1      -8.992  -2.421 123.983  0.00  0.00    +0.166 C 
BRANCH   4   5
ATOM      5  C   LIG A   1      -8.498  -1.013 123.920  0.00  0.00    +0.021 A 
ATOM      6  C   LIG A   1      -7.316  -0.658 123.235  0.00  0.00    +0.015 A 
ATOM      7  C   LIG A   1      -6.883   0.674 123.203  0.00  0.00    +0.050 A 
ATOM      8  C   LIG A   1      -7.645   1.616 123.857  0.00  0.00    +0.166 A 
ATOM      9  O   LIG A   1      -7.377   2.946 123.928  0.00  0.00    -0.453 OA
ATOM     10  C   LIG A   1      -8.487   3.406 124.729  0.00  0.00    +0.466 C 
ATOM     11  O   LIG A   1      -9.402   2.352 125.096  0.00  0.00    -0.453 OA
ATOM     12  C   LIG A   1      -8.802   1.276 124.519  0.00  0.00    +0.167 A 
ATOM     13  C   LIG A   1      -9.258  -0.024 124.565  0.00  0.00    +0.060 A 
ENDBRANCH   4   5
ENDBRANCH   1   4
BRANCH   1  14
ATOM     14  C   LIG A   1      -8.355  -2.815 126.434  0.00  0.00    +0.001 C 
ATOM     15  C   LIG A   1      -8.951  -3.837 127.417  0.00  0.00    +0.008 C 
BRANCH  14  16
ATOM     16  C   LIG A   1      -6.918  -2.422 126.847  0.00  0.00    +0.039 C 
BRANCH  16  17
ATOM     17  C   LIG A   1      -6.646  -0.954 127.055  0.00  0.00    -0.043 A 
ATOM     18  C   LIG A   1      -5.498  -0.390 126.503  0.00  0.00    +0.007 A 
ATOM     19  C   LIG A   1      -5.271   0.980 126.596  0.00  0.00    +0.050 A 
ATOM     20  C   LIG A   1      -6.167   1.827 127.262  0.00  0.00    +0.162 A 
ATOM     21  C   LIG A   1      -7.330   1.271 127.828  0.00  0.00    +0.162 A 
ATOM     22  C   LIG A   1      -7.552  -0.116 127.718  0.00  0.00    +0.053 A 
BRANCH  20  23
ATOM     23  O   LIG A   1      -5.940   3.174 127.385  0.00  0.00    -0.491 OA
ATOM     24  C   LIG A   1      -5.227   3.620 128.532  0.00  0.00    +0.277 C 
ENDBRANCH  20  23
BRANCH  21  25
ATOM     25  O   LIG A   1      -8.344   1.909 128.499  0.00  0.00    -0.491 OA
ATOM     26  C   LIG A   1      -8.434   1.747 129.907  0.00  0.00    +0.277 C 
ENDBRANCH  21  25
ENDBRANCH  16  17
ENDBRANCH  14  16
ENDBRANCH   1  14
TORSDOF 7
ENDMDL
MODEL 5
REMARK VINA RESULT:      -7.3      7.348      9.321
REMARK  Name = NuBBE_1666
REMARK  11 active torsions:
REMARK  status: ('A' for Active; 'I' for Inactive)
REMARK    1  A    between atoms: C_2  and  C_3
REMARK    2  A    between atoms: C_2  and  C_12
REMARK    3  A    between atoms: C_12  and  C_14
REMARK    4  A    between atoms: C_12  and  C_15
REMARK    5  A    between atoms: C_15  and  C_17
REMARK    6  A    between atoms: C_15  and  C_18
REMARK    7  A    between atoms: C_18  and  C_19
REMARK    8  A    between atoms: C_22  and  O_23
REMARK    9  A    between atoms: O_23  and  C_24
REMARK   10  A    between atoms: C_25  and  O_26
REMARK   11  A    between atoms: O_26  and  C_27
REMARK                            x       y       z     vdW  Elec       q    Type
REMARK                         _______ _______ _______ _____ _____    ______ ____
ROOT
ATOM      1  C   LIG A   1      -8.271   3.519 132.137  0.00  0.00    +0.060 C 
ATOM      2  C   LIG A   1      -9.038   3.157 133.414  0.00  0.00    +0.016 C 
ENDROOT
BRANCH   1   4
ATOM      3  O   LIG A   1      -6.469   3.989 133.687  0.00  0.00    -0.292 OA
ATOM      4  C   LIG A   1      -6.970   4.195 132.577  0.00  0.00    +0.166 C 
BRANCH   4   5
ATOM      5  C   LIG A   1      -6.220   5.049 131.608  0.00  0.00    +0.021 A 
ATOM      6  C   LIG A   1      -6.140   6.452 131.745  0.00  0.00    +0.015 A 
ATOM      7  C   LIG A   1      -5.429   7.219 130.813  0.00  0.00    +0.050 A 
ATOM      8  C   LIG A   1      -4.817   6.562 129.769  0.00  0.00    +0.166 A 
ATOM      9  O   LIG A   1      -4.090   7.144 128.780  0.00  0.00    -0.453 OA
ATOM     10  C   LIG A   1      -3.723   5.990 127.995  0.00  0.00    +0.466 C 
ATOM     11  O   LIG A   1      -4.214   4.748 128.541  0.00  0.00    -0.453 OA
ATOM     12  C   LIG A   1      -4.886   5.195 129.637  0.00  0.00    +0.167 A 
ATOM     13  C   LIG A   1      -5.572   4.411 130.539  0.00  0.00    +0.060 A 
ENDBRANCH   4   5
ENDBRANCH   1   4
BRANCH   1  14
ATOM     14  C   LIG A   1      -9.096   4.417 131.163  0.00  0.00    +0.001 C 
ATOM     15  C   LIG A   1     -10.160   3.570 130.441  0.00  0.00    +0.008 C 
BRANCH  14  16
ATOM     16  C   LIG A   1      -9.749   5.591 131.927  0.00  0.00    +0.039 C 
BRANCH  16  17
ATOM     17  C   LIG A   1     -10.681   6.480 131.143  0.00  0.00    -0.043 A 
ATOM     18  C   LIG A   1     -11.952   6.744 131.647  0.00  0.00    +0.007 A 
ATOM     19  C   LIG A   1     -12.798   7.637 130.995  0.00  0.00    +0.050 A 
ATOM     20  C   LIG A   1     -12.413   8.276 129.808  0.00  0.00    +0.162 A 
ATOM     21  C   LIG A   1     -11.131   8.016 129.285  0.00  0.00    +0.162 A 
ATOM     22  C   LIG A   1     -10.282   7.117 129.961  0.00  0.00    +0.053 A 
BRANCH  20  23
ATOM     23  O   LIG A   1     -13.247   9.135 129.141  0.00  0.00    -0.491 OA
ATOM     24  C   LIG A   1     -13.332  10.473 129.617  0.00  0.00    +0.277 C 
ENDBRANCH  20  23
BRANCH  21  25
ATOM     25  O   LIG A   1     -10.545   8.541 128.161  0.00  0.00    -0.491 OA
ATOM     26  C   LIG A   1     -10.818   7.934 126.906  0.00  0.00    +0.277 C 
ENDBRANCH  21  25
ENDBRANCH  16  17
ENDBRANCH  14  16
ENDBRANCH   1  14
TORSDOF 7
ENDMDL
MODEL 6
REMARK VINA RESULT:      -7.0      1.792      5.137
REMARK  Name = NuBBE_1666
REMARK  11 active torsions:
REMARK  status: ('A' for Active; 'I' for Inactive)
REMARK    1  A    between atoms: C_2  and  C_3
REMARK    2  A    between atoms: C_2  and  C_12
REMARK    3  A    between atoms: C_12  and  C_14
REMARK    4  A    between atoms: C_12  and  C_15
REMARK    5  A    between atoms: C_15  and  C_17
REMARK    6  A    between atoms: C_15  and  C_18
REMARK    7  A    between atoms: C_18  and  C_19
REMARK    8  A    between atoms: C_22  and  O_23
REMARK    9  A    between atoms: O_23  and  C_24
REMARK   10  A    between atoms: C_25  and  O_26
REMARK   11  A    between atoms: O_26  and  C_27
REMARK                            x       y       z     vdW  Elec       q    Type
REMARK                         _______ _______ _______ _____ _____    ______ ____
ROOT
ATOM      1  C   LIG A   1      -7.957  -2.346 123.227  0.00  0.00    +0.060 C 
ATOM      2  C   LIG A   1      -6.724  -1.794 122.503  0.00  0.00    +0.016 C 
ENDROOT
BRANCH   1   4
ATOM      3  O   LIG A   1     -10.031  -1.285 122.565  0.00  0.00    -0.292 OA
ATOM      4  C   LIG A   1      -9.001  -1.227 123.244  0.00  0.00    +0.166 C 
BRANCH   4   5
ATOM      5  C   LIG A   1      -8.834  -0.076 124.180  0.00  0.00    +0.021 A 
ATOM      6  C   LIG A   1      -9.216  -0.146 125.538  0.00  0.00    +0.015 A 
ATOM      7  C   LIG A   1      -9.046   0.958 126.383  0.00  0.00    +0.050 A 
ATOM      8  C   LIG A   1      -8.498   2.102 125.849  0.00  0.00    +0.166 A 
ATOM      9  O   LIG A   1      -8.262   3.260 126.520  0.00  0.00    -0.453 OA
ATOM     10  C   LIG A   1      -7.706   4.077 125.468  0.00  0.00    +0.466 C 
ATOM     11  O   LIG A   1      -7.598   3.388 124.205  0.00  0.00    -0.453 OA
ATOM     12  C   LIG A   1      -8.117   2.172 124.529  0.00  0.00    +0.167 A 
ATOM     13  C   LIG A   1      -8.265   1.103 123.672  0.00  0.00    +0.060 A 
ENDBRANCH   4   5
ENDBRANCH   1   4
BRANCH   1  14
ATOM     14  C   LIG A   1      -7.639  -2.870 124.663  0.00  0.00    +0.001 C 
ATOM     15  C   LIG A   1      -7.955  -4.373 124.757  0.00  0.00    +0.008 C 
BRANCH  14  16
ATOM     16  C   LIG A   1      -6.163  -2.591 125.028  0.00  0.00    +0.039 C 
BRANCH  16  17
ATOM     17  C   LIG A   1      -5.906  -1.522 126.059  0.00  0.00    -0.043 A 
ATOM     18  C   LIG A   1      -5.340  -0.314 125.660  0.00  0.00    +0.007 A 
ATOM     19  C   LIG A   1      -5.182   0.726 126.572  0.00  0.00    +0.050 A 
ATOM     20  C   LIG A   1      -5.559   0.587 127.914  0.00  0.00    +0.162 A 
ATOM     21  C   LIG A   1      -6.130  -0.630 128.333  0.00  0.00    +0.162 A 
ATOM     22  C   LIG A   1      -6.293  -1.672 127.398  0.00  0.00    +0.053 A 
BRANCH  20  23
ATOM     23  O   LIG A   1      -5.381   1.593 128.828  0.00  0.00    -0.491 OA
ATOM     24  C   LIG A   1      -4.171   1.600 129.574  0.00  0.00    +0.277 C 
ENDBRANCH  20  23
BRANCH  21  25
ATOM     25  O   LIG A   1      -6.587  -0.975 129.581  0.00  0.00    -0.491 OA
ATOM     26  C   LIG A   1      -7.726  -1.818 129.678  0.00  0.00    +0.277 C 
ENDBRANCH  21  25
ENDBRANCH  16  17
ENDBRANCH  14  16
ENDBRANCH   1  14
TORSDOF 7
ENDMDL
MODEL 7
REMARK VINA RESULT:      -7.0      2.824      8.255
REMARK  Name = NuBBE_1666
REMARK  11 active torsions:
REMARK  status: ('A' for Active; 'I' for Inactive)
REMARK    1  A    between atoms: C_2  and  C_3
REMARK    2  A    between atoms: C_2  and  C_12
REMARK    3  A    between atoms: C_12  and  C_14
REMARK    4  A    between atoms: C_12  and  C_15
REMARK    5  A    between atoms: C_15  and  C_17
REMARK    6  A    between atoms: C_15  and  C_18
REMARK    7  A    between atoms: C_18  and  C_19
REMARK    8  A    between atoms: C_22  and  O_23
REMARK    9  A    between atoms: O_23  and  C_24
REMARK   10  A    between atoms: C_25  and  O_26
REMARK   11  A    between atoms: O_26  and  C_27
REMARK                            x       y       z     vdW  Elec       q    Type
REMARK                         _______ _______ _______ _____ _____    ______ ____
ROOT
ATOM      1  C   LIG A   1      -7.029   3.025 124.857  0.00  0.00    +0.060 C 
ATOM      2  C   LIG A   1      -8.457   2.885 125.396  0.00  0.00    +0.016 C 
ENDROOT
BRANCH   1   4
ATOM      3  O   LIG A   1      -7.646   1.546 123.040  0.00  0.00    -0.292 OA
ATOM      4  C   LIG A   1      -7.060   2.573 123.394  0.00  0.00    +0.166 C 
BRANCH   4   5
ATOM      5  C   LIG A   1      -6.455   3.443 122.342  0.00  0.00    +0.021 A 
ATOM      6  C   LIG A   1      -5.251   4.150 122.549  0.00  0.00    +0.015 A 
ATOM      7  C   LIG A   1      -4.718   4.960 121.537  0.00  0.00    +0.050 A 
ATOM      8  C   LIG A   1      -5.404   5.041 120.346  0.00  0.00    +0.166 A 
ATOM      9  O   LIG A   1      -5.035   5.773 119.263  0.00  0.00    -0.453 OA
ATOM     10  C   LIG A   1      -6.116   5.479 118.352  0.00  0.00    +0.466 C 
ATOM     11  O   LIG A   1      -7.089   4.564 118.897  0.00  0.00    -0.453 OA
ATOM     12  C   LIG A   1      -6.574   4.347 120.138  0.00  0.00    +0.167 A 
ATOM     13  C   LIG A   1      -7.122   3.538 121.110  0.00  0.00    +0.060 A 
ENDBRANCH   4   5
ENDBRANCH   1   4
BRANCH   1  14
ATOM     14  C   LIG A   1      -5.980   2.227 125.693  0.00  0.00    +0.001 C 
ATOM     15  C   LIG A   1      -5.313   3.155 126.723  0.00  0.00    +0.008 C 
BRANCH  14  16
ATOM     16  C   LIG A   1      -6.645   1.017 126.388  0.00  0.00    +0.039 C 
BRANCH  16  17
ATOM     17  C   LIG A   1      -6.513  -0.319 125.702  0.00  0.00    -0.043 A 
ATOM     18  C   LIG A   1      -5.262  -0.731 125.248  0.00  0.00    +0.007 A 
ATOM     19  C   LIG A   1      -5.093  -1.999 124.699  0.00  0.00    +0.050 A 
ATOM     20  C   LIG A   1      -6.169  -2.887 124.563  0.00  0.00    +0.162 A 
ATOM     21  C   LIG A   1      -7.440  -2.484 125.015  0.00  0.00    +0.162 A 
ATOM     22  C   LIG A   1      -7.595  -1.201 125.577  0.00  0.00    +0.053 A 
BRANCH  20  23
ATOM     23  O   LIG A   1      -6.021  -4.127 123.999  0.00  0.00    -0.491 OA
ATOM     24  C   LIG A   1      -4.696  -4.602 123.791  0.00  0.00    +0.277 C 
ENDBRANCH  20  23
BRANCH  21  25
ATOM     25  O   LIG A   1      -8.616  -3.192 125.001  0.00  0.00    -0.491 OA
ATOM     26  C   LIG A   1      -9.324  -3.309 123.775  0.00  0.00    +0.277 C 
ENDBRANCH  21  25
ENDBRANCH  16  17
ENDBRANCH  14  16
ENDBRANCH   1  14
TORSDOF 7
ENDMDL
MODEL 8
REMARK VINA RESULT:      -6.9      2.630      5.681
REMARK  Name = NuBBE_1666
REMARK  11 active torsions:
REMARK  status: ('A' for Active; 'I' for Inactive)
REMARK    1  A    between atoms: C_2  and  C_3
REMARK    2  A    between atoms: C_2  and  C_12
REMARK    3  A    between atoms: C_12  and  C_14
REMARK    4  A    between atoms: C_12  and  C_15
REMARK    5  A    between atoms: C_15  and  C_17
REMARK    6  A    between atoms: C_15  and  C_18
REMARK    7  A    between atoms: C_18  and  C_19
REMARK    8  A    between atoms: C_22  and  O_23
REMARK    9  A    between atoms: O_23  and  C_24
REMARK   10  A    between atoms: C_25  and  O_26
REMARK   11  A    between atoms: O_26  and  C_27
REMARK                            x       y       z     vdW  Elec       q    Type
REMARK                         _______ _______ _______ _____ _____    ______ ____
ROOT
ATOM      1  C   LIG A   1      -6.800  -3.366 129.634  0.00  0.00    +0.060 C 
ATOM      2  C   LIG A   1      -5.567  -4.048 130.238  0.00  0.00    +0.016 C 
ENDROOT
BRANCH   1   4
ATOM      3  O   LIG A   1      -5.186  -2.245 128.218  0.00  0.00    -0.292 OA
ATOM      4  C   LIG A   1      -6.338  -2.668 128.353  0.00  0.00    +0.166 C 
BRANCH   4   5
ATOM      5  C   LIG A   1      -7.266  -2.581 127.185  0.00  0.00    +0.021 A 
ATOM      6  C   LIG A   1      -8.574  -3.110 127.222  0.00  0.00    +0.015 A 
ATOM      7  C   LIG A   1      -9.413  -3.012 126.103  0.00  0.00    +0.050 A 
ATOM      8  C   LIG A   1      -8.920  -2.387 124.980  0.00  0.00    +0.166 A 
ATOM      9  O   LIG A   1      -9.592  -2.204 123.813  0.00  0.00    -0.453 OA
ATOM     10  C   LIG A   1      -8.592  -1.521 123.026  0.00  0.00    +0.466 C 
ATOM     11  O   LIG A   1      -7.361  -1.291 123.743  0.00  0.00    -0.453 OA
ATOM     12  C   LIG A   1      -7.649  -1.864 124.943  0.00  0.00    +0.167 A 
ATOM     13  C   LIG A   1      -6.801  -1.939 126.027  0.00  0.00    +0.060 A 
ENDBRANCH   4   5
ENDBRANCH   1   4
BRANCH   1  14
ATOM     14  C   LIG A   1      -7.496  -2.377 130.621  0.00  0.00    +0.001 C 
ATOM     15  C   LIG A   1      -7.454  -2.944 132.051  0.00  0.00    +0.008 C 
BRANCH  14  16
ATOM     16  C   LIG A   1      -6.826  -0.986 130.558  0.00  0.00    +0.039 C 
BRANCH  16  17
ATOM     17  C   LIG A   1      -7.729   0.194 130.297  0.00  0.00    -0.043 A 
ATOM     18  C   LIG A   1      -8.353   0.822 131.372  0.00  0.00    +0.007 A 
ATOM     19  C   LIG A   1      -9.114   1.972 131.172  0.00  0.00    +0.050 A 
ATOM     20  C   LIG A   1      -9.295   2.516 129.893  0.00  0.00    +0.162 A 
ATOM     21  C   LIG A   1      -8.672   1.889 128.797  0.00  0.00    +0.162 A 
ATOM     22  C   LIG A   1      -7.898   0.732 129.015  0.00  0.00    +0.053 A 
BRANCH  20  23
ATOM     23  O   LIG A   1     -10.065   3.630 129.679  0.00  0.00    -0.491 OA
ATOM     24  C   LIG A   1     -10.187   4.561 130.748  0.00  0.00    +0.277 C 
ENDBRANCH  20  23
BRANCH  21  25
ATOM     25  O   LIG A   1      -8.695   2.258 127.475  0.00  0.00    -0.491 OA
ATOM     26  C   LIG A   1      -8.796   1.242 126.487  0.00  0.00    +0.277 C 
ENDBRANCH  21  25
ENDBRANCH  16  17
ENDBRANCH  14  16
ENDBRANCH   1  14
TORSDOF 7
ENDMDL
MODEL 9
REMARK VINA RESULT:      -6.8      5.029      9.136
REMARK  Name = NuBBE_1666
REMARK  11 active torsions:
REMARK  status: ('A' for Active; 'I' for Inactive)
REMARK    1  A    between atoms: C_2  and  C_3
REMARK    2  A    between atoms: C_2  and  C_12
REMARK    3  A    between atoms: C_12  and  C_14
REMARK    4  A    between atoms: C_12  and  C_15
REMARK    5  A    between atoms: C_15  and  C_17
REMARK    6  A    between atoms: C_15  and  C_18
REMARK    7  A    between atoms: C_18  and  C_19
REMARK    8  A    between atoms: C_22  and  O_23
REMARK    9  A    between atoms: O_23  and  C_24
REMARK   10  A    between atoms: C_25  and  O_26
REMARK   11  A    between atoms: O_26  and  C_27
REMARK                            x       y       z     vdW  Elec       q    Type
REMARK                         _______ _______ _______ _____ _____    ______ ____
ROOT
ATOM      1  C   LIG A   1      -7.956   4.923 132.026  0.00  0.00    +0.060 C 
ATOM      2  C   LIG A   1      -6.603   5.431 132.536  0.00  0.00    +0.016 C 
ENDROOT
BRANCH   1   4
ATOM      3  O   LIG A   1      -9.028   6.365 133.650  0.00  0.00    -0.292 OA
ATOM      4  C   LIG A   1      -9.013   5.924 132.496  0.00  0.00    +0.166 C 
BRANCH   4   5
ATOM      5  C   LIG A   1      -9.998   6.472 131.516  0.00  0.00    +0.021 A 
ATOM      6  C   LIG A   1     -11.389   6.462 131.759  0.00  0.00    +0.015 A 
ATOM      7  C   LIG A   1     -12.281   6.981 130.812  0.00  0.00    +0.050 A 
ATOM      8  C   LIG A   1     -11.758   7.497 129.647  0.00  0.00    +0.166 A 
ATOM      9  O   LIG A   1     -12.472   8.039 128.626  0.00  0.00    -0.453 OA
ATOM     10  C   LIG A   1     -11.414   8.385 127.707  0.00  0.00    +0.466 C 
ATOM     11  O   LIG A   1     -10.098   8.068 128.205  0.00  0.00    -0.453 OA
ATOM     12  C   LIG A   1     -10.403   7.516 129.410  0.00  0.00    +0.167 A 
ATOM     13  C   LIG A   1      -9.498   7.018 130.323  0.00  0.00    +0.060 A 
ENDBRANCH   4   5
ENDBRANCH   1   4
BRANCH   1  14
ATOM     14  C   LIG A   1      -8.278   3.469 132.495  0.00  0.00    +0.001 C 
ATOM     15  C   LIG A   1      -8.799   3.487 133.943  0.00  0.00    +0.008 C 
BRANCH  14  16
ATOM     16  C   LIG A   1      -9.303   2.807 131.546  0.00  0.00    +0.039 C 
BRANCH  16  17
ATOM     17  C   LIG A   1      -8.750   2.062 130.358  0.00  0.00    -0.043 A 
ATOM     18  C   LIG A   1      -8.252   0.773 130.535  0.00  0.00    +0.007 A 
ATOM     19  C   LIG A   1      -7.825   0.026 129.441  0.00  0.00    +0.050 A 
ATOM     20  C   LIG A   1      -7.857   0.548 128.140  0.00  0.00    +0.162 A 
ATOM     21  C   LIG A   1      -8.355   1.851 127.947  0.00  0.00    +0.162 A 
ATOM     22  C   LIG A   1      -8.792   2.592 129.062  0.00  0.00    +0.053 A 
BRANCH  20  23
ATOM     23  O   LIG A   1      -7.413  -0.168 127.059  0.00  0.00    -0.491 OA
ATOM     24  C   LIG A   1      -8.313  -1.098 126.469  0.00  0.00    +0.277 C 
ENDBRANCH  20  23
BRANCH  21  25
ATOM     25  O   LIG A   1      -8.496   2.545 126.771  0.00  0.00    -0.491 OA
ATOM     26  C   LIG A   1      -7.687   3.692 126.559  0.00  0.00    +0.277 C 
ENDBRANCH  21  25
ENDBRANCH  16  17
ENDBRANCH  14  16
ENDBRANCH   1  14
TORSDOF 7
ENDMDL
