MODEL 1
REMARK VINA RESULT:      -7.1      0.000      0.000
REMARK  Name = NuBBE_252
REMARK  8 active torsions:
REMARK  status: ('A' for Active; 'I' for Inactive)
REMARK    1  A    between atoms: C_5  and  O_7
REMARK    2  A    between atoms: C_8  and  C_10
REMARK    3  A    between atoms: C_13  and  C_14
REMARK    4  A    between atoms: C_20  and  C_21
REMARK    5  A    between atoms: C_21  and  C_22
REMARK    6  A    between atoms: C_21  and  C_23
REMARK    7  A    between atoms: C_23  and  O_24
REMARK    8  A    between atoms: C_27  and  C_28
REMARK                            x       y       z     vdW  Elec       q    Type
REMARK                         _______ _______ _______ _____ _____    ______ ____
ROOT
ATOM      1  C   LIG A   1      -6.449   2.086 125.193  0.00  0.00    +0.010 C 
ATOM      2  C   LIG A   1      -7.127   3.085 126.153  0.00  0.00    +0.094 C 
ATOM      3  C   LIG A   1      -8.157   3.728 125.232  0.00  0.00    +0.170 C 
ATOM      4  C   LIG A   1      -8.262   3.023 123.891  0.00  0.00    +0.184 C 
ATOM      5  C   LIG A   1      -7.516   1.705 124.142  0.00  0.00    +0.026 C 
ATOM      6  C   LIG A   1      -6.939   1.085 122.875  0.00  0.00    +0.011 C 
ATOM      7  O   LIG A   1      -8.825   4.724 125.503  0.00  0.00    -0.294 OA
ATOM      8  C   LIG A   1      -7.858   2.723 127.417  0.00  0.00    -0.001 C 
ATOM      9  C   LIG A   1      -8.487   1.600 127.811  0.00  0.00    -0.015 C 
ATOM     10  C   LIG A   1      -8.719   0.310 127.092  0.00  0.00    +0.058 C 
ATOM     11  C   LIG A   1      -7.526  -0.461 126.608  0.00  0.00    -0.060 C 
ATOM     12  C   LIG A   1      -7.624  -1.631 125.934  0.00  0.00    -0.065 C 
ATOM     13  C   LIG A   1      -6.276  -2.193 125.594  0.00  0.00    +0.032 C 
ATOM     14  C   LIG A   1      -5.372  -1.429 126.545  0.00  0.00    +0.015 C 
ATOM     15  C   LIG A   1      -6.074  -0.060 126.805  0.00  0.00    -0.010 C 
ATOM     16  C   LIG A   1      -5.671   0.340 128.239  0.00  0.00    +0.016 C 
ATOM     17  C   LIG A   1      -5.555   0.973 125.767  0.00  0.00    +0.016 C 
ENDROOT
BRANCH   4  18
ATOM     18  O   LIG A   1      -7.650   3.814 122.888  0.00  0.00    -0.384 OA
ATOM     19  H   LIG A   1      -8.295   4.507 122.650  0.00  0.00    +0.210 HD
ENDBRANCH   4  18
BRANCH   8  20
ATOM     20  C   LIG A   1      -7.883   3.821 128.446  0.00  0.00    +0.254 C 
ATOM     21  O   LIG A   1      -8.918   4.331 128.849  0.00  0.00    -0.296 OA
ENDBRANCH   8  20
BRANCH  12  22
ATOM     22  C   LIG A   1      -8.885  -2.365 125.524  0.00  0.00    +0.037 C 
ATOM     23  C   LIG A   1      -9.283  -3.368 126.610  0.00  0.00    +0.014 C 
BRANCH  22  24
ATOM     24  C   LIG A   1      -8.783  -3.089 124.165  0.00  0.00    +0.163 C 
BRANCH  24  25
ATOM     25  O   LIG A   1     -10.064  -3.355 123.606  0.00  0.00    -0.394 OA
ATOM     26  H   LIG A   1     -10.657  -3.614 124.331  0.00  0.00    +0.209 HD
ENDBRANCH  24  25
ENDBRANCH  22  24
ENDBRANCH  12  22
TORSDOF 5
ENDMDL
MODEL 2
REMARK VINA RESULT:      -7.0      2.428      5.067
REMARK  Name = NuBBE_252
REMARK  8 active torsions:
REMARK  status: ('A' for Active; 'I' for Inactive)
REMARK    1  A    between atoms: C_5  and  O_7
REMARK    2  A    between atoms: C_8  and  C_10
REMARK    3  A    between atoms: C_13  and  C_14
REMARK    4  A    between atoms: C_20  and  C_21
REMARK    5  A    between atoms: C_21  and  C_22
REMARK    6  A    between atoms: C_21  and  C_23
REMARK    7  A    between atoms: C_23  and  O_24
REMARK    8  A    between atoms: C_27  and  C_28
REMARK                            x       y       z     vdW  Elec       q    Type
REMARK                         _______ _______ _______ _____ _____    ______ ____
ROOT
ATOM      1  C   LIG A   1      -8.612  -0.254 125.735  0.00  0.00    +0.010 C 
ATOM      2  C   LIG A   1      -7.858  -0.227 124.390  0.00  0.00    +0.094 C 
ATOM      3  C   LIG A   1      -7.221   1.157 124.435  0.00  0.00    +0.170 C 
ATOM      4  C   LIG A   1      -7.376   1.827 125.789  0.00  0.00    +0.184 C 
ATOM      5  C   LIG A   1      -7.822   0.668 126.692  0.00  0.00    +0.026 C 
ATOM      6  C   LIG A   1      -8.620   1.121 127.909  0.00  0.00    +0.011 C 
ATOM      7  O   LIG A   1      -6.661   1.710 123.491  0.00  0.00    -0.294 OA
ATOM      8  C   LIG A   1      -6.768  -1.180 123.980  0.00  0.00    -0.001 C 
ATOM      9  C   LIG A   1      -5.896  -1.920 124.691  0.00  0.00    -0.015 C 
ATOM     10  C   LIG A   1      -5.676  -2.018 126.166  0.00  0.00    +0.058 C 
ATOM     11  C   LIG A   1      -6.827  -2.440 127.032  0.00  0.00    -0.060 C 
ATOM     12  C   LIG A   1      -6.740  -2.546 128.379  0.00  0.00    -0.065 C 
ATOM     13  C   LIG A   1      -8.030  -3.010 128.985  0.00  0.00    +0.032 C 
ATOM     14  C   LIG A   1      -8.748  -3.591 127.781  0.00  0.00    +0.015 C 
ATOM     15  C   LIG A   1      -8.214  -2.811 126.540  0.00  0.00    -0.010 C 
ATOM     16  C   LIG A   1      -8.272  -3.815 125.370  0.00  0.00    +0.016 C 
ATOM     17  C   LIG A   1      -9.141  -1.593 126.279  0.00  0.00    +0.016 C 
ENDROOT
BRANCH   4  18
ATOM     18  O   LIG A   1      -8.347   2.855 125.702  0.00  0.00    -0.384 OA
ATOM     19  H   LIG A   1      -7.949   3.566 125.164  0.00  0.00    +0.210 HD
ENDBRANCH   4  18
BRANCH   8  20
ATOM     20  C   LIG A   1      -6.631  -1.351 122.491  0.00  0.00    +0.254 C 
ATOM     21  O   LIG A   1      -5.833  -2.122 121.981  0.00  0.00    -0.296 OA
ENDBRANCH   8  20
BRANCH  12  22
ATOM     22  C   LIG A   1      -5.541  -2.256 129.259  0.00  0.00    +0.037 C 
ATOM     23  C   LIG A   1      -5.551  -3.181 130.479  0.00  0.00    +0.014 C 
BRANCH  22  24
ATOM     24  C   LIG A   1      -5.436  -0.789 129.724  0.00  0.00    +0.163 C 
BRANCH  24  25
ATOM     25  O   LIG A   1      -4.595  -0.018 128.873  0.00  0.00    -0.394 OA
ATOM     26  H   LIG A   1      -4.581   0.892 129.213  0.00  0.00    +0.209 HD
ENDBRANCH  24  25
ENDBRANCH  22  24
ENDBRANCH  12  22
TORSDOF 5
ENDMDL
MODEL 3
REMARK VINA RESULT:      -7.0      1.830      2.069
REMARK  Name = NuBBE_252
REMARK  8 active torsions:
REMARK  status: ('A' for Active; 'I' for Inactive)
REMARK    1  A    between atoms: C_5  and  O_7
REMARK    2  A    between atoms: C_8  and  C_10
REMARK    3  A    between atoms: C_13  and  C_14
REMARK    4  A    between atoms: C_20  and  C_21
REMARK    5  A    between atoms: C_21  and  C_22
REMARK    6  A    between atoms: C_21  and  C_23
REMARK    7  A    between atoms: C_23  and  O_24
REMARK    8  A    between atoms: C_27  and  C_28
REMARK                            x       y       z     vdW  Elec       q    Type
REMARK                         _______ _______ _______ _____ _____    ______ ____
ROOT
ATOM      1  C   LIG A   1      -6.169   2.778 126.033  0.00  0.00    +0.010 C 
ATOM      2  C   LIG A   1      -6.893   3.177 127.335  0.00  0.00    +0.094 C 
ATOM      3  C   LIG A   1      -7.756   4.337 126.850  0.00  0.00    +0.170 C 
ATOM      4  C   LIG A   1      -7.740   4.484 125.339  0.00  0.00    +0.184 C 
ATOM      5  C   LIG A   1      -7.121   3.157 124.876  0.00  0.00    +0.026 C 
ATOM      6  C   LIG A   1      -6.433   3.252 123.518  0.00  0.00    +0.011 C 
ATOM      7  O   LIG A   1      -8.384   5.104 127.576  0.00  0.00    -0.294 OA
ATOM      8  C   LIG A   1      -7.799   2.286 128.141  0.00  0.00    -0.001 C 
ATOM      9  C   LIG A   1      -8.545   1.215 127.810  0.00  0.00    -0.015 C 
ATOM     10  C   LIG A   1      -8.772   0.556 126.488  0.00  0.00    +0.058 C 
ATOM     11  C   LIG A   1      -7.582   0.026 125.742  0.00  0.00    -0.060 C 
ATOM     12  C   LIG A   1      -7.674  -0.574 124.532  0.00  0.00    -0.065 C 
ATOM     13  C   LIG A   1      -6.335  -1.026 124.032  0.00  0.00    +0.032 C 
ATOM     14  C   LIG A   1      -5.507  -1.014 125.305  0.00  0.00    +0.015 C 
ATOM     15  C   LIG A   1      -6.143   0.074 126.225  0.00  0.00    -0.010 C 
ATOM     16  C   LIG A   1      -5.895  -0.414 127.666  0.00  0.00    +0.016 C 
ATOM     17  C   LIG A   1      -5.431   1.429 125.962  0.00  0.00    +0.016 C 
ENDROOT
BRANCH   4  18
ATOM     18  O   LIG A   1      -6.956   5.607 124.978  0.00  0.00    -0.384 OA
ATOM     19  H   LIG A   1      -6.100   5.257 124.663  0.00  0.00    +0.210 HD
ENDBRANCH   4  18
BRANCH   8  20
ATOM     20  C   LIG A   1      -7.878   2.650 129.598  0.00  0.00    +0.254 C 
ATOM     21  O   LIG A   1      -8.928   2.929 130.158  0.00  0.00    -0.296 OA
ENDBRANCH   8  20
BRANCH  12  22
ATOM     22  C   LIG A   1      -8.920  -0.809 123.702  0.00  0.00    +0.037 C 
ATOM     23  C   LIG A   1      -8.688  -1.964 122.724  0.00  0.00    +0.014 C 
BRANCH  22  24
ATOM     24  C   LIG A   1      -9.409   0.433 122.928  0.00  0.00    +0.163 C 
BRANCH  24  25
ATOM     25  O   LIG A   1     -10.783   0.331 122.571  0.00  0.00    -0.394 OA
ATOM     26  H   LIG A   1     -11.137  -0.476 122.981  0.00  0.00    +0.209 HD
ENDBRANCH  24  25
ENDBRANCH  22  24
ENDBRANCH  12  22
TORSDOF 5
ENDMDL
MODEL 4
REMARK VINA RESULT:      -6.9      2.463      5.280
REMARK  Name = NuBBE_252
REMARK  8 active torsions:
REMARK  status: ('A' for Active; 'I' for Inactive)
REMARK    1  A    between atoms: C_5  and  O_7
REMARK    2  A    between atoms: C_8  and  C_10
REMARK    3  A    between atoms: C_13  and  C_14
REMARK    4  A    between atoms: C_20  and  C_21
REMARK    5  A    between atoms: C_21  and  C_22
REMARK    6  A    between atoms: C_21  and  C_23
REMARK    7  A    between atoms: C_23  and  O_24
REMARK    8  A    between atoms: C_27  and  C_28
REMARK                            x       y       z     vdW  Elec       q    Type
REMARK                         _______ _______ _______ _____ _____    ______ ____
ROOT
ATOM      1  C   LIG A   1      -5.591  -1.310 126.634  0.00  0.00    +0.010 C 
ATOM      2  C   LIG A   1      -6.459  -2.033 127.685  0.00  0.00    +0.094 C 
ATOM      3  C   LIG A   1      -6.448  -1.020 128.824  0.00  0.00    +0.170 C 
ATOM      4  C   LIG A   1      -5.826   0.306 128.421  0.00  0.00    +0.184 C 
ATOM      5  C   LIG A   1      -5.773   0.203 126.890  0.00  0.00    +0.026 C 
ATOM      6  C   LIG A   1      -4.685   1.069 126.263  0.00  0.00    +0.011 C 
ATOM      7  O   LIG A   1      -6.862  -1.230 129.962  0.00  0.00    -0.294 OA
ATOM      8  C   LIG A   1      -7.894  -2.444 127.499  0.00  0.00    -0.001 C 
ATOM      9  C   LIG A   1      -8.877  -1.974 126.708  0.00  0.00    -0.015 C 
ATOM     10  C   LIG A   1      -8.893  -0.826 125.751  0.00  0.00    +0.058 C 
ATOM     11  C   LIG A   1      -7.907  -0.827 124.620  0.00  0.00    -0.060 C 
ATOM     12  C   LIG A   1      -7.826   0.169 123.708  0.00  0.00    -0.065 C 
ATOM     13  C   LIG A   1      -6.770  -0.103 122.678  0.00  0.00    +0.032 C 
ATOM     14  C   LIG A   1      -6.549  -1.595 122.847  0.00  0.00    +0.015 C 
ATOM     15  C   LIG A   1      -6.890  -1.919 124.334  0.00  0.00    -0.010 C 
ATOM     16  C   LIG A   1      -7.431  -3.363 124.325  0.00  0.00    +0.016 C 
ATOM     17  C   LIG A   1      -5.591  -1.812 125.179  0.00  0.00    +0.016 C 
ENDROOT
BRANCH   4  18
ATOM     18  O   LIG A   1      -4.541   0.426 129.005  0.00  0.00    -0.384 OA
ATOM     19  H   LIG A   1      -4.623   0.098 129.921  0.00  0.00    +0.210 HD
ENDBRANCH   4  18
BRANCH   8  20
ATOM     20  C   LIG A   1      -8.312  -3.612 128.352  0.00  0.00    +0.254 C 
ATOM     21  O   LIG A   1      -9.297  -4.293 128.110  0.00  0.00    -0.296 OA
ENDBRANCH   8  20
BRANCH  12  22
ATOM     22  C   LIG A   1      -8.648   1.441 123.643  0.00  0.00    +0.037 C 
ATOM     23  C   LIG A   1      -9.866   1.231 122.739  0.00  0.00    +0.014 C 
BRANCH  22  24
ATOM     24  C   LIG A   1      -7.861   2.681 123.170  0.00  0.00    +0.163 C 
BRANCH  24  25
ATOM     25  O   LIG A   1      -8.656   3.539 122.359  0.00  0.00    -0.394 OA
ATOM     26  H   LIG A   1      -8.093   4.272 122.061  0.00  0.00    +0.209 HD
ENDBRANCH  24  25
ENDBRANCH  22  24
ENDBRANCH  12  22
TORSDOF 5
ENDMDL
MODEL 5
REMARK VINA RESULT:      -6.6      1.912      5.420
REMARK  Name = NuBBE_252
REMARK  8 active torsions:
REMARK  status: ('A' for Active; 'I' for Inactive)
REMARK    1  A    between atoms: C_5  and  O_7
REMARK    2  A    between atoms: C_8  and  C_10
REMARK    3  A    between atoms: C_13  and  C_14
REMARK    4  A    between atoms: C_20  and  C_21
REMARK    5  A    between atoms: C_21  and  C_22
REMARK    6  A    between atoms: C_21  and  C_23
REMARK    7  A    between atoms: C_23  and  O_24
REMARK    8  A    between atoms: C_27  and  C_28
REMARK                            x       y       z     vdW  Elec       q    Type
REMARK                         _______ _______ _______ _____ _____    ______ ____
ROOT
ATOM      1  C   LIG A   1      -9.316   0.253 125.447  0.00  0.00    +0.010 C 
ATOM      2  C   LIG A   1      -8.806  -1.195 125.610  0.00  0.00    +0.094 C 
ATOM      3  C   LIG A   1      -8.739  -1.649 124.156  0.00  0.00    +0.170 C 
ATOM      4  C   LIG A   1      -8.962  -0.509 123.177  0.00  0.00    +0.184 C 
ATOM      5  C   LIG A   1      -8.817   0.734 124.066  0.00  0.00    +0.026 C 
ATOM      6  C   LIG A   1      -9.563   1.951 123.532  0.00  0.00    +0.011 C 
ATOM      7  O   LIG A   1      -8.556  -2.806 123.784  0.00  0.00    -0.294 OA
ATOM      8  C   LIG A   1      -7.500  -1.596 126.238  0.00  0.00    -0.001 C 
ATOM      9  C   LIG A   1      -6.330  -0.948 126.390  0.00  0.00    -0.015 C 
ATOM     10  C   LIG A   1      -5.902   0.410 125.935  0.00  0.00    +0.058 C 
ATOM     11  C   LIG A   1      -6.686   1.600 126.407  0.00  0.00    -0.060 C 
ATOM     12  C   LIG A   1      -6.394   2.871 126.044  0.00  0.00    -0.065 C 
ATOM     13  C   LIG A   1      -7.324   3.860 126.680  0.00  0.00    +0.032 C 
ATOM     14  C   LIG A   1      -7.917   3.043 127.814  0.00  0.00    +0.015 C 
ATOM     15  C   LIG A   1      -7.882   1.556 127.342  0.00  0.00    -0.010 C 
ATOM     16  C   LIG A   1      -7.706   0.723 128.628  0.00  0.00    +0.016 C 
ATOM     17  C   LIG A   1      -9.226   1.223 126.638  0.00  0.00    +0.016 C 
ENDROOT
BRANCH   4  18
ATOM     18  O   LIG A   1     -10.251  -0.621 122.602  0.00  0.00    -0.384 OA
ATOM     19  H   LIG A   1     -10.688   0.242 122.734  0.00  0.00    +0.210 HD
ENDBRANCH   4  18
BRANCH   8  20
ATOM     20  C   LIG A   1      -7.501  -2.984 126.820  0.00  0.00    +0.254 C 
ATOM     21  O   LIG A   1      -8.492  -3.493 127.323  0.00  0.00    -0.296 OA
ENDBRANCH   8  20
BRANCH  12  22
ATOM     22  C   LIG A   1      -5.291   3.343 125.118  0.00  0.00    +0.037 C 
ATOM     23  C   LIG A   1      -4.084   3.810 125.937  0.00  0.00    +0.014 C 
BRANCH  22  24
ATOM     24  C   LIG A   1      -5.717   4.461 124.144  0.00  0.00    +0.163 C 
BRANCH  24  25
ATOM     25  O   LIG A   1      -6.662   4.000 123.184  0.00  0.00    -0.394 OA
ATOM     26  H   LIG A   1      -7.084   3.201 123.543  0.00  0.00    +0.209 HD
ENDBRANCH  24  25
ENDBRANCH  22  24
ENDBRANCH  12  22
TORSDOF 5
ENDMDL
MODEL 6
REMARK VINA RESULT:      -6.5      2.366      5.209
REMARK  Name = NuBBE_252
REMARK  8 active torsions:
REMARK  status: ('A' for Active; 'I' for Inactive)
REMARK    1  A    between atoms: C_5  and  O_7
REMARK    2  A    between atoms: C_8  and  C_10
REMARK    3  A    between atoms: C_13  and  C_14
REMARK    4  A    between atoms: C_20  and  C_21
REMARK    5  A    between atoms: C_21  and  C_22
REMARK    6  A    between atoms: C_21  and  C_23
REMARK    7  A    between atoms: C_23  and  O_24
REMARK    8  A    between atoms: C_27  and  C_28
REMARK                            x       y       z     vdW  Elec       q    Type
REMARK                         _______ _______ _______ _____ _____    ______ ____
ROOT
ATOM      1  C   LIG A   1      -6.900  -0.909 124.539  0.00  0.00    +0.010 C 
ATOM      2  C   LIG A   1      -8.187  -0.785 123.698  0.00  0.00    +0.094 C 
ATOM      3  C   LIG A   1      -8.833  -2.144 123.942  0.00  0.00    +0.170 C 
ATOM      4  C   LIG A   1      -8.123  -2.942 125.022  0.00  0.00    +0.184 C 
ATOM      5  C   LIG A   1      -7.228  -1.888 125.690  0.00  0.00    +0.026 C 
ATOM      6  C   LIG A   1      -5.997  -2.479 126.366  0.00  0.00    +0.011 C 
ATOM      7  O   LIG A   1      -9.802  -2.588 123.330  0.00  0.00    -0.294 OA
ATOM      8  C   LIG A   1      -9.270   0.239 123.904  0.00  0.00    -0.001 C 
ATOM      9  C   LIG A   1      -9.661   0.940 124.985  0.00  0.00    -0.015 C 
ATOM     10  C   LIG A   1      -9.172   0.908 126.397  0.00  0.00    +0.058 C 
ATOM     11  C   LIG A   1      -7.725   1.208 126.657  0.00  0.00    -0.060 C 
ATOM     12  C   LIG A   1      -7.176   1.191 127.894  0.00  0.00    -0.065 C 
ATOM     13  C   LIG A   1      -5.721   1.552 127.863  0.00  0.00    +0.032 C 
ATOM     14  C   LIG A   1      -5.595   2.218 126.504  0.00  0.00    +0.015 C 
ATOM     15  C   LIG A   1      -6.695   1.575 125.604  0.00  0.00    -0.010 C 
ATOM     16  C   LIG A   1      -7.106   2.680 124.610  0.00  0.00    +0.016 C 
ATOM     17  C   LIG A   1      -6.083   0.354 124.863  0.00  0.00    +0.016 C 
ENDROOT
BRANCH   4  18
ATOM     18  O   LIG A   1      -7.379  -3.991 124.427  0.00  0.00    -0.384 OA
ATOM     19  H   LIG A   1      -7.254  -4.668 125.119  0.00  0.00    +0.210 HD
ENDBRANCH   4  18
BRANCH   8  20
ATOM     20  C   LIG A   1     -10.062   0.551 122.663  0.00  0.00    +0.254 C 
ATOM     21  O   LIG A   1     -11.283   0.529 122.631  0.00  0.00    -0.296 OA
ENDBRANCH   8  20
BRANCH  12  22
ATOM     22  C   LIG A   1      -7.855   0.863 129.209  0.00  0.00    +0.037 C 
ATOM     23  C   LIG A   1      -7.372   1.821 130.302  0.00  0.00    +0.014 C 
BRANCH  22  24
ATOM     24  C   LIG A   1      -7.659  -0.594 129.677  0.00  0.00    +0.163 C 
BRANCH  24  25
ATOM     25  O   LIG A   1      -8.377  -0.871 130.874  0.00  0.00    -0.394 OA
ATOM     26  H   LIG A   1      -8.568  -1.823 130.892  0.00  0.00    +0.209 HD
ENDBRANCH  24  25
ENDBRANCH  22  24
ENDBRANCH  12  22
TORSDOF 5
ENDMDL
MODEL 7
REMARK VINA RESULT:      -6.4      6.229      8.892
REMARK  Name = NuBBE_252
REMARK  8 active torsions:
REMARK  status: ('A' for Active; 'I' for Inactive)
REMARK    1  A    between atoms: C_5  and  O_7
REMARK    2  A    between atoms: C_8  and  C_10
REMARK    3  A    between atoms: C_13  and  C_14
REMARK    4  A    between atoms: C_20  and  C_21
REMARK    5  A    between atoms: C_21  and  C_22
REMARK    6  A    between atoms: C_21  and  C_23
REMARK    7  A    between atoms: C_23  and  O_24
REMARK    8  A    between atoms: C_27  and  C_28
REMARK                            x       y       z     vdW  Elec       q    Type
REMARK                         _______ _______ _______ _____ _____    ______ ____
ROOT
ATOM      1  C   LIG A   1      -4.824   5.977 132.859  0.00  0.00    +0.010 C 
ATOM      2  C   LIG A   1      -4.883   4.787 133.840  0.00  0.00    +0.094 C 
ATOM      3  C   LIG A   1      -6.347   4.379 133.721  0.00  0.00    +0.170 C 
ATOM      4  C   LIG A   1      -7.066   5.102 132.595  0.00  0.00    +0.184 C 
ATOM      5  C   LIG A   1      -5.908   5.710 131.790  0.00  0.00    +0.026 C 
ATOM      6  C   LIG A   1      -6.307   6.949 130.997  0.00  0.00    +0.011 C 
ATOM      7  O   LIG A   1      -6.921   3.579 134.457  0.00  0.00    -0.294 OA
ATOM      8  C   LIG A   1      -4.081   3.519 133.725  0.00  0.00    -0.001 C 
ATOM      9  C   LIG A   1      -3.523   2.891 132.673  0.00  0.00    -0.015 C 
ATOM     10  C   LIG A   1      -3.547   3.223 131.215  0.00  0.00    +0.058 C 
ATOM     11  C   LIG A   1      -3.009   4.553 130.778  0.00  0.00    -0.060 C 
ATOM     12  C   LIG A   1      -2.997   4.959 129.487  0.00  0.00    -0.065 C 
ATOM     13  C   LIG A   1      -2.381   6.318 129.335  0.00  0.00    +0.032 C 
ATOM     14  C   LIG A   1      -1.629   6.466 130.646  0.00  0.00    +0.015 C 
ATOM     15  C   LIG A   1      -2.406   5.607 131.691  0.00  0.00    -0.010 C 
ATOM     16  C   LIG A   1      -1.338   5.110 132.686  0.00  0.00    +0.016 C 
ATOM     17  C   LIG A   1      -3.455   6.508 132.398  0.00  0.00    +0.016 C 
ENDROOT
BRANCH   4  18
ATOM     18  O   LIG A   1      -7.930   6.085 133.135  0.00  0.00    -0.384 OA
ATOM     19  H   LIG A   1      -7.500   6.415 133.948  0.00  0.00    +0.210 HD
ENDBRANCH   4  18
BRANCH   8  20
ATOM     20  C   LIG A   1      -3.846   2.822 135.038  0.00  0.00    +0.254 C 
ATOM     21  O   LIG A   1      -3.774   3.418 136.103  0.00  0.00    -0.296 OA
ENDBRANCH   8  20
BRANCH  12  22
ATOM     22  C   LIG A   1      -3.514   4.214 128.273  0.00  0.00    +0.037 C 
ATOM     23  C   LIG A   1      -2.343   3.782 127.385  0.00  0.00    +0.014 C 
BRANCH  22  24
ATOM     24  C   LIG A   1      -4.535   5.006 127.430  0.00  0.00    +0.163 C 
BRANCH  24  25
ATOM     25  O   LIG A   1      -5.828   5.009 128.025  0.00  0.00    -0.394 OA
ATOM     26  H   LIG A   1      -5.966   4.141 128.441  0.00  0.00    +0.209 HD
ENDBRANCH  24  25
ENDBRANCH  22  24
ENDBRANCH  12  22
TORSDOF 5
ENDMDL
MODEL 8
REMARK VINA RESULT:      -6.4      2.195      5.761
REMARK  Name = NuBBE_252
REMARK  8 active torsions:
REMARK  status: ('A' for Active; 'I' for Inactive)
REMARK    1  A    between atoms: C_5  and  O_7
REMARK    2  A    between atoms: C_8  and  C_10
REMARK    3  A    between atoms: C_13  and  C_14
REMARK    4  A    between atoms: C_20  and  C_21
REMARK    5  A    between atoms: C_21  and  C_22
REMARK    6  A    between atoms: C_21  and  C_23
REMARK    7  A    between atoms: C_23  and  O_24
REMARK    8  A    between atoms: C_27  and  C_28
REMARK                            x       y       z     vdW  Elec       q    Type
REMARK                         _______ _______ _______ _____ _____    ______ ____
ROOT
ATOM      1  C   LIG A   1      -8.582  -1.497 125.429  0.00  0.00    +0.010 C 
ATOM      2  C   LIG A   1      -7.670  -2.310 124.487  0.00  0.00    +0.094 C 
ATOM      3  C   LIG A   1      -7.974  -1.657 123.144  0.00  0.00    +0.170 C 
ATOM      4  C   LIG A   1      -8.818  -0.402 123.284  0.00  0.00    +0.184 C 
ATOM      5  C   LIG A   1      -8.730  -0.099 124.787  0.00  0.00    +0.026 C 
ATOM      6  C   LIG A   1      -9.918   0.698 125.314  0.00  0.00    +0.011 C 
ATOM      7  O   LIG A   1      -7.616  -2.087 122.050  0.00  0.00    -0.294 OA
ATOM      8  C   LIG A   1      -6.171  -2.400 124.583  0.00  0.00    -0.001 C 
ATOM      9  C   LIG A   1      -5.245  -1.571 125.102  0.00  0.00    -0.015 C 
ATOM     10  C   LIG A   1      -5.387  -0.225 125.736  0.00  0.00    +0.058 C 
ATOM     11  C   LIG A   1      -6.262  -0.097 126.948  0.00  0.00    -0.060 C 
ATOM     12  C   LIG A   1      -6.471   1.077 127.590  0.00  0.00    -0.065 C 
ATOM     13  C   LIG A   1      -7.366   0.909 128.781  0.00  0.00    +0.032 C 
ATOM     14  C   LIG A   1      -7.294  -0.589 129.015  0.00  0.00    +0.015 C 
ATOM     15  C   LIG A   1      -7.011  -1.233 127.623  0.00  0.00    -0.010 C 
ATOM     16  C   LIG A   1      -6.190  -2.504 127.919  0.00  0.00    +0.016 C 
ATOM     17  C   LIG A   1      -8.367  -1.585 126.951  0.00  0.00    +0.016 C 
ENDROOT
BRANCH   4  18
ATOM     18  O   LIG A   1     -10.142  -0.668 122.858  0.00  0.00    -0.384 OA
ATOM     19  H   LIG A   1     -10.728  -0.405 123.593  0.00  0.00    +0.210 HD
ENDBRANCH   4  18
BRANCH   8  20
ATOM     20  C   LIG A   1      -5.594  -3.661 124.000  0.00  0.00    +0.254 C 
ATOM     21  O   LIG A   1      -4.462  -4.050 124.245  0.00  0.00    -0.296 OA
ENDBRANCH   8  20
BRANCH  12  22
ATOM     22  C   LIG A   1      -5.920   2.443 127.233  0.00  0.00    +0.037 C 
ATOM     23  C   LIG A   1      -4.675   2.741 128.073  0.00  0.00    +0.014 C 
BRANCH  22  24
ATOM     24  C   LIG A   1      -6.935   3.595 127.386  0.00  0.00    +0.163 C 
BRANCH  24  25
ATOM     25  O   LIG A   1      -6.395   4.686 128.123  0.00  0.00    -0.394 OA
ATOM     26  H   LIG A   1      -5.595   4.371 128.578  0.00  0.00    +0.209 HD
ENDBRANCH  24  25
ENDBRANCH  22  24
ENDBRANCH  12  22
TORSDOF 5
ENDMDL
MODEL 9
REMARK VINA RESULT:      -6.3      3.324      5.105
REMARK  Name = NuBBE_252
REMARK  8 active torsions:
REMARK  status: ('A' for Active; 'I' for Inactive)
REMARK    1  A    between atoms: C_5  and  O_7
REMARK    2  A    between atoms: C_8  and  C_10
REMARK    3  A    between atoms: C_13  and  C_14
REMARK    4  A    between atoms: C_20  and  C_21
REMARK    5  A    between atoms: C_21  and  C_22
REMARK    6  A    between atoms: C_21  and  C_23
REMARK    7  A    between atoms: C_23  and  O_24
REMARK    8  A    between atoms: C_27  and  C_28
REMARK                            x       y       z     vdW  Elec       q    Type
REMARK                         _______ _______ _______ _____ _____    ______ ____
ROOT
ATOM      1  C   LIG A   1      -6.406  -0.028 129.838  0.00  0.00    +0.010 C 
ATOM      2  C   LIG A   1      -6.852  -0.612 131.195  0.00  0.00    +0.094 C 
ATOM      3  C   LIG A   1      -8.083   0.237 131.492  0.00  0.00    +0.170 C 
ATOM      4  C   LIG A   1      -8.492   1.103 130.314  0.00  0.00    +0.184 C 
ATOM      5  C   LIG A   1      -7.686   0.501 129.154  0.00  0.00    +0.026 C 
ATOM      6  C   LIG A   1      -7.417   1.490 128.025  0.00  0.00    +0.011 C 
ATOM      7  O   LIG A   1      -8.683   0.263 132.564  0.00  0.00    -0.294 OA
ATOM      8  C   LIG A   1      -7.254  -2.040 131.443  0.00  0.00    -0.001 C 
ATOM      9  C   LIG A   1      -7.752  -2.994 130.634  0.00  0.00    -0.015 C 
ATOM     10  C   LIG A   1      -8.127  -2.949 129.188  0.00  0.00    +0.058 C 
ATOM     11  C   LIG A   1      -7.072  -2.575 128.189  0.00  0.00    -0.060 C 
ATOM     12  C   LIG A   1      -7.308  -2.489 126.859  0.00  0.00    -0.065 C 
ATOM     13  C   LIG A   1      -6.071  -2.121 126.096  0.00  0.00    +0.032 C 
ATOM     14  C   LIG A   1      -4.980  -2.440 127.102  0.00  0.00    +0.015 C 
ATOM     15  C   LIG A   1      -5.622  -2.258 128.511  0.00  0.00    -0.010 C 
ATOM     16  C   LIG A   1      -4.895  -3.266 129.425  0.00  0.00    +0.016 C 
ATOM     17  C   LIG A   1      -5.383  -0.798 128.985  0.00  0.00    +0.016 C 
ENDROOT
BRANCH   4  18
ATOM     18  O   LIG A   1      -8.150   2.453 130.573  0.00  0.00    -0.384 OA
ATOM     19  H   LIG A   1      -7.516   2.715 129.878  0.00  0.00    +0.210 HD
ENDBRANCH   4  18
BRANCH   8  20
ATOM     20  C   LIG A   1      -7.051  -2.496 132.862  0.00  0.00    +0.254 C 
ATOM     21  O   LIG A   1      -7.974  -2.828 133.592  0.00  0.00    -0.296 OA
ENDBRANCH   8  20
BRANCH  12  22
ATOM     22  C   LIG A   1      -8.618  -2.714 126.130  0.00  0.00    +0.037 C 
ATOM     23  C   LIG A   1      -8.417  -3.718 124.991  0.00  0.00    +0.014 C 
BRANCH  22  24
ATOM     24  C   LIG A   1      -9.265  -1.428 125.577  0.00  0.00    +0.163 C 
BRANCH  24  25
ATOM     25  O   LIG A   1      -9.464  -1.494 124.169  0.00  0.00    -0.394 OA
ATOM     26  H   LIG A   1      -9.866  -0.656 123.886  0.00  0.00    +0.209 HD
ENDBRANCH  24  25
ENDBRANCH  22  24
ENDBRANCH  12  22
TORSDOF 5
ENDMDL
