MODEL 1
REMARK VINA RESULT:      -7.6      0.000      0.000
REMARK  Name = NuBBE_1631
REMARK  12 active torsions:
REMARK  status: ('A' for Active; 'I' for Inactive)
REMARK    1  A    between atoms: C_1  and  C_2
REMARK    2  A    between atoms: C_1  and  C_16
REMARK    3  A    between atoms: C_3  and  C_4
REMARK    4  A    between atoms: C_3  and  C_15
REMARK    5  A    between atoms: C_4  and  C_5
REMARK    6  A    between atoms: C_5  and  C_6
REMARK    7  A    between atoms: C_7  and  C_8
REMARK    8  A    between atoms: C_7  and  C_14
REMARK    9  A    between atoms: C_8  and  C_9
REMARK   10  A    between atoms: C_9  and  C_10
REMARK   11  A    between atoms: C_11  and  C_12
REMARK   12  A    between atoms: C_11  and  C_13
REMARK                            x       y       z     vdW  Elec       q    Type
REMARK                         _______ _______ _______ _____ _____    ______ ____
ROOT
ATOM      1  C   LIG A   1      -9.171  -1.895 125.264  0.00  0.00    -0.027 C 
ATOM      2  C   LIG A   1      -8.848  -3.149 125.641  0.00  0.00    -0.076 C 
ATOM      3  C   LIG A   1      -8.211  -4.180 124.750  0.00  0.00    +0.038 C 
ENDROOT
BRANCH   1   4
ATOM      4  C   LIG A   1      -9.041  -1.286 123.901  0.00  0.00    +0.042 C 
BRANCH   4   5
ATOM      5  C   LIG A   1      -8.761   0.240 123.921  0.00  0.00    +0.050 C 
ATOM      6  C   LIG A   1      -7.360   0.566 123.397  0.00  0.00    +0.064 C 
ATOM      7  C   LIG A   1      -7.212   2.081 123.412  0.00  0.00    +0.201 C 
ATOM      8  O   LIG A   1      -7.351   2.620 124.736  0.00  0.00    -0.457 OA
ATOM      9  C   LIG A   1      -8.353   2.213 125.556  0.00  0.00    +0.309 C 
ATOM     10  O   LIG A   1      -8.696   2.875 126.502  0.00  0.00    -0.251 OA
ATOM     11  C   LIG A   1      -8.892   0.811 125.336  0.00  0.00    +0.135 C 
ATOM     12  C   LIG A   1      -8.256   2.736 122.553  0.00  0.00    +0.020 C 
ATOM     13  C   LIG A   1      -9.460   2.189 122.346  0.00  0.00    +0.046 C 
ATOM     14  C   LIG A   1      -9.815   0.913 123.024  0.00  0.00    +0.163 C 
ATOM     15  O   LIG A   1     -10.953   0.476 122.886  0.00  0.00    -0.292 OA
ENDBRANCH   4   5
ENDBRANCH   1   4
BRANCH   2  16
ATOM     16  C   LIG A   1      -9.147  -3.661 127.025  0.00  0.00    +0.034 C 
BRANCH  16  17
ATOM     17  C   LIG A   1      -8.375  -2.951 128.127  0.00  0.00    +0.031 C 
BRANCH  17  18
ATOM     18  C   LIG A   1      -7.477  -1.927 127.550  0.00  0.00    -0.027 C 
ATOM     19  C   LIG A   1      -6.143  -1.774 127.641  0.00  0.00    -0.076 C 
ATOM     20  C   LIG A   1      -5.293  -2.649 128.527  0.00  0.00    +0.038 C 
BRANCH  19  21
ATOM     21  C   LIG A   1      -5.368  -0.684 126.898  0.00  0.00    +0.034 C 
BRANCH  21  22
ATOM     22  C   LIG A   1      -5.233  -0.820 125.366  0.00  0.00    +0.031 C 
BRANCH  22  23
ATOM     23  C   LIG A   1      -4.783  -2.185 124.912  0.00  0.00    -0.028 C 
ATOM     24  C   LIG A   1      -5.057  -2.871 123.798  0.00  0.00    -0.080 C 
ATOM     25  C   LIG A   1      -5.755  -2.300 122.616  0.00  0.00    +0.038 C 
ATOM     26  C   LIG A   1      -4.620  -4.310 123.701  0.00  0.00    +0.038 C 
ENDBRANCH  22  23
ENDBRANCH  21  22
ENDBRANCH  19  21
ENDBRANCH  17  18
ENDBRANCH  16  17
ENDBRANCH   2  16
TORSDOF 8
ENDMDL
MODEL 2
REMARK VINA RESULT:      -7.5      2.498      6.348
REMARK  Name = NuBBE_1631
REMARK  12 active torsions:
REMARK  status: ('A' for Active; 'I' for Inactive)
REMARK    1  A    between atoms: C_1  and  C_2
REMARK    2  A    between atoms: C_1  and  C_16
REMARK    3  A    between atoms: C_3  and  C_4
REMARK    4  A    between atoms: C_3  and  C_15
REMARK    5  A    between atoms: C_4  and  C_5
REMARK    6  A    between atoms: C_5  and  C_6
REMARK    7  A    between atoms: C_7  and  C_8
REMARK    8  A    between atoms: C_7  and  C_14
REMARK    9  A    between atoms: C_8  and  C_9
REMARK   10  A    between atoms: C_9  and  C_10
REMARK   11  A    between atoms: C_11  and  C_12
REMARK   12  A    between atoms: C_11  and  C_13
REMARK                            x       y       z     vdW  Elec       q    Type
REMARK                         _______ _______ _______ _____ _____    ______ ____
ROOT
ATOM      1  C   LIG A   1      -5.891   1.113 125.888  0.00  0.00    -0.027 C 
ATOM      2  C   LIG A   1      -5.886   2.409 126.262  0.00  0.00    -0.076 C 
ATOM      3  C   LIG A   1      -6.964   3.078 127.070  0.00  0.00    +0.038 C 
ENDROOT
BRANCH   1   4
ATOM      4  C   LIG A   1      -6.967   0.097 126.120  0.00  0.00    +0.042 C 
BRANCH   4   5
ATOM      5  C   LIG A   1      -7.046  -0.994 125.020  0.00  0.00    +0.050 C 
ATOM      6  C   LIG A   1      -6.729  -0.426 123.634  0.00  0.00    +0.064 C 
ATOM      7  C   LIG A   1      -6.784  -1.584 122.647  0.00  0.00    +0.201 C 
ATOM      8  O   LIG A   1      -8.081  -2.198 122.613  0.00  0.00    -0.457 OA
ATOM      9  C   LIG A   1      -8.747  -2.493 123.758  0.00  0.00    +0.309 C 
ATOM     10  O   LIG A   1      -9.643  -3.297 123.772  0.00  0.00    -0.251 OA
ATOM     11  C   LIG A   1      -8.435  -1.636 124.972  0.00  0.00    +0.135 C 
ATOM     12  C   LIG A   1      -5.795  -2.653 123.011  0.00  0.00    +0.020 C 
ATOM     13  C   LIG A   1      -5.413  -2.877 124.274  0.00  0.00    +0.046 C 
ATOM     14  C   LIG A   1      -6.017  -2.083 125.377  0.00  0.00    +0.163 C 
ATOM     15  O   LIG A   1      -5.715  -2.363 126.532  0.00  0.00    -0.292 OA
ENDBRANCH   4   5
ENDBRANCH   1   4
BRANCH   2  16
ATOM     16  C   LIG A   1      -4.781   3.346 125.852  0.00  0.00    +0.034 C 
BRANCH  16  17
ATOM     17  C   LIG A   1      -5.241   4.497 124.970  0.00  0.00    +0.031 C 
BRANCH  17  18
ATOM     18  C   LIG A   1      -6.020   3.985 123.821  0.00  0.00    -0.027 C 
ATOM     19  C   LIG A   1      -5.736   3.957 122.506  0.00  0.00    -0.076 C 
ATOM     20  C   LIG A   1      -4.503   4.611 121.937  0.00  0.00    +0.038 C 
BRANCH  19  21
ATOM     21  C   LIG A   1      -6.645   3.306 121.462  0.00  0.00    +0.034 C 
BRANCH  21  22
ATOM     22  C   LIG A   1      -8.140   3.692 121.474  0.00  0.00    +0.031 C 
BRANCH  22  23
ATOM     23  C   LIG A   1      -9.072   2.520 121.642  0.00  0.00    -0.028 C 
ATOM     24  C   LIG A   1      -9.470   1.869 122.740  0.00  0.00    -0.080 C 
ATOM     25  C   LIG A   1      -9.203   2.332 124.128  0.00  0.00    +0.038 C 
ATOM     26  C   LIG A   1     -10.263   0.596 122.587  0.00  0.00    +0.038 C 
ENDBRANCH  22  23
ENDBRANCH  21  22
ENDBRANCH  19  21
ENDBRANCH  17  18
ENDBRANCH  16  17
ENDBRANCH   2  16
TORSDOF 8
ENDMDL
MODEL 3
REMARK VINA RESULT:      -7.4      4.860      8.272
REMARK  Name = NuBBE_1631
REMARK  12 active torsions:
REMARK  status: ('A' for Active; 'I' for Inactive)
REMARK    1  A    between atoms: C_1  and  C_2
REMARK    2  A    between atoms: C_1  and  C_16
REMARK    3  A    between atoms: C_3  and  C_4
REMARK    4  A    between atoms: C_3  and  C_15
REMARK    5  A    between atoms: C_4  and  C_5
REMARK    6  A    between atoms: C_5  and  C_6
REMARK    7  A    between atoms: C_7  and  C_8
REMARK    8  A    between atoms: C_7  and  C_14
REMARK    9  A    between atoms: C_8  and  C_9
REMARK   10  A    between atoms: C_9  and  C_10
REMARK   11  A    between atoms: C_11  and  C_12
REMARK   12  A    between atoms: C_11  and  C_13
REMARK                            x       y       z     vdW  Elec       q    Type
REMARK                         _______ _______ _______ _____ _____    ______ ____
ROOT
ATOM      1  C   LIG A   1      -5.670  -3.651 130.261  0.00  0.00    -0.027 C 
ATOM      2  C   LIG A   1      -4.820  -3.277 129.283  0.00  0.00    -0.076 C 
ATOM      3  C   LIG A   1      -3.342  -3.558 129.270  0.00  0.00    +0.038 C 
ENDROOT
BRANCH   1   4
ATOM      4  C   LIG A   1      -5.338  -4.343 131.547  0.00  0.00    +0.042 C 
BRANCH   4   5
ATOM      5  C   LIG A   1      -6.036  -3.726 132.788  0.00  0.00    +0.050 C 
ATOM      6  C   LIG A   1      -7.429  -3.191 132.448  0.00  0.00    +0.064 C 
ATOM      7  C   LIG A   1      -8.038  -2.660 133.738  0.00  0.00    +0.201 C 
ATOM      8  O   LIG A   1      -7.256  -1.596 134.301  0.00  0.00    -0.457 OA
ATOM      9  C   LIG A   1      -5.906  -1.694 134.397  0.00  0.00    +0.309 C 
ATOM     10  O   LIG A   1      -5.279  -1.000 135.156  0.00  0.00    -0.251 OA
ATOM     11  C   LIG A   1      -5.209  -2.580 133.379  0.00  0.00    +0.135 C 
ATOM     12  C   LIG A   1      -8.135  -3.740 134.776  0.00  0.00    +0.020 C 
ATOM     13  C   LIG A   1      -7.280  -4.770 134.821  0.00  0.00    +0.046 C 
ATOM     14  C   LIG A   1      -6.157  -4.837 133.848  0.00  0.00    +0.163 C 
ATOM     15  O   LIG A   1      -5.339  -5.744 133.962  0.00  0.00    -0.292 OA
ENDBRANCH   4   5
ENDBRANCH   1   4
BRANCH   2  16
ATOM     16  C   LIG A   1      -5.284  -2.478 128.094  0.00  0.00    +0.034 C 
BRANCH  16  17
ATOM     17  C   LIG A   1      -6.600  -1.747 128.315  0.00  0.00    +0.031 C 
BRANCH  17  18
ATOM     18  C   LIG A   1      -7.493  -1.932 127.151  0.00  0.00    -0.027 C 
ATOM     19  C   LIG A   1      -8.490  -2.811 126.936  0.00  0.00    -0.076 C 
ATOM     20  C   LIG A   1      -8.801  -3.924 127.904  0.00  0.00    +0.038 C 
BRANCH  19  21
ATOM     21  C   LIG A   1      -9.368  -2.798 125.684  0.00  0.00    +0.034 C 
BRANCH  21  22
ATOM     22  C   LIG A   1      -8.819  -3.490 124.417  0.00  0.00    +0.031 C 
BRANCH  22  23
ATOM     23  C   LIG A   1      -7.340  -3.773 124.469  0.00  0.00    -0.028 C 
ATOM     24  C   LIG A   1      -6.306  -3.128 123.920  0.00  0.00    -0.080 C 
ATOM     25  C   LIG A   1      -6.406  -1.797 123.263  0.00  0.00    +0.038 C 
ATOM     26  C   LIG A   1      -4.938  -3.757 123.980  0.00  0.00    +0.038 C 
ENDBRANCH  22  23
ENDBRANCH  21  22
ENDBRANCH  19  21
ENDBRANCH  17  18
ENDBRANCH  16  17
ENDBRANCH   2  16
TORSDOF 8
ENDMDL
MODEL 4
REMARK VINA RESULT:      -7.3      2.009      4.182
REMARK  Name = NuBBE_1631
REMARK  12 active torsions:
REMARK  status: ('A' for Active; 'I' for Inactive)
REMARK    1  A    between atoms: C_1  and  C_2
REMARK    2  A    between atoms: C_1  and  C_16
REMARK    3  A    between atoms: C_3  and  C_4
REMARK    4  A    between atoms: C_3  and  C_15
REMARK    5  A    between atoms: C_4  and  C_5
REMARK    6  A    between atoms: C_5  and  C_6
REMARK    7  A    between atoms: C_7  and  C_8
REMARK    8  A    between atoms: C_7  and  C_14
REMARK    9  A    between atoms: C_8  and  C_9
REMARK   10  A    between atoms: C_9  and  C_10
REMARK   11  A    between atoms: C_11  and  C_12
REMARK   12  A    between atoms: C_11  and  C_13
REMARK                            x       y       z     vdW  Elec       q    Type
REMARK                         _______ _______ _______ _____ _____    ______ ____
ROOT
ATOM      1  C   LIG A   1      -6.902   0.088 123.277  0.00  0.00    -0.027 C 
ATOM      2  C   LIG A   1      -7.123  -1.220 123.036  0.00  0.00    -0.076 C 
ATOM      3  C   LIG A   1      -8.474  -1.837 122.793  0.00  0.00    +0.038 C 
ENDROOT
BRANCH   1   4
ATOM      4  C   LIG A   1      -7.921   1.177 123.425  0.00  0.00    +0.042 C 
BRANCH   4   5
ATOM      5  C   LIG A   1      -7.347   2.497 124.006  0.00  0.00    +0.050 C 
ATOM      6  C   LIG A   1      -6.238   2.232 125.027  0.00  0.00    +0.064 C 
ATOM      7  C   LIG A   1      -5.716   3.586 125.489  0.00  0.00    +0.201 C 
ATOM      8  O   LIG A   1      -6.744   4.373 126.111  0.00  0.00    -0.457 OA
ATOM      9  C   LIG A   1      -7.976   4.483 125.552  0.00  0.00    +0.309 C 
ATOM     10  O   LIG A   1      -8.719   5.383 125.848  0.00  0.00    -0.251 OA
ATOM     11  C   LIG A   1      -8.440   3.328 124.683  0.00  0.00    +0.135 C 
ATOM     12  C   LIG A   1      -5.182   4.383 124.335  0.00  0.00    +0.020 C 
ATOM     13  C   LIG A   1      -5.651   4.243 123.089  0.00  0.00    +0.046 C 
ATOM     14  C   LIG A   1      -6.778   3.308 122.827  0.00  0.00    +0.163 C 
ATOM     15  O   LIG A   1      -7.246   3.260 121.695  0.00  0.00    -0.292 OA
ENDBRANCH   4   5
ENDBRANCH   1   4
BRANCH   2  16
ATOM     16  C   LIG A   1      -6.002  -2.224 123.032  0.00  0.00    +0.034 C 
BRANCH  16  17
ATOM     17  C   LIG A   1      -6.045  -3.206 124.192  0.00  0.00    +0.031 C 
BRANCH  17  18
ATOM     18  C   LIG A   1      -5.866  -2.495 125.477  0.00  0.00    -0.027 C 
ATOM     19  C   LIG A   1      -6.718  -2.294 126.499  0.00  0.00    -0.076 C 
ATOM     20  C   LIG A   1      -8.165  -2.711 126.433  0.00  0.00    +0.038 C 
BRANCH  19  21
ATOM     21  C   LIG A   1      -6.322  -1.591 127.799  0.00  0.00    +0.034 C 
BRANCH  21  22
ATOM     22  C   LIG A   1      -7.439  -1.303 128.826  0.00  0.00    +0.031 C 
BRANCH  22  23
ATOM     23  C   LIG A   1      -7.666   0.165 129.085  0.00  0.00    -0.028 C 
ATOM     24  C   LIG A   1      -8.196   1.118 128.313  0.00  0.00    -0.080 C 
ATOM     25  C   LIG A   1      -8.894   0.858 127.025  0.00  0.00    +0.038 C 
ATOM     26  C   LIG A   1      -8.115   2.554 128.766  0.00  0.00    +0.038 C 
ENDBRANCH  22  23
ENDBRANCH  21  22
ENDBRANCH  19  21
ENDBRANCH  17  18
ENDBRANCH  16  17
ENDBRANCH   2  16
TORSDOF 8
ENDMDL
MODEL 5
REMARK VINA RESULT:      -7.1      2.457      5.697
REMARK  Name = NuBBE_1631
REMARK  12 active torsions:
REMARK  status: ('A' for Active; 'I' for Inactive)
REMARK    1  A    between atoms: C_1  and  C_2
REMARK    2  A    between atoms: C_1  and  C_16
REMARK    3  A    between atoms: C_3  and  C_4
REMARK    4  A    between atoms: C_3  and  C_15
REMARK    5  A    between atoms: C_4  and  C_5
REMARK    6  A    between atoms: C_5  and  C_6
REMARK    7  A    between atoms: C_7  and  C_8
REMARK    8  A    between atoms: C_7  and  C_14
REMARK    9  A    between atoms: C_8  and  C_9
REMARK   10  A    between atoms: C_9  and  C_10
REMARK   11  A    between atoms: C_11  and  C_12
REMARK   12  A    between atoms: C_11  and  C_13
REMARK                            x       y       z     vdW  Elec       q    Type
REMARK                         _______ _______ _______ _____ _____    ______ ____
ROOT
ATOM      1  C   LIG A   1      -5.391   0.131 125.756  0.00  0.00    -0.027 C 
ATOM      2  C   LIG A   1      -5.372   0.580 127.027  0.00  0.00    -0.076 C 
ATOM      3  C   LIG A   1      -5.542  -0.280 128.249  0.00  0.00    +0.038 C 
ENDROOT
BRANCH   1   4
ATOM      4  C   LIG A   1      -5.651  -1.267 125.283  0.00  0.00    +0.042 C 
BRANCH   4   5
ATOM      5  C   LIG A   1      -7.045  -1.458 124.630  0.00  0.00    +0.050 C 
ATOM      6  C   LIG A   1      -6.932  -1.866 123.159  0.00  0.00    +0.064 C 
ATOM      7  C   LIG A   1      -8.347  -2.075 122.637  0.00  0.00    +0.201 C 
ATOM      8  O   LIG A   1      -9.134  -0.878 122.729  0.00  0.00    -0.457 OA
ATOM      9  C   LIG A   1      -9.131  -0.122 123.856  0.00  0.00    +0.309 C 
ATOM     10  O   LIG A   1     -10.015   0.662 124.087  0.00  0.00    -0.251 OA
ATOM     11  C   LIG A   1      -7.878  -0.176 124.713  0.00  0.00    +0.135 C 
ATOM     12  C   LIG A   1      -9.061  -3.139 123.419  0.00  0.00    +0.020 C 
ATOM     13  C   LIG A   1      -8.785  -3.391 124.704  0.00  0.00    +0.046 C 
ATOM     14  C   LIG A   1      -7.773  -2.565 125.416  0.00  0.00    +0.163 C 
ATOM     15  O   LIG A   1      -7.598  -2.759 126.614  0.00  0.00    -0.292 OA
ENDBRANCH   4   5
ENDBRANCH   1   4
BRANCH   2  16
ATOM     16  C   LIG A   1      -5.216   2.043 127.347  0.00  0.00    +0.034 C 
BRANCH  16  17
ATOM     17  C   LIG A   1      -6.516   2.831 127.293  0.00  0.00    +0.031 C 
BRANCH  17  18
ATOM     18  C   LIG A   1      -7.074   2.811 125.923  0.00  0.00    -0.027 C 
ATOM     19  C   LIG A   1      -6.908   3.660 124.892  0.00  0.00    -0.076 C 
ATOM     20  C   LIG A   1      -6.139   4.949 125.029  0.00  0.00    +0.038 C 
BRANCH  19  21
ATOM     21  C   LIG A   1      -7.511   3.429 123.505  0.00  0.00    +0.034 C 
BRANCH  21  22
ATOM     22  C   LIG A   1      -6.650   2.677 122.466  0.00  0.00    +0.031 C 
BRANCH  22  23
ATOM     23  C   LIG A   1      -6.380   3.467 121.211  0.00  0.00    -0.028 C 
ATOM     24  C   LIG A   1      -5.465   4.404 120.946  0.00  0.00    -0.080 C 
ATOM     25  C   LIG A   1      -4.326   4.736 121.843  0.00  0.00    +0.038 C 
ATOM     26  C   LIG A   1      -5.558   5.169 119.651  0.00  0.00    +0.038 C 
ENDBRANCH  22  23
ENDBRANCH  21  22
ENDBRANCH  19  21
ENDBRANCH  17  18
ENDBRANCH  16  17
ENDBRANCH   2  16
TORSDOF 8
ENDMDL
MODEL 6
REMARK VINA RESULT:      -7.0      3.966      6.271
REMARK  Name = NuBBE_1631
REMARK  12 active torsions:
REMARK  status: ('A' for Active; 'I' for Inactive)
REMARK    1  A    between atoms: C_1  and  C_2
REMARK    2  A    between atoms: C_1  and  C_16
REMARK    3  A    between atoms: C_3  and  C_4
REMARK    4  A    between atoms: C_3  and  C_15
REMARK    5  A    between atoms: C_4  and  C_5
REMARK    6  A    between atoms: C_5  and  C_6
REMARK    7  A    between atoms: C_7  and  C_8
REMARK    8  A    between atoms: C_7  and  C_14
REMARK    9  A    between atoms: C_8  and  C_9
REMARK   10  A    between atoms: C_9  and  C_10
REMARK   11  A    between atoms: C_11  and  C_12
REMARK   12  A    between atoms: C_11  and  C_13
REMARK                            x       y       z     vdW  Elec       q    Type
REMARK                         _______ _______ _______ _____ _____    ______ ____
ROOT
ATOM      1  C   LIG A   1      -6.864  -0.816 129.939  0.00  0.00    -0.027 C 
ATOM      2  C   LIG A   1      -7.153  -2.134 129.931  0.00  0.00    -0.076 C 
ATOM      3  C   LIG A   1      -7.321  -2.987 131.158  0.00  0.00    +0.038 C 
ENDROOT
BRANCH   1   4
ATOM      4  C   LIG A   1      -6.582   0.052 131.127  0.00  0.00    +0.042 C 
BRANCH   4   5
ATOM      5  C   LIG A   1      -7.632   1.173 131.347  0.00  0.00    +0.050 C 
ATOM      6  C   LIG A   1      -8.973   0.608 131.823  0.00  0.00    +0.064 C 
ATOM      7  C   LIG A   1      -9.906   1.789 132.055  0.00  0.00    +0.201 C 
ATOM      8  O   LIG A   1     -10.120   2.546 130.854  0.00  0.00    -0.457 OA
ATOM      9  C   LIG A   1      -9.084   2.886 130.046  0.00  0.00    +0.309 C 
ATOM     10  O   LIG A   1      -9.179   3.786 129.251  0.00  0.00    -0.251 OA
ATOM     11  C   LIG A   1      -7.873   1.969 130.061  0.00  0.00    +0.135 C 
ATOM     12  C   LIG A   1      -9.343   2.730 133.080  0.00  0.00    +0.020 C 
ATOM     13  C   LIG A   1      -8.026   2.877 133.272  0.00  0.00    +0.046 C 
ATOM     14  C   LIG A   1      -7.069   2.129 132.415  0.00  0.00    +0.163 C 
ATOM     15  O   LIG A   1      -5.870   2.344 132.553  0.00  0.00    -0.292 OA
ENDBRANCH   4   5
ENDBRANCH   1   4
BRANCH   2  16
ATOM     16  C   LIG A   1      -7.296  -2.904 128.646  0.00  0.00    +0.034 C 
BRANCH  16  17
ATOM     17  C   LIG A   1      -8.680  -3.498 128.431  0.00  0.00    +0.031 C 
BRANCH  17  18
ATOM     18  C   LIG A   1      -8.950  -3.663 126.986  0.00  0.00    -0.027 C 
ATOM     19  C   LIG A   1      -9.059  -2.753 126.000  0.00  0.00    -0.076 C 
ATOM     20  C   LIG A   1      -9.027  -1.270 126.269  0.00  0.00    +0.038 C 
BRANCH  19  21
ATOM     21  C   LIG A   1      -9.266  -3.124 124.530  0.00  0.00    +0.034 C 
BRANCH  21  22
ATOM     22  C   LIG A   1      -8.188  -2.673 123.520  0.00  0.00    +0.031 C 
BRANCH  22  23
ATOM     23  C   LIG A   1      -6.879  -3.408 123.657  0.00  0.00    -0.028 C 
ATOM     24  C   LIG A   1      -5.705  -3.016 124.160  0.00  0.00    -0.080 C 
ATOM     25  C   LIG A   1      -5.499  -1.752 124.915  0.00  0.00    +0.038 C 
ATOM     26  C   LIG A   1      -4.502  -3.908 123.985  0.00  0.00    +0.038 C 
ENDBRANCH  22  23
ENDBRANCH  21  22
ENDBRANCH  19  21
ENDBRANCH  17  18
ENDBRANCH  16  17
ENDBRANCH   2  16
TORSDOF 8
ENDMDL
MODEL 7
REMARK VINA RESULT:      -7.0      1.666      3.161
REMARK  Name = NuBBE_1631
REMARK  12 active torsions:
REMARK  status: ('A' for Active; 'I' for Inactive)
REMARK    1  A    between atoms: C_1  and  C_2
REMARK    2  A    between atoms: C_1  and  C_16
REMARK    3  A    between atoms: C_3  and  C_4
REMARK    4  A    between atoms: C_3  and  C_15
REMARK    5  A    between atoms: C_4  and  C_5
REMARK    6  A    between atoms: C_5  and  C_6
REMARK    7  A    between atoms: C_7  and  C_8
REMARK    8  A    between atoms: C_7  and  C_14
REMARK    9  A    between atoms: C_8  and  C_9
REMARK   10  A    between atoms: C_9  and  C_10
REMARK   11  A    between atoms: C_11  and  C_12
REMARK   12  A    between atoms: C_11  and  C_13
REMARK                            x       y       z     vdW  Elec       q    Type
REMARK                         _______ _______ _______ _____ _____    ______ ____
ROOT
ATOM      1  C   LIG A   1      -7.488  -2.139 124.364  0.00  0.00    -0.027 C 
ATOM      2  C   LIG A   1      -8.373  -3.141 124.547  0.00  0.00    -0.076 C 
ATOM      3  C   LIG A   1      -9.456  -3.524 123.576  0.00  0.00    +0.038 C 
ENDROOT
BRANCH   1   4
ATOM      4  C   LIG A   1      -7.430  -1.166 123.226  0.00  0.00    +0.042 C 
BRANCH   4   5
ATOM      5  C   LIG A   1      -7.866   0.273 123.611  0.00  0.00    +0.050 C 
ATOM      6  C   LIG A   1      -6.819   1.312 123.202  0.00  0.00    +0.064 C 
ATOM      7  C   LIG A   1      -7.368   2.681 123.577  0.00  0.00    +0.201 C 
ATOM      8  O   LIG A   1      -7.609   2.793 124.988  0.00  0.00    -0.457 OA
ATOM      9  C   LIG A   1      -8.239   1.804 125.672  0.00  0.00    +0.309 C 
ATOM     10  O   LIG A   1      -8.752   2.011 126.742  0.00  0.00    -0.251 OA
ATOM     11  C   LIG A   1      -8.107   0.397 125.118  0.00  0.00    +0.135 C 
ATOM     12  C   LIG A   1      -8.670   2.951 122.880  0.00  0.00    +0.020 C 
ATOM     13  C   LIG A   1      -9.513   1.972 122.529  0.00  0.00    +0.046 C 
ATOM     14  C   LIG A   1      -9.191   0.563 122.880  0.00  0.00    +0.163 C 
ATOM     15  O   LIG A   1     -10.017  -0.306 122.624  0.00  0.00    -0.292 OA
ENDBRANCH   4   5
ENDBRANCH   1   4
BRANCH   2  16
ATOM     16  C   LIG A   1      -8.382  -3.968 125.806  0.00  0.00    +0.034 C 
BRANCH  16  17
ATOM     17  C   LIG A   1      -9.271  -3.409 126.906  0.00  0.00    +0.031 C 
BRANCH  17  18
ATOM     18  C   LIG A   1      -8.717  -3.746 128.236  0.00  0.00    -0.027 C 
ATOM     19  C   LIG A   1      -8.000  -3.009 129.105  0.00  0.00    -0.076 C 
ATOM     20  C   LIG A   1      -7.510  -1.624 128.769  0.00  0.00    +0.038 C 
BRANCH  19  21
ATOM     21  C   LIG A   1      -7.578  -3.511 130.487  0.00  0.00    +0.034 C 
BRANCH  21  22
ATOM     22  C   LIG A   1      -6.200  -3.063 131.021  0.00  0.00    +0.031 C 
BRANCH  22  23
ATOM     23  C   LIG A   1      -5.034  -3.717 130.325  0.00  0.00    -0.028 C 
ATOM     24  C   LIG A   1      -3.964  -3.188 129.725  0.00  0.00    -0.080 C 
ATOM     25  C   LIG A   1      -3.588  -1.751 129.803  0.00  0.00    +0.038 C 
ATOM     26  C   LIG A   1      -3.049  -4.088 128.934  0.00  0.00    +0.038 C 
ENDBRANCH  22  23
ENDBRANCH  21  22
ENDBRANCH  19  21
ENDBRANCH  17  18
ENDBRANCH  16  17
ENDBRANCH   2  16
TORSDOF 8
ENDMDL
MODEL 8
REMARK VINA RESULT:      -6.9      3.476      6.560
REMARK  Name = NuBBE_1631
REMARK  12 active torsions:
REMARK  status: ('A' for Active; 'I' for Inactive)
REMARK    1  A    between atoms: C_1  and  C_2
REMARK    2  A    between atoms: C_1  and  C_16
REMARK    3  A    between atoms: C_3  and  C_4
REMARK    4  A    between atoms: C_3  and  C_15
REMARK    5  A    between atoms: C_4  and  C_5
REMARK    6  A    between atoms: C_5  and  C_6
REMARK    7  A    between atoms: C_7  and  C_8
REMARK    8  A    between atoms: C_7  and  C_14
REMARK    9  A    between atoms: C_8  and  C_9
REMARK   10  A    between atoms: C_9  and  C_10
REMARK   11  A    between atoms: C_11  and  C_12
REMARK   12  A    between atoms: C_11  and  C_13
REMARK                            x       y       z     vdW  Elec       q    Type
REMARK                         _______ _______ _______ _____ _____    ______ ____
ROOT
ATOM      1  C   LIG A   1      -7.798  -2.284 128.179  0.00  0.00    -0.027 C 
ATOM      2  C   LIG A   1      -8.504  -3.331 127.705  0.00  0.00    -0.076 C 
ATOM      3  C   LIG A   1      -9.305  -4.284 128.550  0.00  0.00    +0.038 C 
ENDROOT
BRANCH   1   4
ATOM      4  C   LIG A   1      -7.596  -1.888 129.610  0.00  0.00    +0.042 C 
BRANCH   4   5
ATOM      5  C   LIG A   1      -6.219  -2.309 130.187  0.00  0.00    +0.050 C 
ATOM      6  C   LIG A   1      -5.166  -2.466 129.087  0.00  0.00    +0.064 C 
ATOM      7  C   LIG A   1      -3.852  -2.828 129.765  0.00  0.00    +0.201 C 
ATOM      8  O   LIG A   1      -3.948  -4.060 130.496  0.00  0.00    -0.457 OA
ATOM      9  C   LIG A   1      -5.008  -4.314 131.305  0.00  0.00    +0.309 C 
ATOM     10  O   LIG A   1      -4.949  -5.149 132.170  0.00  0.00    -0.251 OA
ATOM     11  C   LIG A   1      -6.318  -3.633 130.952  0.00  0.00    +0.135 C 
ATOM     12  C   LIG A   1      -3.434  -1.764 130.739  0.00  0.00    +0.020 C 
ATOM     13  C   LIG A   1      -4.320  -0.990 131.379  0.00  0.00    +0.046 C 
ATOM     14  C   LIG A   1      -5.776  -1.210 131.170  0.00  0.00    +0.163 C 
ATOM     15  O   LIG A   1      -6.567  -0.546 131.831  0.00  0.00    -0.292 OA
ENDBRANCH   4   5
ENDBRANCH   1   4
BRANCH   2  16
ATOM     16  C   LIG A   1      -8.520  -3.676 126.240  0.00  0.00    +0.034 C 
BRANCH  16  17
ATOM     17  C   LIG A   1      -9.693  -3.081 125.476  0.00  0.00    +0.031 C 
BRANCH  17  18
ATOM     18  C   LIG A   1      -9.210  -2.157 124.427  0.00  0.00    -0.027 C 
ATOM     19  C   LIG A   1      -8.929  -0.842 124.472  0.00  0.00    -0.076 C 
ATOM     20  C   LIG A   1      -9.199  -0.005 125.696  0.00  0.00    +0.038 C 
BRANCH  19  21
ATOM     21  C   LIG A   1      -8.355  -0.062 123.287  0.00  0.00    +0.034 C 
BRANCH  21  22
ATOM     22  C   LIG A   1      -6.826  -0.107 123.075  0.00  0.00    +0.031 C 
BRANCH  22  23
ATOM     23  C   LIG A   1      -6.252  -1.501 123.060  0.00  0.00    -0.028 C 
ATOM     24  C   LIG A   1      -5.580  -2.180 123.994  0.00  0.00    -0.080 C 
ATOM     25  C   LIG A   1      -5.424  -1.733 125.403  0.00  0.00    +0.038 C 
ATOM     26  C   LIG A   1      -4.952  -3.501 123.625  0.00  0.00    +0.038 C 
ENDBRANCH  22  23
ENDBRANCH  21  22
ENDBRANCH  19  21
ENDBRANCH  17  18
ENDBRANCH  16  17
ENDBRANCH   2  16
TORSDOF 8
ENDMDL
MODEL 9
REMARK VINA RESULT:      -6.9      1.896      3.894
REMARK  Name = NuBBE_1631
REMARK  12 active torsions:
REMARK  status: ('A' for Active; 'I' for Inactive)
REMARK    1  A    between atoms: C_1  and  C_2
REMARK    2  A    between atoms: C_1  and  C_16
REMARK    3  A    between atoms: C_3  and  C_4
REMARK    4  A    between atoms: C_3  and  C_15
REMARK    5  A    between atoms: C_4  and  C_5
REMARK    6  A    between atoms: C_5  and  C_6
REMARK    7  A    between atoms: C_7  and  C_8
REMARK    8  A    between atoms: C_7  and  C_14
REMARK    9  A    between atoms: C_8  and  C_9
REMARK   10  A    between atoms: C_9  and  C_10
REMARK   11  A    between atoms: C_11  and  C_12
REMARK   12  A    between atoms: C_11  and  C_13
REMARK                            x       y       z     vdW  Elec       q    Type
REMARK                         _______ _______ _______ _____ _____    ______ ____
ROOT
ATOM      1  C   LIG A   1      -7.613  -1.125 124.590  0.00  0.00    -0.027 C 
ATOM      2  C   LIG A   1      -7.075  -2.356 124.712  0.00  0.00    -0.076 C 
ATOM      3  C   LIG A   1      -5.654  -2.714 124.372  0.00  0.00    +0.038 C 
ENDROOT
BRANCH   1   4
ATOM      4  C   LIG A   1      -6.964   0.108 124.038  0.00  0.00    +0.042 C 
BRANCH   4   5
ATOM      5  C   LIG A   1      -6.683   1.199 125.105  0.00  0.00    +0.050 C 
ATOM      6  C   LIG A   1      -5.535   0.800 126.037  0.00  0.00    +0.064 C 
ATOM      7  C   LIG A   1      -5.313   1.955 127.003  0.00  0.00    +0.201 C 
ATOM      8  O   LIG A   1      -6.481   2.225 127.793  0.00  0.00    -0.457 OA
ATOM      9  C   LIG A   1      -7.713   2.286 127.225  0.00  0.00    +0.309 C 
ATOM     10  O   LIG A   1      -8.630   2.838 127.776  0.00  0.00    -0.251 OA
ATOM     11  C   LIG A   1      -7.924   1.474 125.959  0.00  0.00    +0.135 C 
ATOM     12  C   LIG A   1      -4.972   3.218 126.267  0.00  0.00    +0.020 C 
ATOM     13  C   LIG A   1      -5.410   3.466 125.027  0.00  0.00    +0.046 C 
ATOM     14  C   LIG A   1      -6.311   2.491 124.355  0.00  0.00    +0.163 C 
ATOM     15  O   LIG A   1      -6.766   2.780 123.254  0.00  0.00    -0.292 OA
ENDBRANCH   4   5
ENDBRANCH   1   4
BRANCH   2  16
ATOM     16  C   LIG A   1      -7.891  -3.533 125.177  0.00  0.00    +0.034 C 
BRANCH  16  17
ATOM     17  C   LIG A   1      -9.001  -3.170 126.151  0.00  0.00    +0.031 C 
BRANCH  17  18
ATOM     18  C   LIG A   1      -8.602  -3.506 127.535  0.00  0.00    -0.027 C 
ATOM     19  C   LIG A   1      -8.101  -2.736 128.519  0.00  0.00    -0.076 C 
ATOM     20  C   LIG A   1      -7.731  -1.292 128.298  0.00  0.00    +0.038 C 
BRANCH  19  21
ATOM     21  C   LIG A   1      -7.820  -3.253 129.931  0.00  0.00    +0.034 C 
BRANCH  21  22
ATOM     22  C   LIG A   1      -6.542  -4.093 130.144  0.00  0.00    +0.031 C 
BRANCH  22  23
ATOM     23  C   LIG A   1      -5.311  -3.270 130.429  0.00  0.00    -0.028 C 
ATOM     24  C   LIG A   1      -4.370  -2.792 129.609  0.00  0.00    -0.080 C 
ATOM     25  C   LIG A   1      -4.464  -2.816 128.125  0.00  0.00    +0.038 C 
ATOM     26  C   LIG A   1      -3.137  -2.162 130.203  0.00  0.00    +0.038 C 
ENDBRANCH  22  23
ENDBRANCH  21  22
ENDBRANCH  19  21
ENDBRANCH  17  18
ENDBRANCH  16  17
ENDBRANCH   2  16
TORSDOF 8
ENDMDL
