MODEL 1
REMARK VINA RESULT:      -7.0      0.000      0.000
REMARK  Name = NuBBE_2036
REMARK  9 active torsions:
REMARK  status: ('A' for Active; 'I' for Inactive)
REMARK    1  A    between atoms: C_1  and  C_2
REMARK    2  A    between atoms: C_1  and  C_14
REMARK    3  A    between atoms: C_2  and  C_3
REMARK    4  A    between atoms: C_3  and  C_4
REMARK    5  A    between atoms: C_5  and  O_6
REMARK    6  A    between atoms: O_6  and  C_7
REMARK    7  A    between atoms: C_9  and  O_13
REMARK    8  A    between atoms: C_10  and  C_12
REMARK    9  A    between atoms: C_19  and  O_20
REMARK                            x       y       z     vdW  Elec       q    Type
REMARK                         _______ _______ _______ _____ _____    ______ ____
ROOT
ATOM      1  C   LIG A   1      -9.394  -2.609 123.697  0.00  0.00    +0.010 C 
ENDROOT
BRANCH   1   2
ATOM      2  C   LIG A   1      -8.654  -1.690 122.717  0.00  0.00    +0.039 C 
BRANCH   2   3
ATOM      3  C   LIG A   1      -8.622  -0.252 123.171  0.00  0.00    -0.002 A 
ATOM      4  C   LIG A   1      -7.455   0.263 123.759  0.00  0.00    +0.056 A 
ATOM      5  C   LIG A   1      -7.447   1.586 124.152  0.00  0.00    +0.167 A 
ATOM      6  C   LIG A   1      -8.544   2.397 123.983  0.00  0.00    +0.170 A 
ATOM      7  C   LIG A   1      -9.710   1.932 123.417  0.00  0.00    +0.095 A 
ATOM      8  C   LIG A   1      -9.744   0.593 123.020  0.00  0.00    +0.124 A 
ATOM      9  O   LIG A   1      -8.330   3.664 124.433  0.00  0.00    -0.453 OA
ATOM     10  C   LIG A   1      -6.982   3.549 124.936  0.00  0.00    +0.466 C 
ATOM     11  O   LIG A   1      -6.403   2.243 124.722  0.00  0.00    -0.453 OA
BRANCH   8  12
ATOM     12  O   LIG A   1     -10.876   0.078 122.456  0.00  0.00    -0.506 OA
ATOM     13  H   LIG A   1     -10.952  -0.863 122.706  0.00  0.00    +0.292 HD
ENDBRANCH   8  12
ENDBRANCH   2   3
ENDBRANCH   1   2
BRANCH   1  14
ATOM     14  C   LIG A   1      -8.461  -3.652 124.336  0.00  0.00    +0.039 C 
BRANCH  14  15
ATOM     15  C   LIG A   1      -7.469  -3.064 125.323  0.00  0.00    -0.005 A 
ATOM     16  C   LIG A   1      -6.110  -2.882 124.998  0.00  0.00    +0.127 A 
ATOM     17  C   LIG A   1      -5.255  -2.271 125.922  0.00  0.00    +0.091 A 
ATOM     18  C   LIG A   1      -5.739  -1.869 127.167  0.00  0.00    +0.123 A 
ATOM     19  C   LIG A   1      -7.071  -2.072 127.527  0.00  0.00    -0.009 A 
ATOM     20  C   LIG A   1      -7.929  -2.665 126.593  0.00  0.00    +0.014 A 
ATOM     21  C   LIG A   1      -7.587  -1.631 128.864  0.00  0.00    +0.048 C 
BRANCH  16  22
ATOM     22  O   LIG A   1      -5.717  -3.328 123.762  0.00  0.00    -0.495 OA
ATOM     23  C   LIG A   1      -4.480  -4.025 123.674  0.00  0.00    +0.277 C 
ENDBRANCH  16  22
BRANCH  18  24
ATOM     24  O   LIG A   1      -4.905  -1.265 128.067  0.00  0.00    -0.506 OA
ATOM     25  H   LIG A   1      -5.278  -0.403 128.312  0.00  0.00    +0.292 HD
ENDBRANCH  18  24
ENDBRANCH  14  15
ENDBRANCH   1  14
TORSDOF 7
ENDMDL
MODEL 2
REMARK VINA RESULT:      -6.9      7.221     10.039
REMARK  Name = NuBBE_2036
REMARK  9 active torsions:
REMARK  status: ('A' for Active; 'I' for Inactive)
REMARK    1  A    between atoms: C_1  and  C_2
REMARK    2  A    between atoms: C_1  and  C_14
REMARK    3  A    between atoms: C_2  and  C_3
REMARK    4  A    between atoms: C_3  and  C_4
REMARK    5  A    between atoms: C_5  and  O_6
REMARK    6  A    between atoms: O_6  and  C_7
REMARK    7  A    between atoms: C_9  and  O_13
REMARK    8  A    between atoms: C_10  and  C_12
REMARK    9  A    between atoms: C_19  and  O_20
REMARK                            x       y       z     vdW  Elec       q    Type
REMARK                         _______ _______ _______ _____ _____    ______ ____
ROOT
ATOM      1  C   LIG A   1      -6.785   6.890 131.171  0.00  0.00    +0.010 C 
ENDROOT
BRANCH   1   2
ATOM      2  C   LIG A   1      -7.985   6.197 131.825  0.00  0.00    +0.039 C 
BRANCH   2   3
ATOM      3  C   LIG A   1      -9.305   6.619 131.227  0.00  0.00    -0.002 A 
ATOM      4  C   LIG A   1      -9.318   7.387 130.051  0.00  0.00    +0.056 A 
ATOM      5  C   LIG A   1     -10.538   7.748 129.517  0.00  0.00    +0.167 A 
ATOM      6  C   LIG A   1     -11.723   7.377 130.106  0.00  0.00    +0.170 A 
ATOM      7  C   LIG A   1     -11.757   6.630 131.263  0.00  0.00    +0.095 A 
ATOM      8  C   LIG A   1     -10.533   6.261 131.827  0.00  0.00    +0.124 A 
ATOM      9  O   LIG A   1     -12.810   7.831 129.423  0.00  0.00    -0.453 OA
ATOM     10  C   LIG A   1     -12.172   8.559 128.352  0.00  0.00    +0.466 C 
ATOM     11  O   LIG A   1     -10.731   8.474 128.385  0.00  0.00    -0.453 OA
BRANCH   8  12
ATOM     12  O   LIG A   1     -10.506   5.522 132.975  0.00  0.00    -0.506 OA
ATOM     13  H   LIG A   1      -9.931   4.745 132.835  0.00  0.00    +0.292 HD
ENDBRANCH   8  12
ENDBRANCH   2   3
ENDBRANCH   1   2
BRANCH   1  14
ATOM     14  C   LIG A   1      -5.444   6.290 131.628  0.00  0.00    +0.039 C 
BRANCH  14  15
ATOM     15  C   LIG A   1      -4.541   5.866 130.484  0.00  0.00    -0.005 A 
ATOM     16  C   LIG A   1      -3.554   6.721 129.955  0.00  0.00    +0.127 A 
ATOM     17  C   LIG A   1      -2.704   6.253 128.947  0.00  0.00    +0.091 A 
ATOM     18  C   LIG A   1      -2.849   4.958 128.450  0.00  0.00    +0.123 A 
ATOM     19  C   LIG A   1      -3.841   4.105 128.932  0.00  0.00    -0.009 A 
ATOM     20  C   LIG A   1      -4.679   4.569 129.954  0.00  0.00    +0.014 A 
ATOM     21  C   LIG A   1      -3.989   2.711 128.400  0.00  0.00    +0.048 C 
BRANCH  16  22
ATOM     22  O   LIG A   1      -3.498   7.985 130.485  0.00  0.00    -0.495 OA
ATOM     23  C   LIG A   1      -3.958   9.062 129.678  0.00  0.00    +0.277 C 
ENDBRANCH  16  22
BRANCH  18  24
ATOM     24  O   LIG A   1      -2.013   4.498 127.471  0.00  0.00    -0.506 OA
ATOM     25  H   LIG A   1      -2.460   3.789 126.982  0.00  0.00    +0.292 HD
ENDBRANCH  18  24
ENDBRANCH  14  15
ENDBRANCH   1  14
TORSDOF 7
ENDMDL
MODEL 3
REMARK VINA RESULT:      -6.9      8.966     10.495
REMARK  Name = NuBBE_2036
REMARK  9 active torsions:
REMARK  status: ('A' for Active; 'I' for Inactive)
REMARK    1  A    between atoms: C_1  and  C_2
REMARK    2  A    between atoms: C_1  and  C_14
REMARK    3  A    between atoms: C_2  and  C_3
REMARK    4  A    between atoms: C_3  and  C_4
REMARK    5  A    between atoms: C_5  and  O_6
REMARK    6  A    between atoms: O_6  and  C_7
REMARK    7  A    between atoms: C_9  and  O_13
REMARK    8  A    between atoms: C_10  and  C_12
REMARK    9  A    between atoms: C_19  and  O_20
REMARK                            x       y       z     vdW  Elec       q    Type
REMARK                         _______ _______ _______ _____ _____    ______ ____
ROOT
ATOM      1  C   LIG A   1      -6.817   6.034 130.913  0.00  0.00    +0.010 C 
ENDROOT
BRANCH   1   2
ATOM      2  C   LIG A   1      -7.962   6.186 131.921  0.00  0.00    +0.039 C 
BRANCH   2   3
ATOM      3  C   LIG A   1      -9.261   6.603 131.277  0.00  0.00    -0.002 A 
ATOM      4  C   LIG A   1      -9.234   7.360 130.094  0.00  0.00    +0.056 A 
ATOM      5  C   LIG A   1     -10.436   7.716 129.516  0.00  0.00    +0.167 A 
ATOM      6  C   LIG A   1     -11.640   7.352 130.069  0.00  0.00    +0.170 A 
ATOM      7  C   LIG A   1     -11.712   6.616 131.230  0.00  0.00    +0.095 A 
ATOM      8  C   LIG A   1     -10.508   6.251 131.838  0.00  0.00    +0.124 A 
ATOM      9  O   LIG A   1     -12.702   7.800 129.345  0.00  0.00    -0.453 OA
ATOM     10  C   LIG A   1     -12.029   8.518 128.290  0.00  0.00    +0.466 C 
ATOM     11  O   LIG A   1     -10.590   8.432 128.371  0.00  0.00    -0.453 OA
BRANCH   8  12
ATOM     12  O   LIG A   1     -10.521   5.523 132.993  0.00  0.00    -0.506 OA
ATOM     13  H   LIG A   1      -9.940   5.960 133.646  0.00  0.00    +0.292 HD
ENDBRANCH   8  12
ENDBRANCH   2   3
ENDBRANCH   1   2
BRANCH   1  14
ATOM     14  C   LIG A   1      -5.908   7.275 130.872  0.00  0.00    +0.039 C 
BRANCH  14  15
ATOM     15  C   LIG A   1      -4.435   6.961 131.057  0.00  0.00    -0.005 A 
ATOM     16  C   LIG A   1      -3.563   6.793 129.963  0.00  0.00    +0.127 A 
ATOM     17  C   LIG A   1      -2.201   6.574 130.193  0.00  0.00    +0.091 A 
ATOM     18  C   LIG A   1      -1.713   6.495 131.498  0.00  0.00    +0.123 A 
ATOM     19  C   LIG A   1      -2.561   6.621 132.597  0.00  0.00    -0.009 A 
ATOM     20  C   LIG A   1      -3.920   6.860 132.364  0.00  0.00    +0.014 A 
ATOM     21  C   LIG A   1      -2.030   6.542 133.997  0.00  0.00    +0.048 C 
BRANCH  16  22
ATOM     22  O   LIG A   1      -4.132   6.862 128.717  0.00  0.00    -0.495 OA
ATOM     23  C   LIG A   1      -3.686   5.937 127.734  0.00  0.00    +0.277 C 
ENDBRANCH  16  22
BRANCH  18  24
ATOM     24  O   LIG A   1      -0.379   6.288 131.723  0.00  0.00    -0.506 OA
ATOM     25  H   LIG A   1       0.102   6.397 130.887  0.00  0.00    +0.292 HD
ENDBRANCH  18  24
ENDBRANCH  14  15
ENDBRANCH   1  14
TORSDOF 7
ENDMDL
MODEL 4
REMARK VINA RESULT:      -6.8      7.376      9.585
REMARK  Name = NuBBE_2036
REMARK  9 active torsions:
REMARK  status: ('A' for Active; 'I' for Inactive)
REMARK    1  A    between atoms: C_1  and  C_2
REMARK    2  A    between atoms: C_1  and  C_14
REMARK    3  A    between atoms: C_2  and  C_3
REMARK    4  A    between atoms: C_3  and  C_4
REMARK    5  A    between atoms: C_5  and  O_6
REMARK    6  A    between atoms: O_6  and  C_7
REMARK    7  A    between atoms: C_9  and  O_13
REMARK    8  A    between atoms: C_10  and  C_12
REMARK    9  A    between atoms: C_19  and  O_20
REMARK                            x       y       z     vdW  Elec       q    Type
REMARK                         _______ _______ _______ _____ _____    ______ ____
ROOT
ATOM      1  C   LIG A   1      -6.518   6.509 131.464  0.00  0.00    +0.010 C 
ENDROOT
BRANCH   1   2
ATOM      2  C   LIG A   1      -7.818   6.090 132.159  0.00  0.00    +0.039 C 
BRANCH   2   3
ATOM      3  C   LIG A   1      -9.052   6.529 131.410  0.00  0.00    -0.002 A 
ATOM      4  C   LIG A   1      -8.916   7.279 130.230  0.00  0.00    +0.056 A 
ATOM      5  C   LIG A   1     -10.059   7.654 129.555  0.00  0.00    +0.167 A 
ATOM      6  C   LIG A   1     -11.311   7.316 130.010  0.00  0.00    +0.170 A 
ATOM      7  C   LIG A   1     -11.492   6.588 131.165  0.00  0.00    +0.095 A 
ATOM      8  C   LIG A   1     -10.348   6.204 131.870  0.00  0.00    +0.124 A 
ATOM      9  O   LIG A   1     -12.303   7.779 129.201  0.00  0.00    -0.453 OA
ATOM     10  C   LIG A   1     -11.532   8.479 128.201  0.00  0.00    +0.466 C 
ATOM     11  O   LIG A   1     -10.107   8.366 128.399  0.00  0.00    -0.453 OA
BRANCH   8  12
ATOM     12  O   LIG A   1     -10.468   5.483 133.023  0.00  0.00    -0.506 OA
ATOM     13  H   LIG A   1     -10.144   4.575 132.862  0.00  0.00    +0.292 HD
ENDBRANCH   8  12
ENDBRANCH   2   3
ENDBRANCH   1   2
BRANCH   1  14
ATOM     14  C   LIG A   1      -5.331   5.614 131.859  0.00  0.00    +0.039 C 
BRANCH  14  15
ATOM     15  C   LIG A   1      -4.443   5.224 130.692  0.00  0.00    -0.005 A 
ATOM     16  C   LIG A   1      -4.319   3.888 130.261  0.00  0.00    +0.127 A 
ATOM     17  C   LIG A   1      -3.541   3.595 129.135  0.00  0.00    +0.091 A 
ATOM     18  C   LIG A   1      -2.869   4.615 128.461  0.00  0.00    +0.123 A 
ATOM     19  C   LIG A   1      -2.946   5.939 128.890  0.00  0.00    -0.009 A 
ATOM     20  C   LIG A   1      -3.741   6.233 130.004  0.00  0.00    +0.014 A 
ATOM     21  C   LIG A   1      -2.229   7.034 128.157  0.00  0.00    +0.048 C 
BRANCH  16  22
ATOM     22  O   LIG A   1      -4.993   2.948 130.996  0.00  0.00    -0.495 OA
ATOM     23  C   LIG A   1      -6.114   2.315 130.392  0.00  0.00    +0.277 C 
ENDBRANCH  16  22
BRANCH  18  24
ATOM     24  O   LIG A   1      -2.115   4.330 127.356  0.00  0.00    -0.506 OA
ATOM     25  H   LIG A   1      -2.554   3.629 126.847  0.00  0.00    +0.292 HD
ENDBRANCH  18  24
ENDBRANCH  14  15
ENDBRANCH   1  14
TORSDOF 7
ENDMDL
MODEL 5
REMARK VINA RESULT:      -6.6      2.583      6.847
REMARK  Name = NuBBE_2036
REMARK  9 active torsions:
REMARK  status: ('A' for Active; 'I' for Inactive)
REMARK    1  A    between atoms: C_1  and  C_2
REMARK    2  A    between atoms: C_1  and  C_14
REMARK    3  A    between atoms: C_2  and  C_3
REMARK    4  A    between atoms: C_3  and  C_4
REMARK    5  A    between atoms: C_5  and  O_6
REMARK    6  A    between atoms: O_6  and  C_7
REMARK    7  A    between atoms: C_9  and  O_13
REMARK    8  A    between atoms: C_10  and  C_12
REMARK    9  A    between atoms: C_19  and  O_20
REMARK                            x       y       z     vdW  Elec       q    Type
REMARK                         _______ _______ _______ _____ _____    ______ ____
ROOT
ATOM      1  C   LIG A   1      -8.570  -3.617 127.533  0.00  0.00    +0.010 C 
ENDROOT
BRANCH   1   2
ATOM      2  C   LIG A   1      -8.107  -2.490 128.464  0.00  0.00    +0.039 C 
BRANCH   2   3
ATOM      3  C   LIG A   1      -6.798  -2.796 129.150  0.00  0.00    -0.002 A 
ATOM      4  C   LIG A   1      -6.804  -3.446 130.395  0.00  0.00    +0.056 A 
ATOM      5  C   LIG A   1      -5.593  -3.727 130.994  0.00  0.00    +0.167 A 
ATOM      6  C   LIG A   1      -4.399  -3.387 130.405  0.00  0.00    +0.170 A 
ATOM      7  C   LIG A   1      -4.347  -2.743 129.189  0.00  0.00    +0.095 A 
ATOM      8  C   LIG A   1      -5.561  -2.440 128.567  0.00  0.00    +0.124 A 
ATOM      9  O   LIG A   1      -3.325  -3.754 131.156  0.00  0.00    -0.453 OA
ATOM     10  C   LIG A   1      -3.981  -4.335 132.303  0.00  0.00    +0.466 C 
ATOM     11  O   LIG A   1      -5.419  -4.358 132.185  0.00  0.00    -0.453 OA
BRANCH   8  12
ATOM     12  O   LIG A   1      -5.569  -1.801 127.361  0.00  0.00    -0.506 OA
ATOM     13  H   LIG A   1      -5.667  -0.841 127.515  0.00  0.00    +0.292 HD
ENDBRANCH   8  12
ENDBRANCH   2   3
ENDBRANCH   1   2
BRANCH   1  14
ATOM     14  C   LIG A   1      -9.269  -3.081 126.271  0.00  0.00    +0.039 C 
BRANCH  14  15
ATOM     15  C   LIG A   1      -8.316  -2.762 125.133  0.00  0.00    -0.005 A 
ATOM     16  C   LIG A   1      -8.503  -1.646 124.293  0.00  0.00    +0.127 A 
ATOM     17  C   LIG A   1      -7.556  -1.361 123.304  0.00  0.00    +0.091 A 
ATOM     18  C   LIG A   1      -6.448  -2.192 123.131  0.00  0.00    +0.123 A 
ATOM     19  C   LIG A   1      -6.261  -3.323 123.924  0.00  0.00    -0.009 A 
ATOM     20  C   LIG A   1      -7.200  -3.595 124.927  0.00  0.00    +0.014 A 
ATOM     21  C   LIG A   1      -5.065  -4.209 123.740  0.00  0.00    +0.048 C 
BRANCH  16  22
ATOM     22  O   LIG A   1      -9.630  -0.899 124.518  0.00  0.00    -0.495 OA
ATOM     23  C   LIG A   1      -9.488   0.515 124.566  0.00  0.00    +0.277 C 
ENDBRANCH  16  22
BRANCH  18  24
ATOM     24  O   LIG A   1      -5.518  -1.909 122.168  0.00  0.00    -0.506 OA
ATOM     25  H   LIG A   1      -5.964  -1.845 121.309  0.00  0.00    +0.292 HD
ENDBRANCH  18  24
ENDBRANCH  14  15
ENDBRANCH   1  14
TORSDOF 7
ENDMDL
MODEL 6
REMARK VINA RESULT:      -6.6      2.596      4.628
REMARK  Name = NuBBE_2036
REMARK  9 active torsions:
REMARK  status: ('A' for Active; 'I' for Inactive)
REMARK    1  A    between atoms: C_1  and  C_2
REMARK    2  A    between atoms: C_1  and  C_14
REMARK    3  A    between atoms: C_2  and  C_3
REMARK    4  A    between atoms: C_3  and  C_4
REMARK    5  A    between atoms: C_5  and  O_6
REMARK    6  A    between atoms: O_6  and  C_7
REMARK    7  A    between atoms: C_9  and  O_13
REMARK    8  A    between atoms: C_10  and  C_12
REMARK    9  A    between atoms: C_19  and  O_20
REMARK                            x       y       z     vdW  Elec       q    Type
REMARK                         _______ _______ _______ _____ _____    ______ ____
ROOT
ATOM      1  C   LIG A   1      -8.824  -3.902 127.765  0.00  0.00    +0.010 C 
ENDROOT
BRANCH   1   2
ATOM      2  C   LIG A   1      -9.473  -3.264 126.532  0.00  0.00    +0.039 C 
BRANCH   2   3
ATOM      3  C   LIG A   1      -8.472  -2.895 125.465  0.00  0.00    -0.002 A 
ATOM      4  C   LIG A   1      -7.350  -3.713 125.256  0.00  0.00    +0.056 A 
ATOM      5  C   LIG A   1      -6.458  -3.362 124.264  0.00  0.00    +0.167 A 
ATOM      6  C   LIG A   1      -6.641  -2.241 123.490  0.00  0.00    +0.170 A 
ATOM      7  C   LIG A   1      -7.723  -1.407 123.665  0.00  0.00    +0.095 A 
ATOM      8  C   LIG A   1      -8.636  -1.739 124.670  0.00  0.00    +0.124 A 
ATOM      9  O   LIG A   1      -5.652  -2.075 122.570  0.00  0.00    -0.453 OA
ATOM     10  C   LIG A   1      -4.804  -3.202 122.877  0.00  0.00    +0.466 C 
ATOM     11  O   LIG A   1      -5.333  -4.045 123.923  0.00  0.00    -0.453 OA
BRANCH   8  12
ATOM     12  O   LIG A   1      -9.726  -0.946 124.889  0.00  0.00    -0.506 OA
ATOM     13  H   LIG A   1     -10.487  -1.514 125.118  0.00  0.00    +0.292 HD
ENDBRANCH   8  12
ENDBRANCH   2   3
ENDBRANCH   1   2
BRANCH   1  14
ATOM     14  C   LIG A   1      -8.317  -2.851 128.767  0.00  0.00    +0.039 C 
BRANCH  14  15
ATOM     15  C   LIG A   1      -6.885  -3.076 129.218  0.00  0.00    -0.005 A 
ATOM     16  C   LIG A   1      -5.799  -2.404 128.621  0.00  0.00    +0.127 A 
ATOM     17  C   LIG A   1      -4.508  -2.597 129.123  0.00  0.00    +0.091 A 
ATOM     18  C   LIG A   1      -4.292  -3.471 130.190  0.00  0.00    +0.123 A 
ATOM     19  C   LIG A   1      -5.344  -4.175 130.773  0.00  0.00    -0.009 A 
ATOM     20  C   LIG A   1      -6.638  -3.965 130.282  0.00  0.00    +0.014 A 
ATOM     21  C   LIG A   1      -5.108  -5.107 131.924  0.00  0.00    +0.048 C 
BRANCH  16  22
ATOM     22  O   LIG A   1      -6.100  -1.584 127.564  0.00  0.00    -0.495 OA
ATOM     23  C   LIG A   1      -5.811  -0.198 127.699  0.00  0.00    +0.277 C 
ENDBRANCH  16  22
BRANCH  18  24
ATOM     24  O   LIG A   1      -3.030  -3.654 130.685  0.00  0.00    -0.506 OA
ATOM     25  H   LIG A   1      -2.464  -2.926 130.382  0.00  0.00    +0.292 HD
ENDBRANCH  18  24
ENDBRANCH  14  15
ENDBRANCH   1  14
TORSDOF 7
ENDMDL
MODEL 7
REMARK VINA RESULT:      -6.5      7.453     10.198
REMARK  Name = NuBBE_2036
REMARK  9 active torsions:
REMARK  status: ('A' for Active; 'I' for Inactive)
REMARK    1  A    between atoms: C_1  and  C_2
REMARK    2  A    between atoms: C_1  and  C_14
REMARK    3  A    between atoms: C_2  and  C_3
REMARK    4  A    between atoms: C_3  and  C_4
REMARK    5  A    between atoms: C_5  and  O_6
REMARK    6  A    between atoms: O_6  and  C_7
REMARK    7  A    between atoms: C_9  and  O_13
REMARK    8  A    between atoms: C_10  and  C_12
REMARK    9  A    between atoms: C_19  and  O_20
REMARK                            x       y       z     vdW  Elec       q    Type
REMARK                         _______ _______ _______ _____ _____    ______ ____
ROOT
ATOM      1  C   LIG A   1      -6.769   7.197 130.909  0.00  0.00    +0.010 C 
ENDROOT
BRANCH   1   2
ATOM      2  C   LIG A   1      -5.343   6.794 131.302  0.00  0.00    +0.039 C 
BRANCH   2   3
ATOM      3  C   LIG A   1      -4.554   6.226 130.148  0.00  0.00    -0.002 A 
ATOM      4  C   LIG A   1      -4.366   4.837 130.054  0.00  0.00    +0.056 A 
ATOM      5  C   LIG A   1      -3.654   4.343 128.981  0.00  0.00    +0.167 A 
ATOM      6  C   LIG A   1      -3.131   5.171 128.017  0.00  0.00    +0.170 A 
ATOM      7  C   LIG A   1      -3.285   6.538 128.072  0.00  0.00    +0.095 A 
ATOM      8  C   LIG A   1      -3.996   7.063 129.155  0.00  0.00    +0.124 A 
ATOM      9  O   LIG A   1      -2.467   4.486 127.045  0.00  0.00    -0.453 OA
ATOM     10  C   LIG A   1      -2.603   3.132 127.526  0.00  0.00    +0.466 C 
ATOM     11  O   LIG A   1      -3.391   3.033 128.732  0.00  0.00    -0.453 OA
BRANCH   8  12
ATOM     12  O   LIG A   1      -4.177   8.412 129.262  0.00  0.00    -0.506 OA
ATOM     13  H   LIG A   1      -3.455   8.784 129.805  0.00  0.00    +0.292 HD
ENDBRANCH   8  12
ENDBRANCH   2   3
ENDBRANCH   1   2
BRANCH   1  14
ATOM     14  C   LIG A   1      -7.833   6.349 131.629  0.00  0.00    +0.039 C 
BRANCH  14  15
ATOM     15  C   LIG A   1      -9.167   6.299 130.906  0.00  0.00    -0.005 A 
ATOM     16  C   LIG A   1     -10.108   5.278 131.144  0.00  0.00    +0.127 A 
ATOM     17  C   LIG A   1     -11.350   5.320 130.501  0.00  0.00    +0.091 A 
ATOM     18  C   LIG A   1     -11.644   6.350 129.608  0.00  0.00    +0.123 A 
ATOM     19  C   LIG A   1     -10.715   7.352 129.327  0.00  0.00    -0.009 A 
ATOM     20  C   LIG A   1      -9.481   7.319 129.987  0.00  0.00    +0.014 A 
ATOM     21  C   LIG A   1     -11.039   8.462 128.372  0.00  0.00    +0.048 C 
BRANCH  16  22
ATOM     22  O   LIG A   1      -9.726   4.292 132.018  0.00  0.00    -0.495 OA
ATOM     23  C   LIG A   1      -9.509   2.989 131.491  0.00  0.00    +0.277 C 
ENDBRANCH  16  22
BRANCH  18  24
ATOM     24  O   LIG A   1     -12.861   6.395 128.985  0.00  0.00    -0.506 OA
ATOM     25  H   LIG A   1     -13.260   7.267 129.136  0.00  0.00    +0.292 HD
ENDBRANCH  18  24
ENDBRANCH  14  15
ENDBRANCH   1  14
TORSDOF 7
ENDMDL
MODEL 8
REMARK VINA RESULT:      -6.4      2.383      3.387
REMARK  Name = NuBBE_2036
REMARK  9 active torsions:
REMARK  status: ('A' for Active; 'I' for Inactive)
REMARK    1  A    between atoms: C_1  and  C_2
REMARK    2  A    between atoms: C_1  and  C_14
REMARK    3  A    between atoms: C_2  and  C_3
REMARK    4  A    between atoms: C_3  and  C_4
REMARK    5  A    between atoms: C_5  and  O_6
REMARK    6  A    between atoms: O_6  and  C_7
REMARK    7  A    between atoms: C_9  and  O_13
REMARK    8  A    between atoms: C_10  and  C_12
REMARK    9  A    between atoms: C_19  and  O_20
REMARK                            x       y       z     vdW  Elec       q    Type
REMARK                         _______ _______ _______ _____ _____    ______ ____
ROOT
ATOM      1  C   LIG A   1      -5.780   0.719 125.952  0.00  0.00    +0.010 C 
ENDROOT
BRANCH   1   2
ATOM      2  C   LIG A   1      -6.938   1.723 125.986  0.00  0.00    +0.039 C 
BRANCH   2   3
ATOM      3  C   LIG A   1      -7.333   2.210 124.614  0.00  0.00    -0.002 A 
ATOM      4  C   LIG A   1      -6.377   2.842 123.801  0.00  0.00    +0.056 A 
ATOM      5  C   LIG A   1      -6.760   3.264 122.545  0.00  0.00    +0.167 A 
ATOM      6  C   LIG A   1      -8.041   3.084 122.080  0.00  0.00    +0.170 A 
ATOM      7  C   LIG A   1      -9.012   2.475 122.845  0.00  0.00    +0.095 A 
ATOM      8  C   LIG A   1      -8.648   2.047 124.125  0.00  0.00    +0.124 A 
ATOM      9  O   LIG A   1      -8.212   3.568 120.820  0.00  0.00    -0.453 OA
ATOM     10  C   LIG A   1      -6.899   4.105 120.555  0.00  0.00    +0.466 C 
ATOM     11  O   LIG A   1      -5.963   3.878 121.631  0.00  0.00    -0.453 OA
BRANCH   8  12
ATOM     12  O   LIG A   1      -9.571   1.440 124.928  0.00  0.00    -0.506 OA
ATOM     13  H   LIG A   1      -9.391   1.686 125.856  0.00  0.00    +0.292 HD
ENDBRANCH   8  12
ENDBRANCH   2   3
ENDBRANCH   1   2
BRANCH   1  14
ATOM     14  C   LIG A   1      -6.147  -0.568 125.193  0.00  0.00    +0.039 C 
BRANCH  14  15
ATOM     15  C   LIG A   1      -7.083  -1.486 125.960  0.00  0.00    -0.005 A 
ATOM     16  C   LIG A   1      -8.309  -1.922 125.421  0.00  0.00    +0.127 A 
ATOM     17  C   LIG A   1      -9.099  -2.823 126.144  0.00  0.00    +0.091 A 
ATOM     18  C   LIG A   1      -8.689  -3.264 127.402  0.00  0.00    +0.123 A 
ATOM     19  C   LIG A   1      -7.498  -2.819 127.972  0.00  0.00    -0.009 A 
ATOM     20  C   LIG A   1      -6.699  -1.933 127.239  0.00  0.00    +0.014 A 
ATOM     21  C   LIG A   1      -7.057  -3.303 129.322  0.00  0.00    +0.048 C 
BRANCH  16  22
ATOM     22  O   LIG A   1      -8.645  -1.418 124.190  0.00  0.00    -0.495 OA
ATOM     23  C   LIG A   1      -8.893  -2.346 123.142  0.00  0.00    +0.277 C 
ENDBRANCH  16  22
BRANCH  18  24
ATOM     24  O   LIG A   1      -9.458  -4.151 128.105  0.00  0.00    -0.506 OA
ATOM     25  H   LIG A   1      -8.876  -4.759 128.588  0.00  0.00    +0.292 HD
ENDBRANCH  18  24
ENDBRANCH  14  15
ENDBRANCH   1  14
TORSDOF 7
ENDMDL
MODEL 9
REMARK VINA RESULT:      -6.4      7.971     10.191
REMARK  Name = NuBBE_2036
REMARK  9 active torsions:
REMARK  status: ('A' for Active; 'I' for Inactive)
REMARK    1  A    between atoms: C_1  and  C_2
REMARK    2  A    between atoms: C_1  and  C_14
REMARK    3  A    between atoms: C_2  and  C_3
REMARK    4  A    between atoms: C_3  and  C_4
REMARK    5  A    between atoms: C_5  and  O_6
REMARK    6  A    between atoms: O_6  and  C_7
REMARK    7  A    between atoms: C_9  and  O_13
REMARK    8  A    between atoms: C_10  and  C_12
REMARK    9  A    between atoms: C_19  and  O_20
REMARK                            x       y       z     vdW  Elec       q    Type
REMARK                         _______ _______ _______ _____ _____    ______ ____
ROOT
ATOM      1  C   LIG A   1      -9.358   5.183 132.286  0.00  0.00    +0.010 C 
ENDROOT
BRANCH   1   2
ATOM      2  C   LIG A   1     -10.557   6.136 132.341  0.00  0.00    +0.039 C 
BRANCH   2   3
ATOM      3  C   LIG A   1     -11.024   6.572 130.974  0.00  0.00    -0.002 A 
ATOM      4  C   LIG A   1     -10.159   6.447 129.874  0.00  0.00    +0.056 A 
ATOM      5  C   LIG A   1     -10.617   6.838 128.633  0.00  0.00    +0.167 A 
ATOM      6  C   LIG A   1     -11.882   7.343 128.454  0.00  0.00    +0.170 A 
ATOM      7  C   LIG A   1     -12.760   7.490 129.505  0.00  0.00    +0.095 A 
ATOM      8  C   LIG A   1     -12.316   7.107 130.774  0.00  0.00    +0.124 A 
ATOM      9  O   LIG A   1     -12.136   7.666 127.157  0.00  0.00    -0.453 OA
ATOM     10  C   LIG A   1     -10.872   7.338 126.543  0.00  0.00    +0.466 C 
ATOM     11  O   LIG A   1      -9.919   6.773 127.468  0.00  0.00    -0.453 OA
BRANCH   8  12
ATOM     12  O   LIG A   1     -13.144   7.233 131.852  0.00  0.00    -0.506 OA
ATOM     13  H   LIG A   1     -14.068   7.260 131.537  0.00  0.00    +0.292 HD
ENDBRANCH   8  12
ENDBRANCH   2   3
ENDBRANCH   1   2
BRANCH   1  14
ATOM     14  C   LIG A   1      -9.373   4.160 133.435  0.00  0.00    +0.039 C 
BRANCH  14  15
ATOM     15  C   LIG A   1      -8.100   4.149 134.262  0.00  0.00    -0.005 A 
ATOM     16  C   LIG A   1      -7.125   3.141 134.120  0.00  0.00    +0.127 A 
ATOM     17  C   LIG A   1      -5.939   3.219 134.858  0.00  0.00    +0.091 A 
ATOM     18  C   LIG A   1      -5.735   4.272 135.750  0.00  0.00    +0.123 A 
ATOM     19  C   LIG A   1      -6.700   5.260 135.937  0.00  0.00    -0.009 A 
ATOM     20  C   LIG A   1      -7.878   5.191 135.182  0.00  0.00    +0.014 A 
ATOM     21  C   LIG A   1      -6.473   6.394 136.891  0.00  0.00    +0.048 C 
BRANCH  16  22
ATOM     22  O   LIG A   1      -7.419   2.132 133.239  0.00  0.00    -0.495 OA
ATOM     23  C   LIG A   1      -6.622   2.025 132.066  0.00  0.00    +0.277 C 
ENDBRANCH  16  22
BRANCH  18  24
ATOM     24  O   LIG A   1      -4.572   4.352 136.466  0.00  0.00    -0.506 OA
ATOM     25  H   LIG A   1      -4.006   3.599 136.233  0.00  0.00    +0.292 HD
ENDBRANCH  18  24
ENDBRANCH  14  15
ENDBRANCH   1  14
TORSDOF 7
ENDMDL
