MODEL 1
REMARK VINA RESULT:      -6.6      0.000      0.000
REMARK  Name = NuBBE_1008
REMARK  3 active torsions:
REMARK  status: ('A' for Active; 'I' for Inactive)
REMARK    1  A    between atoms: C_4  and  O_14
REMARK    2  A    between atoms: C_6  and  O_13
REMARK    3  A    between atoms: C_10  and  C_12
REMARK                            x       y       z     vdW  Elec       q    Type
REMARK                         _______ _______ _______ _____ _____    ______ ____
ROOT
ATOM      1  O   LIG A   1     -10.252   7.319 127.063  0.00  0.00    -0.244 OA
ATOM      2  C   LIG A   1     -10.961   7.643 128.012  0.00  0.00    +0.348 A 
ATOM      3  C   LIG A   1     -10.803   6.969 129.319  0.00  0.00    +0.108 A 
ATOM      4  C   LIG A   1      -9.848   5.956 129.493  0.00  0.00    +0.135 A 
ATOM      5  C   LIG A   1      -9.702   5.324 130.727  0.00  0.00    +0.091 A 
ATOM      6  C   LIG A   1     -10.516   5.709 131.786  0.00  0.00    +0.121 A 
ATOM      7  C   LIG A   1     -11.468   6.711 131.631  0.00  0.00    +0.054 A 
ATOM      8  C   LIG A   1     -11.616   7.348 130.393  0.00  0.00    -0.001 A 
ATOM      9  C   LIG A   1     -12.606   8.399 130.216  0.00  0.00    +0.050 A 
ATOM     10  C   LIG A   1     -12.720   8.986 129.019  0.00  0.00    +0.107 A 
ATOM     11  O   LIG A   1     -11.910   8.621 127.920  0.00  0.00    -0.427 OA
ATOM     12  C   LIG A   1     -13.698  10.076 128.721  0.00  0.00    +0.086 C 
ENDROOT
BRANCH   6  13
ATOM     13  O   LIG A   1     -10.411   5.122 133.012  0.00  0.00    -0.507 OA
ATOM     14  H   LIG A   1      -9.970   5.740 133.619  0.00  0.00    +0.292 HD
ENDBRANCH   6  13
BRANCH   4  15
ATOM     15  O   LIG A   1      -9.014   5.526 128.494  0.00  0.00    -0.506 OA
ATOM     16  H   LIG A   1      -8.462   4.789 128.840  0.00  0.00    +0.292 HD
ENDBRANCH   4  15
TORSDOF 2
ENDMDL
MODEL 2
REMARK VINA RESULT:      -6.3      1.243      4.198
REMARK  Name = NuBBE_1008
REMARK  3 active torsions:
REMARK  status: ('A' for Active; 'I' for Inactive)
REMARK    1  A    between atoms: C_4  and  O_14
REMARK    2  A    between atoms: C_6  and  O_13
REMARK    3  A    between atoms: C_10  and  C_12
REMARK                            x       y       z     vdW  Elec       q    Type
REMARK                         _______ _______ _______ _____ _____    ______ ____
ROOT
ATOM      1  O   LIG A   1      -8.740   5.104 128.194  0.00  0.00    -0.244 OA
ATOM      2  C   LIG A   1      -9.335   5.582 129.157  0.00  0.00    +0.348 A 
ATOM      3  C   LIG A   1     -10.336   6.652 128.953  0.00  0.00    +0.108 A 
ATOM      4  C   LIG A   1     -10.619   7.133 127.666  0.00  0.00    +0.135 A 
ATOM      5  C   LIG A   1     -11.563   8.141 127.478  0.00  0.00    +0.091 A 
ATOM      6  C   LIG A   1     -12.223   8.666 128.583  0.00  0.00    +0.121 A 
ATOM      7  C   LIG A   1     -11.954   8.200 129.866  0.00  0.00    +0.054 A 
ATOM      8  C   LIG A   1     -11.007   7.188 130.057  0.00  0.00    -0.001 A 
ATOM      9  C   LIG A   1     -10.716   6.690 131.393  0.00  0.00    +0.050 A 
ATOM     10  C   LIG A   1      -9.805   5.721 131.538  0.00  0.00    +0.107 A 
ATOM     11  O   LIG A   1      -9.114   5.163 130.438  0.00  0.00    -0.427 OA
ATOM     12  C   LIG A   1      -9.427   5.131 132.858  0.00  0.00    +0.086 C 
ENDROOT
BRANCH   6  13
ATOM     13  O   LIG A   1     -13.155   9.652 128.451  0.00  0.00    -0.507 OA
ATOM     14  H   LIG A   1     -13.346  10.023 129.330  0.00  0.00    +0.292 HD
ENDBRANCH   6  13
BRANCH   4  15
ATOM     15  O   LIG A   1     -10.007   6.663 126.533  0.00  0.00    -0.506 OA
ATOM     16  H   LIG A   1      -9.101   6.360 126.766  0.00  0.00    +0.292 HD
ENDBRANCH   4  15
TORSDOF 2
ENDMDL
MODEL 3
REMARK VINA RESULT:      -6.1      8.847     11.031
REMARK  Name = NuBBE_1008
REMARK  3 active torsions:
REMARK  status: ('A' for Active; 'I' for Inactive)
REMARK    1  A    between atoms: C_4  and  O_14
REMARK    2  A    between atoms: C_6  and  O_13
REMARK    3  A    between atoms: C_10  and  C_12
REMARK                            x       y       z     vdW  Elec       q    Type
REMARK                         _______ _______ _______ _____ _____    ______ ____
ROOT
ATOM      1  O   LIG A   1     -10.037  -2.211 122.969  0.00  0.00    -0.244 OA
ATOM      2  C   LIG A   1      -8.930  -1.770 123.264  0.00  0.00    +0.348 A 
ATOM      3  C   LIG A   1      -8.697  -0.309 123.290  0.00  0.00    +0.108 A 
ATOM      4  C   LIG A   1      -9.731   0.587 122.982  0.00  0.00    +0.135 A 
ATOM      5  C   LIG A   1      -9.508   1.963 123.008  0.00  0.00    +0.091 A 
ATOM      6  C   LIG A   1      -8.246   2.438 123.346  0.00  0.00    +0.121 A 
ATOM      7  C   LIG A   1      -7.209   1.563 123.654  0.00  0.00    +0.054 A 
ATOM      8  C   LIG A   1      -7.431   0.181 123.628  0.00  0.00    -0.001 A 
ATOM      9  C   LIG A   1      -6.358  -0.746 123.951  0.00  0.00    +0.050 A 
ATOM     10  C   LIG A   1      -6.606  -2.061 123.916  0.00  0.00    +0.107 A 
ATOM     11  O   LIG A   1      -7.876  -2.580 123.578  0.00  0.00    -0.427 OA
ATOM     12  C   LIG A   1      -5.583  -3.105 124.229  0.00  0.00    +0.086 C 
ENDROOT
BRANCH   6  13
ATOM     13  O   LIG A   1      -7.977   3.774 123.387  0.00  0.00    -0.507 OA
ATOM     14  H   LIG A   1      -8.795   4.265 123.195  0.00  0.00    +0.292 HD
ENDBRANCH   6  13
BRANCH   4  15
ATOM     15  O   LIG A   1     -10.998   0.190 122.641  0.00  0.00    -0.506 OA
ATOM     16  H   LIG A   1     -11.488  -0.041 123.462  0.00  0.00    +0.292 HD
ENDBRANCH   4  15
TORSDOF 2
ENDMDL
MODEL 4
REMARK VINA RESULT:      -5.8     10.774     11.561
REMARK  Name = NuBBE_1008
REMARK  3 active torsions:
REMARK  status: ('A' for Active; 'I' for Inactive)
REMARK    1  A    between atoms: C_4  and  O_14
REMARK    2  A    between atoms: C_6  and  O_13
REMARK    3  A    between atoms: C_10  and  C_12
REMARK                            x       y       z     vdW  Elec       q    Type
REMARK                         _______ _______ _______ _____ _____    ______ ____
ROOT
ATOM      1  O   LIG A   1      -5.233  -1.278 126.631  0.00  0.00    -0.244 OA
ATOM      2  C   LIG A   1      -6.229  -1.887 127.010  0.00  0.00    +0.348 A 
ATOM      3  C   LIG A   1      -7.262  -2.300 126.034  0.00  0.00    +0.108 A 
ATOM      4  C   LIG A   1      -7.118  -2.004 124.671  0.00  0.00    +0.135 A 
ATOM      5  C   LIG A   1      -8.093  -2.395 123.754  0.00  0.00    +0.091 A 
ATOM      6  C   LIG A   1      -9.212  -3.084 124.208  0.00  0.00    +0.121 A 
ATOM      7  C   LIG A   1      -9.370  -3.386 125.557  0.00  0.00    +0.054 A 
ATOM      8  C   LIG A   1      -8.392  -2.994 126.479  0.00  0.00    -0.001 A 
ATOM      9  C   LIG A   1      -8.542  -3.303 127.892  0.00  0.00    +0.050 A 
ATOM     10  C   LIG A   1      -7.588  -2.914 128.745  0.00  0.00    +0.107 A 
ATOM     11  O   LIG A   1      -6.437  -2.212 128.321  0.00  0.00    -0.427 OA
ATOM     12  C   LIG A   1      -7.635  -3.177 130.216  0.00  0.00    +0.086 C 
ENDROOT
BRANCH   6  13
ATOM     13  O   LIG A   1     -10.192  -3.490 123.351  0.00  0.00    -0.507 OA
ATOM     14  H   LIG A   1     -10.253  -2.852 122.620  0.00  0.00    +0.292 HD
ENDBRANCH   6  13
BRANCH   4  15
ATOM     15  O   LIG A   1      -6.043  -1.329 124.153  0.00  0.00    -0.506 OA
ATOM     16  H   LIG A   1      -5.632  -0.795 124.870  0.00  0.00    +0.292 HD
ENDBRANCH   4  15
TORSDOF 2
ENDMDL
MODEL 5
REMARK VINA RESULT:      -5.6      9.206     10.734
REMARK  Name = NuBBE_1008
REMARK  3 active torsions:
REMARK  status: ('A' for Active; 'I' for Inactive)
REMARK    1  A    between atoms: C_4  and  O_14
REMARK    2  A    between atoms: C_6  and  O_13
REMARK    3  A    between atoms: C_10  and  C_12
REMARK                            x       y       z     vdW  Elec       q    Type
REMARK                         _______ _______ _______ _____ _____    ______ ____
ROOT
ATOM      1  O   LIG A   1     -10.792  -0.105 122.594  0.00  0.00    -0.244 OA
ATOM      2  C   LIG A   1      -9.641   0.240 122.844  0.00  0.00    +0.348 A 
ATOM      3  C   LIG A   1      -8.636  -0.768 123.248  0.00  0.00    +0.108 A 
ATOM      4  C   LIG A   1      -8.982  -2.123 123.350  0.00  0.00    +0.135 A 
ATOM      5  C   LIG A   1      -8.032  -3.071 123.730  0.00  0.00    +0.091 A 
ATOM      6  C   LIG A   1      -6.735  -2.655 124.008  0.00  0.00    +0.121 A 
ATOM      7  C   LIG A   1      -6.376  -1.315 123.912  0.00  0.00    +0.054 A 
ATOM      8  C   LIG A   1      -7.327  -0.362 123.531  0.00  0.00    -0.001 A 
ATOM      9  C   LIG A   1      -6.966   1.043 123.424  0.00  0.00    +0.050 A 
ATOM     10  C   LIG A   1      -7.901   1.926 123.056  0.00  0.00    +0.107 A 
ATOM     11  O   LIG A   1      -9.230   1.541 122.765  0.00  0.00    -0.427 OA
ATOM     12  C   LIG A   1      -7.646   3.391 122.912  0.00  0.00    +0.086 C 
ENDROOT
BRANCH   6  13
ATOM     13  O   LIG A   1      -5.770  -3.543 124.383  0.00  0.00    -0.507 OA
ATOM     14  H   LIG A   1      -6.148  -4.163 125.030  0.00  0.00    +0.292 HD
ENDBRANCH   6  13
BRANCH   4  15
ATOM     15  O   LIG A   1     -10.240  -2.603 123.091  0.00  0.00    -0.506 OA
ATOM     16  H   LIG A   1     -10.429  -2.492 122.132  0.00  0.00    +0.292 HD
ENDBRANCH   4  15
TORSDOF 2
ENDMDL
MODEL 6
REMARK VINA RESULT:      -5.5     10.661     10.952
REMARK  Name = NuBBE_1008
REMARK  3 active torsions:
REMARK  status: ('A' for Active; 'I' for Inactive)
REMARK    1  A    between atoms: C_4  and  O_14
REMARK    2  A    between atoms: C_6  and  O_13
REMARK    3  A    between atoms: C_10  and  C_12
REMARK                            x       y       z     vdW  Elec       q    Type
REMARK                         _______ _______ _______ _____ _____    ______ ____
ROOT
ATOM      1  O   LIG A   1      -5.682  -1.238 124.965  0.00  0.00    -0.244 OA
ATOM      2  C   LIG A   1      -6.691  -1.876 125.254  0.00  0.00    +0.348 A 
ATOM      3  C   LIG A   1      -6.964  -2.233 126.664  0.00  0.00    +0.108 A 
ATOM      4  C   LIG A   1      -6.081  -1.850 127.684  0.00  0.00    +0.135 A 
ATOM      5  C   LIG A   1      -6.342  -2.188 129.011  0.00  0.00    +0.091 A 
ATOM      6  C   LIG A   1      -7.491  -2.910 129.313  0.00  0.00    +0.121 A 
ATOM      7  C   LIG A   1      -8.377  -3.298 128.313  0.00  0.00    +0.054 A 
ATOM      8  C   LIG A   1      -8.117  -2.960 126.980  0.00  0.00    -0.001 A 
ATOM      9  C   LIG A   1      -9.035  -3.356 125.923  0.00  0.00    +0.050 A 
ATOM     10  C   LIG A   1      -8.755  -3.016 124.661  0.00  0.00    +0.107 A 
ATOM     11  O   LIG A   1      -7.597  -2.282 124.316  0.00  0.00    -0.427 OA
ATOM     12  C   LIG A   1      -9.624  -3.367 123.496  0.00  0.00    +0.086 C 
ENDROOT
BRANCH   6  13
ATOM     13  O   LIG A   1      -7.792  -3.263 130.595  0.00  0.00    -0.507 OA
ATOM     14  H   LIG A   1      -8.163  -2.491 131.054  0.00  0.00    +0.292 HD
ENDBRANCH   6  13
BRANCH   4  15
ATOM     15  O   LIG A   1      -4.931  -1.138 127.460  0.00  0.00    -0.506 OA
ATOM     16  H   LIG A   1      -4.177  -1.619 127.870  0.00  0.00    +0.292 HD
ENDBRANCH   4  15
TORSDOF 2
ENDMDL
MODEL 7
REMARK VINA RESULT:      -5.4      2.187      3.180
REMARK  Name = NuBBE_1008
REMARK  3 active torsions:
REMARK  status: ('A' for Active; 'I' for Inactive)
REMARK    1  A    between atoms: C_4  and  O_14
REMARK    2  A    between atoms: C_6  and  O_13
REMARK    3  A    between atoms: C_10  and  C_12
REMARK                            x       y       z     vdW  Elec       q    Type
REMARK                         _______ _______ _______ _____ _____    ______ ____
ROOT
ATOM      1  O   LIG A   1     -11.796   4.081 130.082  0.00  0.00    -0.244 OA
ATOM      2  C   LIG A   1     -11.183   5.137 129.945  0.00  0.00    +0.348 A 
ATOM      3  C   LIG A   1      -9.932   5.371 130.698  0.00  0.00    +0.108 A 
ATOM      4  C   LIG A   1      -9.429   4.398 131.574  0.00  0.00    +0.135 A 
ATOM      5  C   LIG A   1      -8.249   4.621 132.281  0.00  0.00    +0.091 A 
ATOM      6  C   LIG A   1      -7.574   5.824 132.109  0.00  0.00    +0.121 A 
ATOM      7  C   LIG A   1      -8.059   6.801 131.245  0.00  0.00    +0.054 A 
ATOM      8  C   LIG A   1      -9.244   6.578 130.533  0.00  0.00    -0.001 A 
ATOM      9  C   LIG A   1      -9.762   7.589 129.625  0.00  0.00    +0.050 A 
ATOM     10  C   LIG A   1     -10.897   7.341 128.961  0.00  0.00    +0.107 A 
ATOM     11  O   LIG A   1     -11.610   6.131 129.110  0.00  0.00    -0.427 OA
ATOM     12  C   LIG A   1     -11.522   8.303 128.002  0.00  0.00    +0.086 C 
ENDROOT
BRANCH   6  13
ATOM     13  O   LIG A   1      -6.416   6.091 132.776  0.00  0.00    -0.507 OA
ATOM     14  H   LIG A   1      -6.270   5.397 133.442  0.00  0.00    +0.292 HD
ENDBRANCH   6  13
BRANCH   4  15
ATOM     15  O   LIG A   1     -10.041   3.190 131.792  0.00  0.00    -0.506 OA
ATOM     16  H   LIG A   1     -10.319   3.144 132.735  0.00  0.00    +0.292 HD
ENDBRANCH   4  15
TORSDOF 2
ENDMDL
MODEL 8
REMARK VINA RESULT:      -5.4      3.046      6.589
REMARK  Name = NuBBE_1008
REMARK  3 active torsions:
REMARK  status: ('A' for Active; 'I' for Inactive)
REMARK    1  A    between atoms: C_4  and  O_14
REMARK    2  A    between atoms: C_6  and  O_13
REMARK    3  A    between atoms: C_10  and  C_12
REMARK                            x       y       z     vdW  Elec       q    Type
REMARK                         _______ _______ _______ _____ _____    ______ ____
ROOT
ATOM      1  O   LIG A   1      -8.187   4.126 134.524  0.00  0.00    -0.244 OA
ATOM      2  C   LIG A   1      -8.537   3.441 133.567  0.00  0.00    +0.348 A 
ATOM      3  C   LIG A   1      -9.392   4.024 132.511  0.00  0.00    +0.108 A 
ATOM      4  C   LIG A   1      -9.813   5.360 132.585  0.00  0.00    +0.135 A 
ATOM      5  C   LIG A   1     -10.618   5.906 131.587  0.00  0.00    +0.091 A 
ATOM      6  C   LIG A   1     -11.001   5.109 130.514  0.00  0.00    +0.121 A 
ATOM      7  C   LIG A   1     -10.593   3.782 130.425  0.00  0.00    +0.054 A 
ATOM      8  C   LIG A   1      -9.784   3.232 131.426  0.00  0.00    -0.001 A 
ATOM      9  C   LIG A   1      -9.347   1.847 131.346  0.00  0.00    +0.050 A 
ATOM     10  C   LIG A   1      -8.574   1.354 132.320  0.00  0.00    +0.107 A 
ATOM     11  O   LIG A   1      -8.166   2.133 133.426  0.00  0.00    -0.427 OA
ATOM     12  C   LIG A   1      -8.066  -0.051 132.343  0.00  0.00    +0.086 C 
ENDROOT
BRANCH   6  13
ATOM     13  O   LIG A   1     -11.787   5.597 129.512  0.00  0.00    -0.507 OA
ATOM     14  H   LIG A   1     -11.735   6.568 129.517  0.00  0.00    +0.292 HD
ENDBRANCH   6  13
BRANCH   4  15
ATOM     15  O   LIG A   1      -9.474   6.202 133.612  0.00  0.00    -0.506 OA
ATOM     16  H   LIG A   1      -9.025   5.679 134.314  0.00  0.00    +0.292 HD
ENDBRANCH   4  15
TORSDOF 2
ENDMDL
MODEL 9
REMARK VINA RESULT:      -5.4      7.663      9.881
REMARK  Name = NuBBE_1008
REMARK  3 active torsions:
REMARK  status: ('A' for Active; 'I' for Inactive)
REMARK    1  A    between atoms: C_4  and  O_14
REMARK    2  A    between atoms: C_6  and  O_13
REMARK    3  A    between atoms: C_10  and  C_12
REMARK                            x       y       z     vdW  Elec       q    Type
REMARK                         _______ _______ _______ _____ _____    ______ ____
ROOT
ATOM      1  O   LIG A   1      -9.498  -2.566 123.878  0.00  0.00    -0.244 OA
ATOM      2  C   LIG A   1      -9.051  -1.952 124.843  0.00  0.00    +0.348 A 
ATOM      3  C   LIG A   1      -9.042  -0.473 124.842  0.00  0.00    +0.108 A 
ATOM      4  C   LIG A   1      -9.542   0.246 123.746  0.00  0.00    +0.135 A 
ATOM      5  C   LIG A   1      -9.533   1.640 123.748  0.00  0.00    +0.091 A 
ATOM      6  C   LIG A   1      -9.022   2.312 124.853  0.00  0.00    +0.121 A 
ATOM      7  C   LIG A   1      -8.522   1.615 125.948  0.00  0.00    +0.054 A 
ATOM      8  C   LIG A   1      -8.529   0.215 125.947  0.00  0.00    -0.001 A 
ATOM      9  C   LIG A   1      -8.012  -0.528 127.086  0.00  0.00    +0.050 A 
ATOM     10  C   LIG A   1      -8.036  -1.865 127.051  0.00  0.00    +0.107 A 
ATOM     11  O   LIG A   1      -8.549  -2.582 125.947  0.00  0.00    -0.427 OA
ATOM     12  C   LIG A   1      -7.534  -2.731 128.161  0.00  0.00    +0.086 C 
ENDROOT
BRANCH   6  13
ATOM     13  O   LIG A   1      -8.992   3.674 124.904  0.00  0.00    -0.507 OA
ATOM     14  H   LIG A   1      -9.904   4.006 124.961  0.00  0.00    +0.292 HD
ENDBRANCH   6  13
BRANCH   4  15
ATOM     15  O   LIG A   1     -10.061  -0.350 122.626  0.00  0.00    -0.506 OA
ATOM     16  H   LIG A   1     -11.034  -0.441 122.739  0.00  0.00    +0.292 HD
ENDBRANCH   4  15
TORSDOF 2
ENDMDL
