MODEL 1
REMARK VINA RESULT:      -6.9      0.000      0.000
REMARK  Name = NuBBE_1296
REMARK  21 active torsions:
REMARK  status: ('A' for Active; 'I' for Inactive)
REMARK    1  A    between atoms: C_1  and  C_2
REMARK    2  A    between atoms: C_7  and  C_9
REMARK    3  A    between atoms: C_7  and  C_27
REMARK    4  A    between atoms: C_9  and  C_10
REMARK    5  A    between atoms: C_10  and  C_11
REMARK    6  A    between atoms: C_11  and  C_12
REMARK    7  A    between atoms: C_12  and  C_14
REMARK    8  A    between atoms: C_12  and  C_26
REMARK    9  A    between atoms: C_14  and  C_15
REMARK   10  A    between atoms: C_15  and  C_16
REMARK   11  A    between atoms: C_16  and  C_17
REMARK   12  A    between atoms: C_17  and  C_19
REMARK   13  A    between atoms: C_17  and  C_25
REMARK   14  A    between atoms: C_19  and  C_20
REMARK   15  A    between atoms: C_20  and  C_21
REMARK   16  A    between atoms: C_21  and  C_22
REMARK   17  A    between atoms: C_22  and  C_23
REMARK   18  A    between atoms: C_22  and  C_24
REMARK   19  A    between atoms: C_28  and  C_33
REMARK   20  A    between atoms: C_29  and  O_32
REMARK   21  A    between atoms: C_30  and  C_31
REMARK                            x       y       z     vdW  Elec       q    Type
REMARK                         _______ _______ _______ _____ _____    ______ ____
ROOT
ATOM      1  C   LIG A   1      -4.604   3.994 125.664  0.00  0.00    +0.048 C 
ATOM      2  C   LIG A   1      -5.720   3.399 124.834  0.00  0.00    -0.002 A 
ATOM      3  C   LIG A   1      -6.604   2.524 125.436  0.00  0.00    +0.128 A 
ATOM      4  C   LIG A   1      -7.839   2.181 124.841  0.00  0.00    +0.001 A 
ATOM      5  C   LIG A   1      -8.905   1.539 125.669  0.00  0.00    +0.043 C 
ATOM      6  C   LIG A   1      -8.393   1.038 127.001  0.00  0.00    +0.052 C 
ATOM      7  C   LIG A   1      -7.266   1.914 127.599  0.00  0.00    +0.108 C 
ATOM      8  O   LIG A   1      -6.210   2.007 126.658  0.00  0.00    -0.485 OA
ATOM      9  C   LIG A   1      -7.654   3.351 128.004  0.00  0.00    +0.056 C 
ATOM     10  C   LIG A   1      -8.073   2.586 123.496  0.00  0.00    -0.002 A 
ATOM     11  C   LIG A   1      -7.088   3.311 122.840  0.00  0.00    +0.123 A 
ATOM     12  C   LIG A   1      -5.923   3.779 123.482  0.00  0.00    -0.002 A 
ATOM     13  C   LIG A   1      -4.935   4.649 122.772  0.00  0.00    +0.048 C 
ATOM     14  C   LIG A   1      -9.350   2.184 122.789  0.00  0.00    +0.048 C 
ENDROOT
BRANCH  11  15
ATOM     15  O   LIG A   1      -7.225   3.623 121.495  0.00  0.00    -0.506 OA
ATOM     16  H   LIG A   1      -7.311   2.788 121.013  0.00  0.00    +0.292 HD
ENDBRANCH  11  15
BRANCH   7  17
ATOM     17  C   LIG A   1      -6.794   1.180 128.884  0.00  0.00    +0.048 C 
BRANCH  17  18
ATOM     18  C   LIG A   1      -7.858   0.648 129.855  0.00  0.00    +0.004 C 
BRANCH  18  19
ATOM     19  C   LIG A   1      -7.893  -0.884 130.082  0.00  0.00    +0.003 C 
BRANCH  19  20
ATOM     20  C   LIG A   1      -7.362  -1.826 128.963  0.00  0.00    -0.014 C 
ATOM     21  C   LIG A   1      -8.178  -3.138 128.982  0.00  0.00    +0.007 C 
BRANCH  20  22
ATOM     22  C   LIG A   1      -5.866  -2.160 129.085  0.00  0.00    +0.003 C 
BRANCH  22  23
ATOM     23  C   LIG A   1      -5.189  -2.390 127.739  0.00  0.00    +0.000 C 
BRANCH  23  24
ATOM     24  C   LIG A   1      -5.525  -1.355 126.679  0.00  0.00    +0.003 C 
BRANCH  24  25
ATOM     25  C   LIG A   1      -5.278  -1.758 125.207  0.00  0.00    -0.014 C 
ATOM     26  C   LIG A   1      -6.177  -0.845 124.364  0.00  0.00    +0.007 C 
BRANCH  25  27
ATOM     27  C   LIG A   1      -5.526  -3.263 124.900  0.00  0.00    +0.003 C 
BRANCH  27  28
ATOM     28  C   LIG A   1      -6.782  -3.492 124.032  0.00  0.00    +0.000 C 
BRANCH  28  29
ATOM     29  C   LIG A   1      -7.964  -4.119 124.781  0.00  0.00    +0.003 C 
BRANCH  29  30
ATOM     30  C   LIG A   1      -9.295  -3.346 124.593  0.00  0.00    -0.017 C 
ATOM     31  C   LIG A   1      -9.453  -2.340 125.737  0.00  0.00    +0.007 C 
ATOM     32  C   LIG A   1      -9.399  -2.656 123.226  0.00  0.00    +0.007 C 
ENDBRANCH  29  30
ENDBRANCH  28  29
ENDBRANCH  27  28
ENDBRANCH  25  27
ENDBRANCH  24  25
ENDBRANCH  23  24
ENDBRANCH  22  23
ENDBRANCH  20  22
ENDBRANCH  19  20
ENDBRANCH  18  19
ENDBRANCH  17  18
ENDBRANCH   7  17
TORSDOF 13
ENDMDL
MODEL 2
REMARK VINA RESULT:      -6.5      2.253      5.323
REMARK  Name = NuBBE_1296
REMARK  21 active torsions:
REMARK  status: ('A' for Active; 'I' for Inactive)
REMARK    1  A    between atoms: C_1  and  C_2
REMARK    2  A    between atoms: C_7  and  C_9
REMARK    3  A    between atoms: C_7  and  C_27
REMARK    4  A    between atoms: C_9  and  C_10
REMARK    5  A    between atoms: C_10  and  C_11
REMARK    6  A    between atoms: C_11  and  C_12
REMARK    7  A    between atoms: C_12  and  C_14
REMARK    8  A    between atoms: C_12  and  C_26
REMARK    9  A    between atoms: C_14  and  C_15
REMARK   10  A    between atoms: C_15  and  C_16
REMARK   11  A    between atoms: C_16  and  C_17
REMARK   12  A    between atoms: C_17  and  C_19
REMARK   13  A    between atoms: C_17  and  C_25
REMARK   14  A    between atoms: C_19  and  C_20
REMARK   15  A    between atoms: C_20  and  C_21
REMARK   16  A    between atoms: C_21  and  C_22
REMARK   17  A    between atoms: C_22  and  C_23
REMARK   18  A    between atoms: C_22  and  C_24
REMARK   19  A    between atoms: C_28  and  C_33
REMARK   20  A    between atoms: C_29  and  O_32
REMARK   21  A    between atoms: C_30  and  C_31
REMARK                            x       y       z     vdW  Elec       q    Type
REMARK                         _______ _______ _______ _____ _____    ______ ____
ROOT
ATOM      1  C   LIG A   1      -4.153   1.504 129.127  0.00  0.00    +0.048 C 
ATOM      2  C   LIG A   1      -4.487   2.489 128.028  0.00  0.00    -0.002 A 
ATOM      3  C   LIG A   1      -5.047   2.016 126.857  0.00  0.00    +0.128 A 
ATOM      4  C   LIG A   1      -5.677   2.874 125.929  0.00  0.00    +0.001 A 
ATOM      5  C   LIG A   1      -6.573   2.299 124.879  0.00  0.00    +0.043 C 
ATOM      6  C   LIG A   1      -6.437   0.799 124.749  0.00  0.00    +0.052 C 
ATOM      7  C   LIG A   1      -6.131   0.087 126.088  0.00  0.00    +0.108 C 
ATOM      8  O   LIG A   1      -4.958   0.651 126.649  0.00  0.00    -0.485 OA
ATOM      9  C   LIG A   1      -7.235   0.144 127.165  0.00  0.00    +0.056 C 
ATOM     10  C   LIG A   1      -5.540   4.280 126.112  0.00  0.00    -0.002 A 
ATOM     11  C   LIG A   1      -4.812   4.739 127.201  0.00  0.00    +0.123 A 
ATOM     12  C   LIG A   1      -4.311   3.886 128.205  0.00  0.00    -0.002 A 
ATOM     13  C   LIG A   1      -3.624   4.425 129.419  0.00  0.00    +0.048 C 
ATOM     14  C   LIG A   1      -6.137   5.243 125.108  0.00  0.00    +0.048 C 
ENDROOT
BRANCH  11  15
ATOM     15  O   LIG A   1      -4.554   6.095 127.351  0.00  0.00    -0.506 OA
ATOM     16  H   LIG A   1      -3.662   6.257 127.013  0.00  0.00    +0.292 HD
ENDBRANCH  11  15
BRANCH   7  17
ATOM     17  C   LIG A   1      -5.907  -1.409 125.732  0.00  0.00    +0.048 C 
BRANCH  17  18
ATOM     18  C   LIG A   1      -6.605  -1.978 124.489  0.00  0.00    +0.004 C 
BRANCH  18  19
ATOM     19  C   LIG A   1      -7.042  -3.463 124.551  0.00  0.00    +0.003 C 
BRANCH  19  20
ATOM     20  C   LIG A   1      -8.523  -3.802 124.889  0.00  0.00    -0.014 C 
ATOM     21  C   LIG A   1      -9.432  -3.259 123.765  0.00  0.00    +0.007 C 
BRANCH  20  22
ATOM     22  C   LIG A   1      -9.000  -3.243 126.240  0.00  0.00    +0.003 C 
BRANCH  22  23
ATOM     23  C   LIG A   1      -8.261  -3.838 127.433  0.00  0.00    +0.000 C 
BRANCH  23  24
ATOM     24  C   LIG A   1      -8.641  -3.233 128.774  0.00  0.00    +0.003 C 
BRANCH  24  25
ATOM     25  C   LIG A   1      -7.490  -2.970 129.772  0.00  0.00    -0.014 C 
ATOM     26  C   LIG A   1      -7.884  -1.703 130.543  0.00  0.00    +0.007 C 
BRANCH  25  27
ATOM     27  C   LIG A   1      -6.085  -2.839 129.117  0.00  0.00    +0.003 C 
BRANCH  27  28
ATOM     28  C   LIG A   1      -5.062  -3.835 129.703  0.00  0.00    +0.000 C 
BRANCH  28  29
ATOM     29  C   LIG A   1      -5.651  -4.829 130.712  0.00  0.00    +0.003 C 
BRANCH  29  30
ATOM     30  C   LIG A   1      -5.156  -4.600 132.163  0.00  0.00    -0.017 C 
ATOM     31  C   LIG A   1      -3.959  -3.646 132.138  0.00  0.00    +0.007 C 
ATOM     32  C   LIG A   1      -6.258  -4.087 133.099  0.00  0.00    +0.007 C 
ENDBRANCH  29  30
ENDBRANCH  28  29
ENDBRANCH  27  28
ENDBRANCH  25  27
ENDBRANCH  24  25
ENDBRANCH  23  24
ENDBRANCH  22  23
ENDBRANCH  20  22
ENDBRANCH  19  20
ENDBRANCH  18  19
ENDBRANCH  17  18
ENDBRANCH   7  17
TORSDOF 13
ENDMDL
MODEL 3
REMARK VINA RESULT:      -6.5      2.616      6.568
REMARK  Name = NuBBE_1296
REMARK  21 active torsions:
REMARK  status: ('A' for Active; 'I' for Inactive)
REMARK    1  A    between atoms: C_1  and  C_2
REMARK    2  A    between atoms: C_7  and  C_9
REMARK    3  A    between atoms: C_7  and  C_27
REMARK    4  A    between atoms: C_9  and  C_10
REMARK    5  A    between atoms: C_10  and  C_11
REMARK    6  A    between atoms: C_11  and  C_12
REMARK    7  A    between atoms: C_12  and  C_14
REMARK    8  A    between atoms: C_12  and  C_26
REMARK    9  A    between atoms: C_14  and  C_15
REMARK   10  A    between atoms: C_15  and  C_16
REMARK   11  A    between atoms: C_16  and  C_17
REMARK   12  A    between atoms: C_17  and  C_19
REMARK   13  A    between atoms: C_17  and  C_25
REMARK   14  A    between atoms: C_19  and  C_20
REMARK   15  A    between atoms: C_20  and  C_21
REMARK   16  A    between atoms: C_21  and  C_22
REMARK   17  A    between atoms: C_22  and  C_23
REMARK   18  A    between atoms: C_22  and  C_24
REMARK   19  A    between atoms: C_28  and  C_33
REMARK   20  A    between atoms: C_29  and  O_32
REMARK   21  A    between atoms: C_30  and  C_31
REMARK                            x       y       z     vdW  Elec       q    Type
REMARK                         _______ _______ _______ _____ _____    ______ ____
ROOT
ATOM      1  C   LIG A   1      -7.807  -3.276 129.949  0.00  0.00    +0.048 C 
ATOM      2  C   LIG A   1      -6.483  -2.761 130.472  0.00  0.00    -0.002 A 
ATOM      3  C   LIG A   1      -6.295  -1.396 130.578  0.00  0.00    +0.128 A 
ATOM      4  C   LIG A   1      -5.243  -0.843 131.342  0.00  0.00    +0.001 A 
ATOM      5  C   LIG A   1      -5.288   0.600 131.728  0.00  0.00    +0.043 C 
ATOM      6  C   LIG A   1      -6.332   1.381 130.961  0.00  0.00    +0.052 C 
ATOM      7  C   LIG A   1      -7.594   0.554 130.617  0.00  0.00    +0.108 C 
ATOM      8  O   LIG A   1      -7.201  -0.603 129.897  0.00  0.00    -0.485 OA
ATOM      9  C   LIG A   1      -8.456   0.087 131.809  0.00  0.00    +0.056 C 
ATOM     10  C   LIG A   1      -4.236  -1.722 131.835  0.00  0.00    -0.002 A 
ATOM     11  C   LIG A   1      -4.344  -3.077 131.557  0.00  0.00    +0.123 A 
ATOM     12  C   LIG A   1      -5.469  -3.645 130.924  0.00  0.00    -0.002 A 
ATOM     13  C   LIG A   1      -5.600  -5.123 130.738  0.00  0.00    +0.048 C 
ATOM     14  C   LIG A   1      -3.050  -1.172 132.599  0.00  0.00    +0.048 C 
ENDROOT
BRANCH  11  15
ATOM     15  O   LIG A   1      -3.326  -3.950 131.915  0.00  0.00    -0.506 OA
ATOM     16  H   LIG A   1      -3.628  -4.441 132.692  0.00  0.00    +0.292 HD
ENDBRANCH  11  15
BRANCH   7  17
ATOM     17  C   LIG A   1      -8.480   1.476 129.735  0.00  0.00    +0.048 C 
BRANCH  17  18
ATOM     18  C   LIG A   1      -7.823   2.211 128.558  0.00  0.00    +0.004 C 
BRANCH  18  19
ATOM     19  C   LIG A   1      -7.750   1.448 127.211  0.00  0.00    +0.003 C 
BRANCH  19  20
ATOM     20  C   LIG A   1      -6.361   1.213 126.551  0.00  0.00    -0.014 C 
ATOM     21  C   LIG A   1      -6.467   1.512 125.039  0.00  0.00    +0.007 C 
BRANCH  20  22
ATOM     22  C   LIG A   1      -5.809  -0.209 126.747  0.00  0.00    +0.003 C 
BRANCH  22  23
ATOM     23  C   LIG A   1      -5.416  -0.889 125.441  0.00  0.00    +0.000 C 
BRANCH  23  24
ATOM     24  C   LIG A   1      -5.540  -2.403 125.457  0.00  0.00    +0.003 C 
BRANCH  24  25
ATOM     25  C   LIG A   1      -5.898  -3.088 124.118  0.00  0.00    -0.014 C 
ATOM     26  C   LIG A   1      -4.588  -3.683 123.586  0.00  0.00    +0.007 C 
BRANCH  25  27
ATOM     27  C   LIG A   1      -6.578  -2.153 123.077  0.00  0.00    +0.003 C 
BRANCH  27  28
ATOM     28  C   LIG A   1      -8.119  -2.197 123.156  0.00  0.00    +0.000 C 
BRANCH  28  29
ATOM     29  C   LIG A   1      -8.677  -3.329 124.028  0.00  0.00    +0.003 C 
BRANCH  29  30
ATOM     30  C   LIG A   1      -9.346  -2.828 125.334  0.00  0.00    -0.017 C 
ATOM     31  C   LIG A   1      -8.784  -3.621 126.518  0.00  0.00    +0.007 C 
ATOM     32  C   LIG A   1      -9.186  -1.318 125.549  0.00  0.00    +0.007 C 
ENDBRANCH  29  30
ENDBRANCH  28  29
ENDBRANCH  27  28
ENDBRANCH  25  27
ENDBRANCH  24  25
ENDBRANCH  23  24
ENDBRANCH  22  23
ENDBRANCH  20  22
ENDBRANCH  19  20
ENDBRANCH  18  19
ENDBRANCH  17  18
ENDBRANCH   7  17
TORSDOF 13
ENDMDL
MODEL 4
REMARK VINA RESULT:      -6.5      3.336      6.650
REMARK  Name = NuBBE_1296
REMARK  21 active torsions:
REMARK  status: ('A' for Active; 'I' for Inactive)
REMARK    1  A    between atoms: C_1  and  C_2
REMARK    2  A    between atoms: C_7  and  C_9
REMARK    3  A    between atoms: C_7  and  C_27
REMARK    4  A    between atoms: C_9  and  C_10
REMARK    5  A    between atoms: C_10  and  C_11
REMARK    6  A    between atoms: C_11  and  C_12
REMARK    7  A    between atoms: C_12  and  C_14
REMARK    8  A    between atoms: C_12  and  C_26
REMARK    9  A    between atoms: C_14  and  C_15
REMARK   10  A    between atoms: C_15  and  C_16
REMARK   11  A    between atoms: C_16  and  C_17
REMARK   12  A    between atoms: C_17  and  C_19
REMARK   13  A    between atoms: C_17  and  C_25
REMARK   14  A    between atoms: C_19  and  C_20
REMARK   15  A    between atoms: C_20  and  C_21
REMARK   16  A    between atoms: C_21  and  C_22
REMARK   17  A    between atoms: C_22  and  C_23
REMARK   18  A    between atoms: C_22  and  C_24
REMARK   19  A    between atoms: C_28  and  C_33
REMARK   20  A    between atoms: C_29  and  O_32
REMARK   21  A    between atoms: C_30  and  C_31
REMARK                            x       y       z     vdW  Elec       q    Type
REMARK                         _______ _______ _______ _____ _____    ______ ____
ROOT
ATOM      1  C   LIG A   1      -2.125   6.772 128.606  0.00  0.00    +0.048 C 
ATOM      2  C   LIG A   1      -2.759   5.725 129.496  0.00  0.00    -0.002 A 
ATOM      3  C   LIG A   1      -3.397   4.649 128.909  0.00  0.00    +0.128 A 
ATOM      4  C   LIG A   1      -3.725   3.484 129.638  0.00  0.00    +0.001 A 
ATOM      5  C   LIG A   1      -4.072   2.227 128.908  0.00  0.00    +0.043 C 
ATOM      6  C   LIG A   1      -4.339   2.456 127.437  0.00  0.00    +0.052 C 
ATOM      7  C   LIG A   1      -3.480   3.587 126.822  0.00  0.00    +0.108 C 
ATOM      8  O   LIG A   1      -3.691   4.778 127.563  0.00  0.00    -0.485 OA
ATOM      9  C   LIG A   1      -1.958   3.340 126.764  0.00  0.00    +0.056 C 
ATOM     10  C   LIG A   1      -3.582   3.515 131.055  0.00  0.00    -0.002 A 
ATOM     11  C   LIG A   1      -3.111   4.678 131.649  0.00  0.00    +0.123 A 
ATOM     12  C   LIG A   1      -2.645   5.784 130.910  0.00  0.00    -0.002 A 
ATOM     13  C   LIG A   1      -2.045   6.978 131.581  0.00  0.00    +0.048 C 
ATOM     14  C   LIG A   1      -3.986   2.318 131.889  0.00  0.00    +0.048 C 
ENDROOT
BRANCH  11  15
ATOM     15  O   LIG A   1      -3.069   4.792 133.032  0.00  0.00    -0.506 OA
ATOM     16  H   LIG A   1      -3.705   5.476 133.284  0.00  0.00    +0.292 HD
ENDBRANCH  11  15
BRANCH   7  17
ATOM     17  C   LIG A   1      -3.980   3.754 125.360  0.00  0.00    +0.048 C 
BRANCH  17  18
ATOM     18  C   LIG A   1      -5.493   3.723 125.098  0.00  0.00    +0.004 C 
BRANCH  18  19
ATOM     19  C   LIG A   1      -5.979   4.296 123.742  0.00  0.00    +0.003 C 
BRANCH  19  20
ATOM     20  C   LIG A   1      -6.286   3.316 122.574  0.00  0.00    -0.014 C 
ATOM     21  C   LIG A   1      -5.793   3.941 121.251  0.00  0.00    +0.007 C 
BRANCH  20  22
ATOM     22  C   LIG A   1      -7.775   2.953 122.438  0.00  0.00    +0.003 C 
BRANCH  22  23
ATOM     23  C   LIG A   1      -8.412   2.520 123.753  0.00  0.00    +0.000 C 
BRANCH  23  24
ATOM     24  C   LIG A   1      -8.211   1.054 124.098  0.00  0.00    +0.003 C 
BRANCH  24  25
ATOM     25  C   LIG A   1      -7.639   0.739 125.499  0.00  0.00    -0.014 C 
ATOM     26  C   LIG A   1      -6.260   0.110 125.259  0.00  0.00    +0.007 C 
BRANCH  25  27
ATOM     27  C   LIG A   1      -8.547  -0.169 126.377  0.00  0.00    +0.003 C 
BRANCH  27  28
ATOM     28  C   LIG A   1      -8.138  -1.657 126.314  0.00  0.00    +0.000 C 
BRANCH  28  29
ATOM     29  C   LIG A   1      -9.215  -2.586 125.741  0.00  0.00    +0.003 C 
BRANCH  29  30
ATOM     30  C   LIG A   1      -8.697  -3.503 124.603  0.00  0.00    -0.017 C 
ATOM     31  C   LIG A   1      -9.585  -3.317 123.369  0.00  0.00    +0.007 C 
ATOM     32  C   LIG A   1      -7.219  -3.264 124.267  0.00  0.00    +0.007 C 
ENDBRANCH  29  30
ENDBRANCH  28  29
ENDBRANCH  27  28
ENDBRANCH  25  27
ENDBRANCH  24  25
ENDBRANCH  23  24
ENDBRANCH  22  23
ENDBRANCH  20  22
ENDBRANCH  19  20
ENDBRANCH  18  19
ENDBRANCH  17  18
ENDBRANCH   7  17
TORSDOF 13
ENDMDL
MODEL 5
REMARK VINA RESULT:      -6.5      2.461      5.871
REMARK  Name = NuBBE_1296
REMARK  21 active torsions:
REMARK  status: ('A' for Active; 'I' for Inactive)
REMARK    1  A    between atoms: C_1  and  C_2
REMARK    2  A    between atoms: C_7  and  C_9
REMARK    3  A    between atoms: C_7  and  C_27
REMARK    4  A    between atoms: C_9  and  C_10
REMARK    5  A    between atoms: C_10  and  C_11
REMARK    6  A    between atoms: C_11  and  C_12
REMARK    7  A    between atoms: C_12  and  C_14
REMARK    8  A    between atoms: C_12  and  C_26
REMARK    9  A    between atoms: C_14  and  C_15
REMARK   10  A    between atoms: C_15  and  C_16
REMARK   11  A    between atoms: C_16  and  C_17
REMARK   12  A    between atoms: C_17  and  C_19
REMARK   13  A    between atoms: C_17  and  C_25
REMARK   14  A    between atoms: C_19  and  C_20
REMARK   15  A    between atoms: C_20  and  C_21
REMARK   16  A    between atoms: C_21  and  C_22
REMARK   17  A    between atoms: C_22  and  C_23
REMARK   18  A    between atoms: C_22  and  C_24
REMARK   19  A    between atoms: C_28  and  C_33
REMARK   20  A    between atoms: C_29  and  O_32
REMARK   21  A    between atoms: C_30  and  C_31
REMARK                            x       y       z     vdW  Elec       q    Type
REMARK                         _______ _______ _______ _____ _____    ______ ____
ROOT
ATOM      1  C   LIG A   1      -5.462   1.084 130.492  0.00  0.00    +0.048 C 
ATOM      2  C   LIG A   1      -4.602   2.192 129.924  0.00  0.00    -0.002 A 
ATOM      3  C   LIG A   1      -4.564   2.369 128.554  0.00  0.00    +0.128 A 
ATOM      4  C   LIG A   1      -4.061   3.551 127.966  0.00  0.00    +0.001 A 
ATOM      5  C   LIG A   1      -4.367   3.854 126.534  0.00  0.00    +0.043 C 
ATOM      6  C   LIG A   1      -4.930   2.664 125.790  0.00  0.00    +0.052 C 
ATOM      7  C   LIG A   1      -5.809   1.743 126.671  0.00  0.00    +0.108 C 
ATOM      8  O   LIG A   1      -5.050   1.321 127.792  0.00  0.00    -0.485 OA
ATOM      9  C   LIG A   1      -7.124   2.351 127.202  0.00  0.00    +0.056 C 
ATOM     10  C   LIG A   1      -3.388   4.486 128.804  0.00  0.00    -0.002 A 
ATOM     11  C   LIG A   1      -3.273   4.200 130.158  0.00  0.00    +0.123 A 
ATOM     12  C   LIG A   1      -3.903   3.096 130.766  0.00  0.00    -0.002 A 
ATOM     13  C   LIG A   1      -3.847   2.879 132.245  0.00  0.00    +0.048 C 
ATOM     14  C   LIG A   1      -2.770   5.735 128.213  0.00  0.00    +0.048 C 
ENDROOT
BRANCH  11  15
ATOM     15  O   LIG A   1      -2.524   5.023 130.987  0.00  0.00    -0.506 OA
ATOM     16  H   LIG A   1      -2.627   5.929 130.663  0.00  0.00    +0.292 HD
ENDBRANCH  11  15
BRANCH   7  17
ATOM     17  C   LIG A   1      -6.185   0.531 125.775  0.00  0.00    +0.048 C 
BRANCH  17  18
ATOM     18  C   LIG A   1      -5.597  -0.845 126.122  0.00  0.00    +0.004 C 
BRANCH  18  19
ATOM     19  C   LIG A   1      -5.024  -1.676 124.946  0.00  0.00    +0.003 C 
BRANCH  19  20
ATOM     20  C   LIG A   1      -5.849  -2.875 124.395  0.00  0.00    -0.014 C 
ATOM     21  C   LIG A   1      -4.878  -3.939 123.839  0.00  0.00    +0.007 C 
BRANCH  20  22
ATOM     22  C   LIG A   1      -6.858  -2.489 123.300  0.00  0.00    +0.003 C 
BRANCH  22  23
ATOM     23  C   LIG A   1      -8.309  -2.667 123.729  0.00  0.00    +0.000 C 
BRANCH  23  24
ATOM     24  C   LIG A   1      -8.517  -3.673 124.847  0.00  0.00    +0.003 C 
BRANCH  24  25
ATOM     25  C   LIG A   1      -9.157  -3.145 126.152  0.00  0.00    -0.014 C 
ATOM     26  C   LIG A   1      -9.154  -1.615 126.033  0.00  0.00    +0.007 C 
BRANCH  25  27
ATOM     27  C   LIG A   1      -8.458  -3.628 127.455  0.00  0.00    +0.003 C 
BRANCH  27  28
ATOM     28  C   LIG A   1      -8.091  -2.463 128.399  0.00  0.00    +0.000 C 
BRANCH  28  29
ATOM     29  C   LIG A   1      -7.531  -2.901 129.758  0.00  0.00    +0.003 C 
BRANCH  29  30
ATOM     30  C   LIG A   1      -6.199  -3.688 129.652  0.00  0.00    -0.017 C 
ATOM     31  C   LIG A   1      -5.093  -2.737 129.185  0.00  0.00    +0.007 C 
ATOM     32  C   LIG A   1      -5.814  -4.393 130.960  0.00  0.00    +0.007 C 
ENDBRANCH  29  30
ENDBRANCH  28  29
ENDBRANCH  27  28
ENDBRANCH  25  27
ENDBRANCH  24  25
ENDBRANCH  23  24
ENDBRANCH  22  23
ENDBRANCH  20  22
ENDBRANCH  19  20
ENDBRANCH  18  19
ENDBRANCH  17  18
ENDBRANCH   7  17
TORSDOF 13
ENDMDL
MODEL 6
REMARK VINA RESULT:      -6.3      1.517      3.671
REMARK  Name = NuBBE_1296
REMARK  21 active torsions:
REMARK  status: ('A' for Active; 'I' for Inactive)
REMARK    1  A    between atoms: C_1  and  C_2
REMARK    2  A    between atoms: C_7  and  C_9
REMARK    3  A    between atoms: C_7  and  C_27
REMARK    4  A    between atoms: C_9  and  C_10
REMARK    5  A    between atoms: C_10  and  C_11
REMARK    6  A    between atoms: C_11  and  C_12
REMARK    7  A    between atoms: C_12  and  C_14
REMARK    8  A    between atoms: C_12  and  C_26
REMARK    9  A    between atoms: C_14  and  C_15
REMARK   10  A    between atoms: C_15  and  C_16
REMARK   11  A    between atoms: C_16  and  C_17
REMARK   12  A    between atoms: C_17  and  C_19
REMARK   13  A    between atoms: C_17  and  C_25
REMARK   14  A    between atoms: C_19  and  C_20
REMARK   15  A    between atoms: C_20  and  C_21
REMARK   16  A    between atoms: C_21  and  C_22
REMARK   17  A    between atoms: C_22  and  C_23
REMARK   18  A    between atoms: C_22  and  C_24
REMARK   19  A    between atoms: C_28  and  C_33
REMARK   20  A    between atoms: C_29  and  O_32
REMARK   21  A    between atoms: C_30  and  C_31
REMARK                            x       y       z     vdW  Elec       q    Type
REMARK                         _______ _______ _______ _____ _____    ______ ____
ROOT
ATOM      1  C   LIG A   1      -9.005   1.158 126.565  0.00  0.00    +0.048 C 
ATOM      2  C   LIG A   1      -8.429   1.999 125.448  0.00  0.00    -0.002 A 
ATOM      3  C   LIG A   1      -7.266   2.709 125.680  0.00  0.00    +0.128 A 
ATOM      4  C   LIG A   1      -6.495   3.248 124.626  0.00  0.00    +0.001 A 
ATOM      5  C   LIG A   1      -5.087   3.679 124.884  0.00  0.00    +0.043 C 
ATOM      6  C   LIG A   1      -4.764   3.775 126.358  0.00  0.00    +0.052 C 
ATOM      7  C   LIG A   1      -5.503   2.727 127.224  0.00  0.00    +0.108 C 
ATOM      8  O   LIG A   1      -6.899   2.856 127.006  0.00  0.00    -0.485 OA
ATOM      9  C   LIG A   1      -5.131   1.249 126.982  0.00  0.00    +0.056 C 
ATOM     10  C   LIG A   1      -7.049   3.237 123.314  0.00  0.00    -0.002 A 
ATOM     11  C   LIG A   1      -8.308   2.682 123.130  0.00  0.00    +0.123 A 
ATOM     12  C   LIG A   1      -9.010   2.013 124.153  0.00  0.00    -0.002 A 
ATOM     13  C   LIG A   1     -10.316   1.334 123.891  0.00  0.00    +0.048 C 
ATOM     14  C   LIG A   1      -6.294   3.864 122.161  0.00  0.00    +0.048 C 
ENDROOT
BRANCH  11  15
ATOM     15  O   LIG A   1      -8.933   2.757 121.893  0.00  0.00    -0.506 OA
ATOM     16  H   LIG A   1      -9.880   2.623 122.041  0.00  0.00    +0.292 HD
ENDBRANCH  11  15
BRANCH   7  17
ATOM     17  C   LIG A   1      -5.144   3.062 128.698  0.00  0.00    +0.048 C 
BRANCH  17  18
ATOM     18  C   LIG A   1      -6.218   3.710 129.582  0.00  0.00    +0.004 C 
BRANCH  18  19
ATOM     19  C   LIG A   1      -6.951   2.783 130.584  0.00  0.00    +0.003 C 
BRANCH  19  20
ATOM     20  C   LIG A   1      -8.304   2.138 130.166  0.00  0.00    -0.014 C 
ATOM     21  C   LIG A   1      -9.420   2.665 131.095  0.00  0.00    +0.007 C 
BRANCH  20  22
ATOM     22  C   LIG A   1      -8.301   0.600 130.201  0.00  0.00    +0.003 C 
BRANCH  22  23
ATOM     23  C   LIG A   1      -6.905  -0.002 130.100  0.00  0.00    +0.000 C 
BRANCH  23  24
ATOM     24  C   LIG A   1      -6.828  -1.282 129.286  0.00  0.00    +0.003 C 
BRANCH  24  25
ATOM     25  C   LIG A   1      -7.924  -2.342 129.548  0.00  0.00    -0.014 C 
ATOM     26  C   LIG A   1      -7.460  -3.131 130.779  0.00  0.00    +0.007 C 
BRANCH  25  27
ATOM     27  C   LIG A   1      -8.221  -3.274 128.338  0.00  0.00    +0.003 C 
BRANCH  27  28
ATOM     28  C   LIG A   1      -8.136  -2.535 126.985  0.00  0.00    +0.000 C 
BRANCH  28  29
ATOM     29  C   LIG A   1      -9.197  -2.960 125.963  0.00  0.00    +0.003 C 
BRANCH  29  30
ATOM     30  C   LIG A   1      -9.067  -2.233 124.600  0.00  0.00    -0.017 C 
ATOM     31  C   LIG A   1      -7.648  -1.675 124.465  0.00  0.00    +0.007 C 
ATOM     32  C   LIG A   1      -9.431  -3.126 123.407  0.00  0.00    +0.007 C 
ENDBRANCH  29  30
ENDBRANCH  28  29
ENDBRANCH  27  28
ENDBRANCH  25  27
ENDBRANCH  24  25
ENDBRANCH  23  24
ENDBRANCH  22  23
ENDBRANCH  20  22
ENDBRANCH  19  20
ENDBRANCH  18  19
ENDBRANCH  17  18
ENDBRANCH   7  17
TORSDOF 13
ENDMDL
MODEL 7
REMARK VINA RESULT:      -6.3      1.872      5.436
REMARK  Name = NuBBE_1296
REMARK  21 active torsions:
REMARK  status: ('A' for Active; 'I' for Inactive)
REMARK    1  A    between atoms: C_1  and  C_2
REMARK    2  A    between atoms: C_7  and  C_9
REMARK    3  A    between atoms: C_7  and  C_27
REMARK    4  A    between atoms: C_9  and  C_10
REMARK    5  A    between atoms: C_10  and  C_11
REMARK    6  A    between atoms: C_11  and  C_12
REMARK    7  A    between atoms: C_12  and  C_14
REMARK    8  A    between atoms: C_12  and  C_26
REMARK    9  A    between atoms: C_14  and  C_15
REMARK   10  A    between atoms: C_15  and  C_16
REMARK   11  A    between atoms: C_16  and  C_17
REMARK   12  A    between atoms: C_17  and  C_19
REMARK   13  A    between atoms: C_17  and  C_25
REMARK   14  A    between atoms: C_19  and  C_20
REMARK   15  A    between atoms: C_20  and  C_21
REMARK   16  A    between atoms: C_21  and  C_22
REMARK   17  A    between atoms: C_22  and  C_23
REMARK   18  A    between atoms: C_22  and  C_24
REMARK   19  A    between atoms: C_28  and  C_33
REMARK   20  A    between atoms: C_29  and  O_32
REMARK   21  A    between atoms: C_30  and  C_31
REMARK                            x       y       z     vdW  Elec       q    Type
REMARK                         _______ _______ _______ _____ _____    ______ ____
ROOT
ATOM      1  C   LIG A   1      -4.109   3.580 125.885  0.00  0.00    +0.048 C 
ATOM      2  C   LIG A   1      -5.368   3.658 126.720  0.00  0.00    -0.002 A 
ATOM      3  C   LIG A   1      -6.454   2.881 126.363  0.00  0.00    +0.128 A 
ATOM      4  C   LIG A   1      -7.530   2.648 127.248  0.00  0.00    +0.001 A 
ATOM      5  C   LIG A   1      -8.486   1.532 126.971  0.00  0.00    +0.043 C 
ATOM      6  C   LIG A   1      -8.355   0.980 125.569  0.00  0.00    +0.052 C 
ATOM      7  C   LIG A   1      -6.907   1.012 125.025  0.00  0.00    +0.108 C 
ATOM      8  O   LIG A   1      -6.423   2.343 125.088  0.00  0.00    -0.485 OA
ATOM      9  C   LIG A   1      -5.882   0.111 125.746  0.00  0.00    +0.056 C 
ATOM     10  C   LIG A   1      -7.587   3.405 128.453  0.00  0.00    -0.002 A 
ATOM     11  C   LIG A   1      -6.576   4.321 128.709  0.00  0.00    +0.123 A 
ATOM     12  C   LIG A   1      -5.429   4.446 127.899  0.00  0.00    -0.002 A 
ATOM     13  C   LIG A   1      -4.309   5.368 128.265  0.00  0.00    +0.048 C 
ATOM     14  C   LIG A   1      -8.755   3.243 129.402  0.00  0.00    +0.048 C 
ENDROOT
BRANCH  11  15
ATOM     15  O   LIG A   1      -6.655   5.162 129.810  0.00  0.00    -0.506 OA
ATOM     16  H   LIG A   1      -5.776   5.545 129.943  0.00  0.00    +0.292 HD
ENDBRANCH  11  15
BRANCH   7  17
ATOM     17  C   LIG A   1      -6.995   0.529 123.551  0.00  0.00    +0.048 C 
BRANCH  17  18
ATOM     18  C   LIG A   1      -6.690  -0.945 123.246  0.00  0.00    +0.004 C 
BRANCH  18  19
ATOM     19  C   LIG A   1      -7.876  -1.818 122.762  0.00  0.00    +0.003 C 
BRANCH  19  20
ATOM     20  C   LIG A   1      -8.166  -3.165 123.484  0.00  0.00    -0.014 C 
ATOM     21  C   LIG A   1      -9.689  -3.423 123.474  0.00  0.00    +0.007 C 
BRANCH  20  22
ATOM     22  C   LIG A   1      -7.653  -3.222 124.933  0.00  0.00    +0.003 C 
BRANCH  22  23
ATOM     23  C   LIG A   1      -8.662  -2.706 125.950  0.00  0.00    +0.000 C 
BRANCH  23  24
ATOM     24  C   LIG A   1      -8.058  -2.276 127.276  0.00  0.00    +0.003 C 
BRANCH  24  25
ATOM     25  C   LIG A   1      -8.079  -3.314 128.422  0.00  0.00    -0.014 C 
ATOM     26  C   LIG A   1      -9.359  -4.135 128.223  0.00  0.00    +0.007 C 
BRANCH  25  27
ATOM     27  C   LIG A   1      -7.998  -2.699 129.849  0.00  0.00    +0.003 C 
BRANCH  27  28
ATOM     28  C   LIG A   1      -7.258  -1.344 129.871  0.00  0.00    +0.000 C 
BRANCH  28  29
ATOM     29  C   LIG A   1      -8.034  -0.210 130.552  0.00  0.00    +0.003 C 
BRANCH  29  30
ATOM     30  C   LIG A   1      -7.229   0.505 131.668  0.00  0.00    -0.017 C 
ATOM     31  C   LIG A   1      -6.073   1.281 131.030  0.00  0.00    +0.007 C 
ATOM     32  C   LIG A   1      -8.098   1.417 132.544  0.00  0.00    +0.007 C 
ENDBRANCH  29  30
ENDBRANCH  28  29
ENDBRANCH  27  28
ENDBRANCH  25  27
ENDBRANCH  24  25
ENDBRANCH  23  24
ENDBRANCH  22  23
ENDBRANCH  20  22
ENDBRANCH  19  20
ENDBRANCH  18  19
ENDBRANCH  17  18
ENDBRANCH   7  17
TORSDOF 13
ENDMDL
MODEL 8
REMARK VINA RESULT:      -6.3      3.134      7.591
REMARK  Name = NuBBE_1296
REMARK  21 active torsions:
REMARK  status: ('A' for Active; 'I' for Inactive)
REMARK    1  A    between atoms: C_1  and  C_2
REMARK    2  A    between atoms: C_7  and  C_9
REMARK    3  A    between atoms: C_7  and  C_27
REMARK    4  A    between atoms: C_9  and  C_10
REMARK    5  A    between atoms: C_10  and  C_11
REMARK    6  A    between atoms: C_11  and  C_12
REMARK    7  A    between atoms: C_12  and  C_14
REMARK    8  A    between atoms: C_12  and  C_26
REMARK    9  A    between atoms: C_14  and  C_15
REMARK   10  A    between atoms: C_15  and  C_16
REMARK   11  A    between atoms: C_16  and  C_17
REMARK   12  A    between atoms: C_17  and  C_19
REMARK   13  A    between atoms: C_17  and  C_25
REMARK   14  A    between atoms: C_19  and  C_20
REMARK   15  A    between atoms: C_20  and  C_21
REMARK   16  A    between atoms: C_21  and  C_22
REMARK   17  A    between atoms: C_22  and  C_23
REMARK   18  A    between atoms: C_22  and  C_24
REMARK   19  A    between atoms: C_28  and  C_33
REMARK   20  A    between atoms: C_29  and  O_32
REMARK   21  A    between atoms: C_30  and  C_31
REMARK                            x       y       z     vdW  Elec       q    Type
REMARK                         _______ _______ _______ _____ _____    ______ ____
ROOT
ATOM      1  C   LIG A   1      -5.076   0.545 131.005  0.00  0.00    +0.048 C 
ATOM      2  C   LIG A   1      -4.758  -0.770 131.682  0.00  0.00    -0.002 A 
ATOM      3  C   LIG A   1      -5.412  -1.912 131.258  0.00  0.00    +0.128 A 
ATOM      4  C   LIG A   1      -4.955  -3.205 131.599  0.00  0.00    +0.001 A 
ATOM      5  C   LIG A   1      -5.457  -4.391 130.839  0.00  0.00    +0.043 C 
ATOM      6  C   LIG A   1      -6.663  -4.073 129.984  0.00  0.00    +0.052 C 
ATOM      7  C   LIG A   1      -6.652  -2.637 129.407  0.00  0.00    +0.108 C 
ATOM      8  O   LIG A   1      -6.537  -1.714 130.478  0.00  0.00    -0.485 OA
ATOM      9  C   LIG A   1      -5.534  -2.313 128.393  0.00  0.00    +0.056 C 
ATOM     10  C   LIG A   1      -3.923  -3.319 132.574  0.00  0.00    -0.002 A 
ATOM     11  C   LIG A   1      -3.403  -2.158 133.128  0.00  0.00    +0.123 A 
ATOM     12  C   LIG A   1      -3.754  -0.868 132.680  0.00  0.00    -0.002 A 
ATOM     13  C   LIG A   1      -3.095   0.357 133.227  0.00  0.00    +0.048 C 
ATOM     14  C   LIG A   1      -3.446  -4.683 133.025  0.00  0.00    +0.048 C 
ENDROOT
BRANCH  11  15
ATOM     15  O   LIG A   1      -2.483  -2.227 134.165  0.00  0.00    -0.506 OA
ATOM     16  H   LIG A   1      -1.670  -1.802 133.856  0.00  0.00    +0.292 HD
ENDBRANCH  11  15
BRANCH   7  17
ATOM     17  C   LIG A   1      -8.010  -2.462 128.674  0.00  0.00    +0.048 C 
BRANCH  17  18
ATOM     18  C   LIG A   1      -8.406  -3.498 127.612  0.00  0.00    +0.004 C 
BRANCH  18  19
ATOM     19  C   LIG A   1      -8.908  -2.949 126.253  0.00  0.00    +0.003 C 
BRANCH  19  20
ATOM     20  C   LIG A   1      -8.475  -3.665 124.942  0.00  0.00    -0.014 C 
ATOM     21  C   LIG A   1      -6.997  -3.328 124.649  0.00  0.00    +0.007 C 
BRANCH  20  22
ATOM     22  C   LIG A   1      -9.330  -3.297 123.717  0.00  0.00    +0.003 C 
BRANCH  22  23
ATOM     23  C   LIG A   1      -8.700  -2.217 122.846  0.00  0.00    +0.000 C 
BRANCH  23  24
ATOM     24  C   LIG A   1      -9.431  -0.886 122.867  0.00  0.00    +0.003 C 
BRANCH  24  25
ATOM     25  C   LIG A   1      -8.782   0.255 123.684  0.00  0.00    -0.014 C 
ATOM     26  C   LIG A   1      -9.336   1.560 123.099  0.00  0.00    +0.007 C 
BRANCH  25  27
ATOM     27  C   LIG A   1      -7.226   0.236 123.695  0.00  0.00    +0.003 C 
BRANCH  27  28
ATOM     28  C   LIG A   1      -6.641   0.387 125.116  0.00  0.00    +0.000 C 
BRANCH  28  29
ATOM     29  C   LIG A   1      -7.692   0.541 126.222  0.00  0.00    +0.003 C 
BRANCH  29  30
ATOM     30  C   LIG A   1      -7.088   0.915 127.599  0.00  0.00    -0.017 C 
ATOM     31  C   LIG A   1      -6.141   2.105 127.422  0.00  0.00    +0.007 C 
ATOM     32  C   LIG A   1      -8.155   1.206 128.663  0.00  0.00    +0.007 C 
ENDBRANCH  29  30
ENDBRANCH  28  29
ENDBRANCH  27  28
ENDBRANCH  25  27
ENDBRANCH  24  25
ENDBRANCH  23  24
ENDBRANCH  22  23
ENDBRANCH  20  22
ENDBRANCH  19  20
ENDBRANCH  18  19
ENDBRANCH  17  18
ENDBRANCH   7  17
TORSDOF 13
ENDMDL
MODEL 9
REMARK VINA RESULT:      -6.3      1.686      5.319
REMARK  Name = NuBBE_1296
REMARK  21 active torsions:
REMARK  status: ('A' for Active; 'I' for Inactive)
REMARK    1  A    between atoms: C_1  and  C_2
REMARK    2  A    between atoms: C_7  and  C_9
REMARK    3  A    between atoms: C_7  and  C_27
REMARK    4  A    between atoms: C_9  and  C_10
REMARK    5  A    between atoms: C_10  and  C_11
REMARK    6  A    between atoms: C_11  and  C_12
REMARK    7  A    between atoms: C_12  and  C_14
REMARK    8  A    between atoms: C_12  and  C_26
REMARK    9  A    between atoms: C_14  and  C_15
REMARK   10  A    between atoms: C_15  and  C_16
REMARK   11  A    between atoms: C_16  and  C_17
REMARK   12  A    between atoms: C_17  and  C_19
REMARK   13  A    between atoms: C_17  and  C_25
REMARK   14  A    between atoms: C_19  and  C_20
REMARK   15  A    between atoms: C_20  and  C_21
REMARK   16  A    between atoms: C_21  and  C_22
REMARK   17  A    between atoms: C_22  and  C_23
REMARK   18  A    between atoms: C_22  and  C_24
REMARK   19  A    between atoms: C_28  and  C_33
REMARK   20  A    between atoms: C_29  and  O_32
REMARK   21  A    between atoms: C_30  and  C_31
REMARK                            x       y       z     vdW  Elec       q    Type
REMARK                         _______ _______ _______ _____ _____    ______ ____
ROOT
ATOM      1  C   LIG A   1      -8.659   1.642 127.729  0.00  0.00    +0.048 C 
ATOM      2  C   LIG A   1      -7.646   2.290 126.810  0.00  0.00    -0.002 A 
ATOM      3  C   LIG A   1      -7.498   1.795 125.528  0.00  0.00    +0.128 A 
ATOM      4  C   LIG A   1      -6.830   2.522 124.517  0.00  0.00    +0.001 A 
ATOM      5  C   LIG A   1      -7.006   2.132 123.085  0.00  0.00    +0.043 C 
ATOM      6  C   LIG A   1      -7.648   0.772 122.922  0.00  0.00    +0.052 C 
ATOM      7  C   LIG A   1      -8.679   0.438 124.026  0.00  0.00    +0.108 C 
ATOM      8  O   LIG A   1      -8.048   0.547 125.291  0.00  0.00    -0.485 OA
ATOM      9  C   LIG A   1      -9.951   1.312 124.066  0.00  0.00    +0.056 C 
ATOM     10  C   LIG A   1      -6.114   3.694 124.894  0.00  0.00    -0.002 A 
ATOM     11  C   LIG A   1      -6.120   4.076 126.228  0.00  0.00    +0.123 A 
ATOM     12  C   LIG A   1      -6.908   3.435 127.207  0.00  0.00    -0.002 A 
ATOM     13  C   LIG A   1      -6.973   3.940 128.613  0.00  0.00    +0.048 C 
ATOM     14  C   LIG A   1      -5.324   4.471 123.862  0.00  0.00    +0.048 C 
ENDROOT
BRANCH  11  15
ATOM     15  O   LIG A   1      -5.340   5.141 126.657  0.00  0.00    -0.506 OA
ATOM     16  H   LIG A   1      -5.365   5.144 127.624  0.00  0.00    +0.292 HD
ENDBRANCH  11  15
BRANCH   7  17
ATOM     17  C   LIG A   1      -9.129  -1.025 123.761  0.00  0.00    +0.048 C 
BRANCH  17  18
ATOM     18  C   LIG A   1      -8.195  -1.942 122.959  0.00  0.00    +0.004 C 
BRANCH  18  19
ATOM     19  C   LIG A   1      -7.254  -2.866 123.773  0.00  0.00    +0.003 C 
BRANCH  19  20
ATOM     20  C   LIG A   1      -5.886  -2.309 124.262  0.00  0.00    -0.014 C 
ATOM     21  C   LIG A   1      -4.750  -3.141 123.628  0.00  0.00    +0.007 C 
BRANCH  20  22
ATOM     22  C   LIG A   1      -5.721  -2.311 125.791  0.00  0.00    +0.003 C 
BRANCH  22  23
ATOM     23  C   LIG A   1      -7.040  -2.162 126.540  0.00  0.00    +0.000 C 
BRANCH  23  24
ATOM     24  C   LIG A   1      -6.893  -1.896 128.028  0.00  0.00    +0.003 C 
BRANCH  24  25
ATOM     25  C   LIG A   1      -7.407  -2.995 128.987  0.00  0.00    -0.014 C 
ATOM     26  C   LIG A   1      -8.628  -3.618 128.298  0.00  0.00    +0.007 C 
BRANCH  25  27
ATOM     27  C   LIG A   1      -7.741  -2.494 130.422  0.00  0.00    +0.003 C 
BRANCH  27  28
ATOM     28  C   LIG A   1      -7.595  -0.963 130.565  0.00  0.00    +0.000 C 
BRANCH  28  29
ATOM     29  C   LIG A   1      -8.745  -0.285 131.319  0.00  0.00    +0.003 C 
BRANCH  29  30
ATOM     30  C   LIG A   1      -8.687   1.264 131.268  0.00  0.00    -0.017 C 
ATOM     31  C   LIG A   1      -9.774   1.834 132.183  0.00  0.00    +0.007 C 
ATOM     32  C   LIG A   1      -7.305   1.824 131.628  0.00  0.00    +0.007 C 
ENDBRANCH  29  30
ENDBRANCH  28  29
ENDBRANCH  27  28
ENDBRANCH  25  27
ENDBRANCH  24  25
ENDBRANCH  23  24
ENDBRANCH  22  23
ENDBRANCH  20  22
ENDBRANCH  19  20
ENDBRANCH  18  19
ENDBRANCH  17  18
ENDBRANCH   7  17
TORSDOF 13
ENDMDL
