MODEL 1
REMARK VINA RESULT:      -7.0      0.000      0.000
REMARK  Name = NuBBE_1240
REMARK  4 active torsions:
REMARK  status: ('A' for Active; 'I' for Inactive)
REMARK    1  A    between atoms: C_4  and  C_5
REMARK    2  A    between atoms: N_11  and  C_12
REMARK    3  A    between atoms: C_15  and  O_16
REMARK    4  A    between atoms: O_16  and  C_17
REMARK                            x       y       z     vdW  Elec       q    Type
REMARK                         _______ _______ _______ _____ _____    ______ ____
ROOT
ATOM      1  O   LIG A   1      -8.750   3.803 125.043  0.00  0.00    -0.287 OA
ATOM      2  C   LIG A   1      -8.035   2.823 125.213  0.00  0.00    +0.190 A 
ATOM      3  C   LIG A   1      -8.529   1.475 124.885  0.00  0.00    +0.077 A 
ATOM      4  C   LIG A   1      -7.705   0.428 125.034  0.00  0.00    +0.053 A 
ATOM      5  N   LIG A   1      -6.383   0.518 125.478  0.00  0.00    -0.343 N 
ATOM      6  C   LIG A   1      -5.471  -0.628 125.561  0.00  0.00    +0.149 C 
ATOM      7  C   LIG A   1      -5.876   1.778 125.901  0.00  0.00    +0.056 A 
ATOM      8  C   LIG A   1      -4.600   1.951 126.467  0.00  0.00    +0.072 A 
ATOM      9  C   LIG A   1      -4.127   3.209 126.875  0.00  0.00    +0.122 A 
ATOM     10  C   LIG A   1      -4.933   4.332 126.720  0.00  0.00    +0.046 A 
ATOM     11  C   LIG A   1      -6.206   4.196 126.169  0.00  0.00    +0.017 A 
ATOM     12  C   LIG A   1      -6.670   2.933 125.771  0.00  0.00    +0.045 A 
ENDROOT
BRANCH   4  13
ATOM     13  C   LIG A   1      -8.289  -0.891 124.725  0.00  0.00    -0.001 A 
ATOM     14  C   LIG A   1      -8.290  -1.364 123.405  0.00  0.00    +0.010 A 
ATOM     15  C   LIG A   1      -8.837  -2.612 123.106  0.00  0.00    +0.001 A 
ATOM     16  C   LIG A   1      -9.387  -3.394 124.122  0.00  0.00    +0.000 A 
ATOM     17  C   LIG A   1      -9.386  -2.932 125.438  0.00  0.00    +0.001 A 
ATOM     18  C   LIG A   1      -8.836  -1.685 125.741  0.00  0.00    +0.010 A 
ENDBRANCH   4  13
BRANCH   9  19
ATOM     19  O   LIG A   1      -2.865   3.193 127.408  0.00  0.00    -0.495 OA
ATOM     20  C   LIG A   1      -1.781   3.089 126.492  0.00  0.00    +0.277 C 
ENDBRANCH   9  19
TORSDOF 2
ENDMDL
MODEL 2
REMARK VINA RESULT:      -6.8      3.426      5.858
REMARK  Name = NuBBE_1240
REMARK  4 active torsions:
REMARK  status: ('A' for Active; 'I' for Inactive)
REMARK    1  A    between atoms: C_4  and  C_5
REMARK    2  A    between atoms: N_11  and  C_12
REMARK    3  A    between atoms: C_15  and  O_16
REMARK    4  A    between atoms: O_16  and  C_17
REMARK                            x       y       z     vdW  Elec       q    Type
REMARK                         _______ _______ _______ _____ _____    ______ ____
ROOT
ATOM      1  O   LIG A   1      -9.745  -3.240 123.749  0.00  0.00    -0.287 OA
ATOM      2  C   LIG A   1      -9.204  -2.294 124.309  0.00  0.00    +0.190 A 
ATOM      3  C   LIG A   1      -8.907  -1.059 123.563  0.00  0.00    +0.077 A 
ATOM      4  C   LIG A   1      -8.362  -0.023 124.216  0.00  0.00    +0.053 A 
ATOM      5  N   LIG A   1      -8.054  -0.019 125.579  0.00  0.00    -0.343 N 
ATOM      6  C   LIG A   1      -7.531   1.150 126.293  0.00  0.00    +0.149 C 
ATOM      7  C   LIG A   1      -8.229  -1.212 126.335  0.00  0.00    +0.056 A 
ATOM      8  C   LIG A   1      -7.845  -1.341 127.681  0.00  0.00    +0.072 A 
ATOM      9  C   LIG A   1      -8.031  -2.532 128.402  0.00  0.00    +0.122 A 
ATOM     10  C   LIG A   1      -8.615  -3.631 127.778  0.00  0.00    +0.046 A 
ATOM     11  C   LIG A   1      -9.001  -3.540 126.442  0.00  0.00    +0.017 A 
ATOM     12  C   LIG A   1      -8.804  -2.346 125.732  0.00  0.00    +0.045 A 
ENDROOT
BRANCH   4  13
ATOM     13  C   LIG A   1      -8.055   1.160 123.389  0.00  0.00    -0.001 A 
ATOM     14  C   LIG A   1      -9.098   1.940 122.868  0.00  0.00    +0.010 A 
ATOM     15  C   LIG A   1      -8.816   3.062 122.090  0.00  0.00    +0.001 A 
ATOM     16  C   LIG A   1      -7.492   3.412 121.825  0.00  0.00    +0.000 A 
ATOM     17  C   LIG A   1      -6.449   2.644 122.342  0.00  0.00    +0.001 A 
ATOM     18  C   LIG A   1      -6.728   1.523 123.126  0.00  0.00    +0.010 A 
ENDBRANCH   4  13
BRANCH   9  19
ATOM     19  O   LIG A   1      -7.596  -2.483 129.699  0.00  0.00    -0.495 OA
ATOM     20  C   LIG A   1      -6.738  -3.532 130.131  0.00  0.00    +0.277 C 
ENDBRANCH   9  19
TORSDOF 2
ENDMDL
MODEL 3
REMARK VINA RESULT:      -6.7      7.258      8.941
REMARK  Name = NuBBE_1240
REMARK  4 active torsions:
REMARK  status: ('A' for Active; 'I' for Inactive)
REMARK    1  A    between atoms: C_4  and  C_5
REMARK    2  A    between atoms: N_11  and  C_12
REMARK    3  A    between atoms: C_15  and  O_16
REMARK    4  A    between atoms: O_16  and  C_17
REMARK                            x       y       z     vdW  Elec       q    Type
REMARK                         _______ _______ _______ _____ _____    ______ ____
ROOT
ATOM      1  O   LIG A   1      -6.287   7.117 131.318  0.00  0.00    -0.287 OA
ATOM      2  C   LIG A   1      -7.353   6.534 131.165  0.00  0.00    +0.190 A 
ATOM      3  C   LIG A   1      -8.476   7.204 130.489  0.00  0.00    +0.077 A 
ATOM      4  C   LIG A   1      -9.614   6.521 130.290  0.00  0.00    +0.053 A 
ATOM      5  N   LIG A   1      -9.818   5.194 130.676  0.00  0.00    -0.343 N 
ATOM      6  C   LIG A   1     -11.041   4.439 130.381  0.00  0.00    +0.149 C 
ATOM      7  C   LIG A   1      -8.807   4.522 131.417  0.00  0.00    +0.056 A 
ATOM      8  C   LIG A   1      -8.963   3.227 131.945  0.00  0.00    +0.072 A 
ATOM      9  C   LIG A   1      -7.946   2.589 132.672  0.00  0.00    +0.122 A 
ATOM     10  C   LIG A   1      -6.736   3.243 132.886  0.00  0.00    +0.046 A 
ATOM     11  C   LIG A   1      -6.550   4.529 132.383  0.00  0.00    +0.017 A 
ATOM     12  C   LIG A   1      -7.577   5.159 131.663  0.00  0.00    +0.045 A 
ENDROOT
BRANCH   4  13
ATOM     13  C   LIG A   1     -10.704   7.277 129.645  0.00  0.00    -0.001 A 
ATOM     14  C   LIG A   1     -10.661   7.531 128.266  0.00  0.00    +0.010 A 
ATOM     15  C   LIG A   1     -11.691   8.240 127.649  0.00  0.00    +0.001 A 
ATOM     16  C   LIG A   1     -12.769   8.702 128.404  0.00  0.00    +0.000 A 
ATOM     17  C   LIG A   1     -12.822   8.451 129.775  0.00  0.00    +0.001 A 
ATOM     18  C   LIG A   1     -11.795   7.737 130.394  0.00  0.00    +0.010 A 
ENDBRANCH   4  13
BRANCH   9  19
ATOM     19  O   LIG A   1      -8.268   1.334 133.115  0.00  0.00    -0.495 OA
ATOM     20  C   LIG A   1      -8.001   0.250 132.232  0.00  0.00    +0.277 C 
ENDBRANCH   9  19
TORSDOF 2
ENDMDL
MODEL 4
REMARK VINA RESULT:      -6.5      7.214      9.195
REMARK  Name = NuBBE_1240
REMARK  4 active torsions:
REMARK  status: ('A' for Active; 'I' for Inactive)
REMARK    1  A    between atoms: C_4  and  C_5
REMARK    2  A    between atoms: N_11  and  C_12
REMARK    3  A    between atoms: C_15  and  O_16
REMARK    4  A    between atoms: O_16  and  C_17
REMARK                            x       y       z     vdW  Elec       q    Type
REMARK                         _______ _______ _______ _____ _____    ______ ____
ROOT
ATOM      1  O   LIG A   1      -7.475   4.774 128.828  0.00  0.00    -0.287 OA
ATOM      2  C   LIG A   1      -8.350   5.194 129.576  0.00  0.00    +0.190 A 
ATOM      3  C   LIG A   1      -9.525   5.891 129.028  0.00  0.00    +0.077 A 
ATOM      4  C   LIG A   1     -10.490   6.294 129.868  0.00  0.00    +0.053 A 
ATOM      5  N   LIG A   1     -10.471   6.093 131.251  0.00  0.00    -0.343 N 
ATOM      6  C   LIG A   1     -11.571   6.471 132.144  0.00  0.00    +0.149 C 
ATOM      7  C   LIG A   1      -9.321   5.511 131.853  0.00  0.00    +0.056 A 
ATOM      8  C   LIG A   1      -9.160   5.370 133.243  0.00  0.00    +0.072 A 
ATOM      9  C   LIG A   1      -8.013   4.790 133.808  0.00  0.00    +0.122 A 
ATOM     10  C   LIG A   1      -6.992   4.332 132.980  0.00  0.00    +0.046 A 
ATOM     11  C   LIG A   1      -7.116   4.463 131.598  0.00  0.00    +0.017 A 
ATOM     12  C   LIG A   1      -8.264   5.050 131.046  0.00  0.00    +0.045 A 
ENDROOT
BRANCH   4  13
ATOM     13  C   LIG A   1     -11.612   7.023 129.245  0.00  0.00    -0.001 A 
ATOM     14  C   LIG A   1     -11.559   8.419 129.124  0.00  0.00    +0.010 A 
ATOM     15  C   LIG A   1     -12.614   9.113 128.532  0.00  0.00    +0.001 A 
ATOM     16  C   LIG A   1     -13.728   8.419 128.059  0.00  0.00    +0.000 A 
ATOM     17  C   LIG A   1     -13.786   7.030 128.173  0.00  0.00    +0.001 A 
ATOM     18  C   LIG A   1     -12.730   6.332 128.761  0.00  0.00    +0.010 A 
ENDBRANCH   4  13
BRANCH   9  19
ATOM     19  O   LIG A   1      -8.022   4.735 135.176  0.00  0.00    -0.495 OA
ATOM     20  C   LIG A   1      -7.475   5.852 135.869  0.00  0.00    +0.277 C 
ENDBRANCH   9  19
TORSDOF 2
ENDMDL
MODEL 5
REMARK VINA RESULT:      -6.5      2.159      6.490
REMARK  Name = NuBBE_1240
REMARK  4 active torsions:
REMARK  status: ('A' for Active; 'I' for Inactive)
REMARK    1  A    between atoms: C_4  and  C_5
REMARK    2  A    between atoms: N_11  and  C_12
REMARK    3  A    between atoms: C_15  and  O_16
REMARK    4  A    between atoms: O_16  and  C_17
REMARK                            x       y       z     vdW  Elec       q    Type
REMARK                         _______ _______ _______ _____ _____    ______ ____
ROOT
ATOM      1  O   LIG A   1      -6.890   3.396 122.283  0.00  0.00    -0.287 OA
ATOM      2  C   LIG A   1      -6.737   2.987 123.428  0.00  0.00    +0.190 A 
ATOM      3  C   LIG A   1      -5.713   3.585 124.300  0.00  0.00    +0.077 A 
ATOM      4  C   LIG A   1      -5.604   3.151 125.564  0.00  0.00    +0.053 A 
ATOM      5  N   LIG A   1      -6.409   2.161 126.133  0.00  0.00    -0.343 N 
ATOM      6  C   LIG A   1      -6.328   1.754 127.540  0.00  0.00    +0.149 C 
ATOM      7  C   LIG A   1      -7.353   1.478 125.317  0.00  0.00    +0.056 A 
ATOM      8  C   LIG A   1      -8.128   0.395 125.767  0.00  0.00    +0.072 A 
ATOM      9  C   LIG A   1      -9.053  -0.260 124.937  0.00  0.00    +0.122 A 
ATOM     10  C   LIG A   1      -9.223   0.167 123.623  0.00  0.00    +0.046 A 
ATOM     11  C   LIG A   1      -8.466   1.233 123.142  0.00  0.00    +0.017 A 
ATOM     12  C   LIG A   1      -7.541   1.875 123.979  0.00  0.00    +0.045 A 
ENDROOT
BRANCH   4  13
ATOM     13  C   LIG A   1      -4.526   3.770 126.358  0.00  0.00    -0.001 A 
ATOM     14  C   LIG A   1      -3.281   3.134 126.465  0.00  0.00    +0.010 A 
ATOM     15  C   LIG A   1      -2.255   3.715 127.210  0.00  0.00    +0.001 A 
ATOM     16  C   LIG A   1      -2.467   4.935 127.854  0.00  0.00    +0.000 A 
ATOM     17  C   LIG A   1      -3.701   5.576 127.750  0.00  0.00    +0.001 A 
ATOM     18  C   LIG A   1      -4.727   4.998 127.001  0.00  0.00    +0.010 A 
ENDBRANCH   4  13
BRANCH   9  19
ATOM     19  O   LIG A   1      -9.719  -1.295 125.537  0.00  0.00    -0.495 OA
ATOM     20  C   LIG A   1      -9.163  -2.596 125.379  0.00  0.00    +0.277 C 
ENDBRANCH   9  19
TORSDOF 2
ENDMDL
MODEL 6
REMARK VINA RESULT:      -6.4      4.215      5.548
REMARK  Name = NuBBE_1240
REMARK  4 active torsions:
REMARK  status: ('A' for Active; 'I' for Inactive)
REMARK    1  A    between atoms: C_4  and  C_5
REMARK    2  A    between atoms: N_11  and  C_12
REMARK    3  A    between atoms: C_15  and  O_16
REMARK    4  A    between atoms: O_16  and  C_17
REMARK                            x       y       z     vdW  Elec       q    Type
REMARK                         _______ _______ _______ _____ _____    ______ ____
ROOT
ATOM      1  O   LIG A   1      -9.493  -4.181 128.253  0.00  0.00    -0.287 OA
ATOM      2  C   LIG A   1      -8.546  -3.448 127.992  0.00  0.00    +0.190 A 
ATOM      3  C   LIG A   1      -8.111  -3.262 126.598  0.00  0.00    +0.077 A 
ATOM      4  C   LIG A   1      -7.105  -2.414 126.341  0.00  0.00    +0.053 A 
ATOM      5  N   LIG A   1      -6.428  -1.671 127.312  0.00  0.00    -0.343 N 
ATOM      6  C   LIG A   1      -5.382  -0.690 127.005  0.00  0.00    +0.149 C 
ATOM      7  C   LIG A   1      -6.737  -1.877 128.685  0.00  0.00    +0.056 A 
ATOM      8  C   LIG A   1      -6.037  -1.262 129.739  0.00  0.00    +0.072 A 
ATOM      9  C   LIG A   1      -6.365  -1.484 131.086  0.00  0.00    +0.122 A 
ATOM     10  C   LIG A   1      -7.418  -2.336 131.407  0.00  0.00    +0.046 A 
ATOM     11  C   LIG A   1      -8.128  -2.968 130.388  0.00  0.00    +0.017 A 
ATOM     12  C   LIG A   1      -7.786  -2.743 129.046  0.00  0.00    +0.045 A 
ENDROOT
BRANCH   4  13
ATOM     13  C   LIG A   1      -6.701  -2.317 124.926  0.00  0.00    -0.001 A 
ATOM     14  C   LIG A   1      -5.596  -3.045 124.461  0.00  0.00    +0.010 A 
ATOM     15  C   LIG A   1      -5.211  -2.962 123.123  0.00  0.00    +0.001 A 
ATOM     16  C   LIG A   1      -5.926  -2.151 122.241  0.00  0.00    +0.000 A 
ATOM     17  C   LIG A   1      -7.028  -1.427 122.694  0.00  0.00    +0.001 A 
ATOM     18  C   LIG A   1      -7.418  -1.512 124.032  0.00  0.00    +0.010 A 
ENDBRANCH   4  13
BRANCH   9  19
ATOM     19  O   LIG A   1      -5.579  -0.808 131.980  0.00  0.00    -0.495 OA
ATOM     20  C   LIG A   1      -4.256  -1.297 132.173  0.00  0.00    +0.277 C 
ENDBRANCH   9  19
TORSDOF 2
ENDMDL
MODEL 7
REMARK VINA RESULT:      -6.3      2.479      4.547
REMARK  Name = NuBBE_1240
REMARK  4 active torsions:
REMARK  status: ('A' for Active; 'I' for Inactive)
REMARK    1  A    between atoms: C_4  and  C_5
REMARK    2  A    between atoms: N_11  and  C_12
REMARK    3  A    between atoms: C_15  and  O_16
REMARK    4  A    between atoms: O_16  and  C_17
REMARK                            x       y       z     vdW  Elec       q    Type
REMARK                         _______ _______ _______ _____ _____    ______ ____
ROOT
ATOM      1  O   LIG A   1      -4.470   1.936 126.173  0.00  0.00    -0.287 OA
ATOM      2  C   LIG A   1      -5.590   1.474 125.992  0.00  0.00    +0.190 A 
ATOM      3  C   LIG A   1      -6.075   0.354 126.815  0.00  0.00    +0.077 A 
ATOM      4  C   LIG A   1      -7.323  -0.097 126.627  0.00  0.00    +0.053 A 
ATOM      5  N   LIG A   1      -8.223   0.429 125.696  0.00  0.00    -0.343 N 
ATOM      6  C   LIG A   1      -9.611  -0.024 125.558  0.00  0.00    +0.149 C 
ATOM      7  C   LIG A   1      -7.785   1.448 124.806  0.00  0.00    +0.056 A 
ATOM      8  C   LIG A   1      -8.578   1.962 123.764  0.00  0.00    +0.072 A 
ATOM      9  C   LIG A   1      -8.119   2.970 122.901  0.00  0.00    +0.122 A 
ATOM     10  C   LIG A   1      -6.839   3.490 123.068  0.00  0.00    +0.046 A 
ATOM     11  C   LIG A   1      -6.023   2.999 124.086  0.00  0.00    +0.017 A 
ATOM     12  C   LIG A   1      -6.492   1.988 124.938  0.00  0.00    +0.045 A 
ENDROOT
BRANCH   4  13
ATOM     13  C   LIG A   1      -7.717  -1.248 127.461  0.00  0.00    -0.001 A 
ATOM     14  C   LIG A   1      -7.584  -1.180 128.856  0.00  0.00    +0.010 A 
ATOM     15  C   LIG A   1      -7.958  -2.263 129.651  0.00  0.00    +0.001 A 
ATOM     16  C   LIG A   1      -8.466  -3.420 129.060  0.00  0.00    +0.000 A 
ATOM     17  C   LIG A   1      -8.605  -3.494 127.674  0.00  0.00    +0.001 A 
ATOM     18  C   LIG A   1      -8.235  -2.411 126.876  0.00  0.00    +0.010 A 
ENDBRANCH   4  13
BRANCH   9  19
ATOM     19  O   LIG A   1      -9.020   3.349 121.942  0.00  0.00    -0.495 OA
ATOM     20  C   LIG A   1      -8.490   3.762 120.687  0.00  0.00    +0.277 C 
ENDBRANCH   9  19
TORSDOF 2
ENDMDL
MODEL 8
REMARK VINA RESULT:      -6.3      8.045     10.611
REMARK  Name = NuBBE_1240
REMARK  4 active torsions:
REMARK  status: ('A' for Active; 'I' for Inactive)
REMARK    1  A    between atoms: C_4  and  C_5
REMARK    2  A    between atoms: N_11  and  C_12
REMARK    3  A    between atoms: C_15  and  O_16
REMARK    4  A    between atoms: O_16  and  C_17
REMARK                            x       y       z     vdW  Elec       q    Type
REMARK                         _______ _______ _______ _____ _____    ______ ____
ROOT
ATOM      1  O   LIG A   1      -7.203   4.660 134.831  0.00  0.00    -0.287 OA
ATOM      2  C   LIG A   1      -6.723   5.284 133.892  0.00  0.00    +0.190 A 
ATOM      3  C   LIG A   1      -5.271   5.517 133.819  0.00  0.00    +0.077 A 
ATOM      4  C   LIG A   1      -4.771   6.159 132.753  0.00  0.00    +0.053 A 
ATOM      5  N   LIG A   1      -5.535   6.626 131.680  0.00  0.00    -0.343 N 
ATOM      6  C   LIG A   1      -4.962   7.257 130.486  0.00  0.00    +0.149 C 
ATOM      7  C   LIG A   1      -6.952   6.517 131.735  0.00  0.00    +0.056 A 
ATOM      8  C   LIG A   1      -7.810   7.056 130.760  0.00  0.00    +0.072 A 
ATOM      9  C   LIG A   1      -9.207   6.930 130.842  0.00  0.00    +0.122 A 
ATOM     10  C   LIG A   1      -9.777   6.252 131.915  0.00  0.00    +0.046 A 
ATOM     11  C   LIG A   1      -8.955   5.712 132.903  0.00  0.00    +0.017 A 
ATOM     12  C   LIG A   1      -7.562   5.849 132.813  0.00  0.00    +0.045 A 
ENDROOT
BRANCH   4  13
ATOM     13  C   LIG A   1      -3.314   6.391 132.776  0.00  0.00    -0.001 A 
ATOM     14  C   LIG A   1      -2.437   5.380 132.356  0.00  0.00    +0.010 A 
ATOM     15  C   LIG A   1      -1.059   5.594 132.371  0.00  0.00    +0.001 A 
ATOM     16  C   LIG A   1      -0.548   6.816 132.805  0.00  0.00    +0.000 A 
ATOM     17  C   LIG A   1      -1.413   7.828 133.221  0.00  0.00    +0.001 A 
ATOM     18  C   LIG A   1      -2.793   7.619 133.203  0.00  0.00    +0.010 A 
ENDBRANCH   4  13
BRANCH   9  19
ATOM     19  O   LIG A   1      -9.889   7.517 129.810  0.00  0.00    -0.495 OA
ATOM     20  C   LIG A   1     -10.600   6.651 128.933  0.00  0.00    +0.277 C 
ENDBRANCH   9  19
TORSDOF 2
ENDMDL
MODEL 9
REMARK VINA RESULT:      -6.2      4.504      5.588
REMARK  Name = NuBBE_1240
REMARK  4 active torsions:
REMARK  status: ('A' for Active; 'I' for Inactive)
REMARK    1  A    between atoms: C_4  and  C_5
REMARK    2  A    between atoms: N_11  and  C_12
REMARK    3  A    between atoms: C_15  and  O_16
REMARK    4  A    between atoms: O_16  and  C_17
REMARK                            x       y       z     vdW  Elec       q    Type
REMARK                         _______ _______ _______ _____ _____    ______ ____
ROOT
ATOM      1  O   LIG A   1      -7.568  -3.136 131.244  0.00  0.00    -0.287 OA
ATOM      2  C   LIG A   1      -7.622  -2.339 130.316  0.00  0.00    +0.190 A 
ATOM      3  C   LIG A   1      -7.342  -2.780 128.939  0.00  0.00    +0.077 A 
ATOM      4  C   LIG A   1      -7.459  -1.896 127.938  0.00  0.00    +0.053 A 
ATOM      5  N   LIG A   1      -7.842  -0.562 128.101  0.00  0.00    -0.343 N 
ATOM      6  C   LIG A   1      -8.041   0.371 126.987  0.00  0.00    +0.149 C 
ATOM      7  C   LIG A   1      -8.033  -0.049 129.414  0.00  0.00    +0.056 A 
ATOM      8  C   LIG A   1      -8.309   1.303 129.687  0.00  0.00    +0.072 A 
ATOM      9  C   LIG A   1      -8.494   1.780 130.995  0.00  0.00    +0.122 A 
ATOM     10  C   LIG A   1      -8.408   0.899 132.068  0.00  0.00    +0.046 A 
ATOM     11  C   LIG A   1      -8.129  -0.447 131.835  0.00  0.00    +0.017 A 
ATOM     12  C   LIG A   1      -7.940  -0.909 130.524  0.00  0.00    +0.045 A 
ENDROOT
BRANCH   4  13
ATOM     13  C   LIG A   1      -7.120  -2.406 126.596  0.00  0.00    -0.001 A 
ATOM     14  C   LIG A   1      -5.826  -2.227 126.085  0.00  0.00    +0.010 A 
ATOM     15  C   LIG A   1      -5.497  -2.711 124.819  0.00  0.00    +0.001 A 
ATOM     16  C   LIG A   1      -6.457  -3.374 124.055  0.00  0.00    +0.000 A 
ATOM     17  C   LIG A   1      -7.745  -3.559 124.557  0.00  0.00    +0.001 A 
ATOM     18  C   LIG A   1      -8.076  -3.080 125.825  0.00  0.00    +0.010 A 
ENDBRANCH   4  13
BRANCH   9  19
ATOM     19  O   LIG A   1      -8.751   3.123 131.077  0.00  0.00    -0.495 OA
ATOM     20  C   LIG A   1      -9.985   3.577 130.533  0.00  0.00    +0.277 C 
ENDBRANCH   9  19
TORSDOF 2
ENDMDL
