MODEL 1
REMARK VINA RESULT:      -6.3      0.000      0.000
REMARK  Name = NuBBE_1429
REMARK  4 active torsions:
REMARK  status: ('A' for Active; 'I' for Inactive)
REMARK    1  A    between atoms: C_1  and  C_2
REMARK    2  A    between atoms: C_1  and  C_3
REMARK    3  A    between atoms: C_1  and  C_4
REMARK    4  A    between atoms: C_8  and  C_16
REMARK                            x       y       z     vdW  Elec       q    Type
REMARK                         _______ _______ _______ _____ _____    ______ ____
ROOT
ATOM      1  C   LIG A   1      -7.754  -2.573 127.183  0.00  0.00    +0.015 C 
ATOM      2  C   LIG A   1      -6.337  -2.060 127.550  0.00  0.00    +0.012 C 
ATOM      3  C   LIG A   1      -5.366  -1.922 126.363  0.00  0.00    +0.030 C 
ATOM      4  C   LIG A   1      -5.568  -0.710 125.478  0.00  0.00    -0.076 C 
ATOM      5  C   LIG A   1      -6.007  -0.748 124.203  0.00  0.00    -0.027 C 
ATOM      6  C   LIG A   1      -6.421  -1.949 123.394  0.00  0.00    +0.032 C 
ATOM      7  C   LIG A   1      -7.923  -1.968 123.064  0.00  0.00    +0.038 C 
ATOM      8  C   LIG A   1      -8.797  -2.403 124.223  0.00  0.00    -0.054 C 
ATOM      9  C   LIG A   1      -9.396  -3.603 124.253  0.00  0.00    +0.012 C 
ATOM     10  C   LIG A   1      -9.022  -1.422 125.265  0.00  0.00    -0.001 C 
ATOM     11  C   LIG A   1      -8.581  -1.481 126.533  0.00  0.00    -0.023 C 
ATOM     12  C   LIG A   1      -5.204   0.612 126.108  0.00  0.00    +0.038 C 
ENDROOT
BRANCH   1  13
ATOM     13  C   LIG A   1      -8.458  -3.181 128.439  0.00  0.00    -0.010 C 
ATOM     14  C   LIG A   1      -7.452  -3.596 129.519  0.00  0.00    +0.008 C 
ATOM     15  C   LIG A   1      -9.396  -4.355 128.134  0.00  0.00    +0.008 C 
ENDBRANCH   1  13
TORSDOF 1
ENDMDL
MODEL 2
REMARK VINA RESULT:      -6.3      1.518      2.538
REMARK  Name = NuBBE_1429
REMARK  4 active torsions:
REMARK  status: ('A' for Active; 'I' for Inactive)
REMARK    1  A    between atoms: C_1  and  C_2
REMARK    2  A    between atoms: C_1  and  C_3
REMARK    3  A    between atoms: C_1  and  C_4
REMARK    4  A    between atoms: C_8  and  C_16
REMARK                            x       y       z     vdW  Elec       q    Type
REMARK                         _______ _______ _______ _____ _____    ______ ____
ROOT
ATOM      1  C   LIG A   1      -7.792  -2.133 126.732  0.00  0.00    +0.015 C 
ATOM      2  C   LIG A   1      -8.207  -0.680 127.082  0.00  0.00    +0.012 C 
ATOM      3  C   LIG A   1      -7.738   0.391 126.081  0.00  0.00    +0.030 C 
ATOM      4  C   LIG A   1      -8.527   0.485 124.791  0.00  0.00    -0.076 C 
ATOM      5  C   LIG A   1      -8.058   0.149 123.572  0.00  0.00    -0.027 C 
ATOM      6  C   LIG A   1      -6.706  -0.411 123.213  0.00  0.00    +0.032 C 
ATOM      7  C   LIG A   1      -6.768  -1.861 122.702  0.00  0.00    +0.038 C 
ATOM      8  C   LIG A   1      -6.942  -2.888 123.802  0.00  0.00    -0.054 C 
ATOM      9  C   LIG A   1      -5.943  -3.697 124.187  0.00  0.00    +0.012 C 
ATOM     10  C   LIG A   1      -8.272  -3.014 124.364  0.00  0.00    -0.001 C 
ATOM     11  C   LIG A   1      -8.650  -2.693 125.614  0.00  0.00    -0.023 C 
ATOM     12  C   LIG A   1      -9.925   1.032 124.933  0.00  0.00    +0.038 C 
ENDROOT
BRANCH   1  13
ATOM     13  C   LIG A   1      -7.823  -3.034 128.009  0.00  0.00    -0.010 C 
ATOM     14  C   LIG A   1      -8.976  -4.043 127.975  0.00  0.00    +0.008 C 
ATOM     15  C   LIG A   1      -7.861  -2.257 129.331  0.00  0.00    +0.008 C 
ENDBRANCH   1  13
TORSDOF 1
ENDMDL
MODEL 3
REMARK VINA RESULT:      -6.3      2.139      5.163
REMARK  Name = NuBBE_1429
REMARK  4 active torsions:
REMARK  status: ('A' for Active; 'I' for Inactive)
REMARK    1  A    between atoms: C_1  and  C_2
REMARK    2  A    between atoms: C_1  and  C_3
REMARK    3  A    between atoms: C_1  and  C_4
REMARK    4  A    between atoms: C_8  and  C_16
REMARK                            x       y       z     vdW  Elec       q    Type
REMARK                         _______ _______ _______ _____ _____    ______ ____
ROOT
ATOM      1  C   LIG A   1      -8.497   0.382 124.120  0.00  0.00    +0.015 C 
ATOM      2  C   LIG A   1      -9.144  -0.476 123.001  0.00  0.00    +0.012 C 
ATOM      3  C   LIG A   1      -8.347  -1.729 122.596  0.00  0.00    +0.030 C 
ATOM      4  C   LIG A   1      -8.436  -2.908 123.543  0.00  0.00    -0.076 C 
ATOM      5  C   LIG A   1      -7.422  -3.370 124.302  0.00  0.00    -0.027 C 
ATOM      6  C   LIG A   1      -6.021  -2.828 124.417  0.00  0.00    +0.032 C 
ATOM      7  C   LIG A   1      -5.716  -2.227 125.799  0.00  0.00    +0.038 C 
ATOM      8  C   LIG A   1      -6.305  -0.847 126.007  0.00  0.00    -0.054 C 
ATOM      9  C   LIG A   1      -5.544   0.259 126.020  0.00  0.00    +0.012 C 
ATOM     10  C   LIG A   1      -7.727  -0.785 126.277  0.00  0.00    -0.001 C 
ATOM     11  C   LIG A   1      -8.675  -0.266 125.479  0.00  0.00    -0.023 C 
ATOM     12  C   LIG A   1      -9.775  -3.602 123.576  0.00  0.00    +0.038 C 
ENDROOT
BRANCH   1  13
ATOM     13  C   LIG A   1      -9.054   1.842 124.081  0.00  0.00    -0.010 C 
ATOM     14  C   LIG A   1      -8.963   2.457 122.680  0.00  0.00    +0.008 C 
ATOM     15  C   LIG A   1      -8.414   2.791 125.101  0.00  0.00    +0.008 C 
ENDBRANCH   1  13
TORSDOF 1
ENDMDL
MODEL 4
REMARK VINA RESULT:      -6.2      1.756      3.788
REMARK  Name = NuBBE_1429
REMARK  4 active torsions:
REMARK  status: ('A' for Active; 'I' for Inactive)
REMARK    1  A    between atoms: C_1  and  C_2
REMARK    2  A    between atoms: C_1  and  C_3
REMARK    3  A    between atoms: C_1  and  C_4
REMARK    4  A    between atoms: C_8  and  C_16
REMARK                            x       y       z     vdW  Elec       q    Type
REMARK                         _______ _______ _______ _____ _____    ______ ____
ROOT
ATOM      1  C   LIG A   1      -7.961  -2.744 128.693  0.00  0.00    +0.015 C 
ATOM      2  C   LIG A   1      -8.621  -3.847 127.825  0.00  0.00    +0.012 C 
ATOM      3  C   LIG A   1      -9.472  -3.331 126.650  0.00  0.00    +0.030 C 
ATOM      4  C   LIG A   1      -8.705  -2.845 125.438  0.00  0.00    -0.076 C 
ATOM      5  C   LIG A   1      -8.634  -1.561 125.031  0.00  0.00    -0.027 C 
ATOM      6  C   LIG A   1      -9.243  -0.343 125.674  0.00  0.00    +0.032 C 
ATOM      7  C   LIG A   1      -8.196   0.624 126.252  0.00  0.00    +0.038 C 
ATOM      8  C   LIG A   1      -7.613   0.173 127.575  0.00  0.00    -0.054 C 
ATOM      9  C   LIG A   1      -7.931   0.768 128.735  0.00  0.00    +0.012 C 
ATOM     10  C   LIG A   1      -6.626  -0.887 127.519  0.00  0.00    -0.001 C 
ATOM     11  C   LIG A   1      -6.762  -2.138 127.990  0.00  0.00    -0.023 C 
ATOM     12  C   LIG A   1      -8.013  -3.924 124.643  0.00  0.00    +0.038 C 
ENDROOT
BRANCH   1  13
ATOM     13  C   LIG A   1      -7.598  -3.305 130.106  0.00  0.00    -0.010 C 
ATOM     14  C   LIG A   1      -7.539  -2.200 131.167  0.00  0.00    +0.008 C 
ATOM     15  C   LIG A   1      -6.303  -4.126 130.148  0.00  0.00    +0.008 C 
ENDBRANCH   1  13
TORSDOF 1
ENDMDL
MODEL 5
REMARK VINA RESULT:      -6.1      2.092      4.327
REMARK  Name = NuBBE_1429
REMARK  4 active torsions:
REMARK  status: ('A' for Active; 'I' for Inactive)
REMARK    1  A    between atoms: C_1  and  C_2
REMARK    2  A    between atoms: C_1  and  C_3
REMARK    3  A    between atoms: C_1  and  C_4
REMARK    4  A    between atoms: C_8  and  C_16
REMARK                            x       y       z     vdW  Elec       q    Type
REMARK                         _______ _______ _______ _____ _____    ______ ____
ROOT
ATOM      1  C   LIG A   1      -8.480   0.040 124.262  0.00  0.00    +0.015 C 
ATOM      2  C   LIG A   1      -8.092   0.742 125.590  0.00  0.00    +0.012 C 
ATOM      3  C   LIG A   1      -8.162  -0.149 126.844  0.00  0.00    +0.030 C 
ATOM      4  C   LIG A   1      -7.018  -1.122 127.031  0.00  0.00    -0.076 C 
ATOM      5  C   LIG A   1      -7.119  -2.464 126.934  0.00  0.00    -0.027 C 
ATOM      6  C   LIG A   1      -8.335  -3.286 126.595  0.00  0.00    +0.032 C 
ATOM      7  C   LIG A   1      -8.222  -4.002 125.238  0.00  0.00    +0.038 C 
ATOM      8  C   LIG A   1      -8.458  -3.095 124.048  0.00  0.00    -0.054 C 
ATOM      9  C   LIG A   1      -9.580  -3.158 123.315  0.00  0.00    +0.012 C 
ATOM     10  C   LIG A   1      -7.372  -2.207 123.687  0.00  0.00    -0.001 C 
ATOM     11  C   LIG A   1      -7.367  -0.866 123.776  0.00  0.00    -0.023 C 
ATOM     12  C   LIG A   1      -5.692  -0.493 127.384  0.00  0.00    +0.038 C 
ENDROOT
BRANCH   1  13
ATOM     13  C   LIG A   1      -8.898   1.096 123.188  0.00  0.00    -0.010 C 
ATOM     14  C   LIG A   1      -8.949   2.516 123.764  0.00  0.00    +0.008 C 
ATOM     15  C   LIG A   1     -10.219   0.785 122.474  0.00  0.00    +0.008 C 
ENDBRANCH   1  13
TORSDOF 1
ENDMDL
MODEL 6
REMARK VINA RESULT:      -6.0      1.423      2.848
REMARK  Name = NuBBE_1429
REMARK  4 active torsions:
REMARK  status: ('A' for Active; 'I' for Inactive)
REMARK    1  A    between atoms: C_1  and  C_2
REMARK    2  A    between atoms: C_1  and  C_3
REMARK    3  A    between atoms: C_1  and  C_4
REMARK    4  A    between atoms: C_8  and  C_16
REMARK                            x       y       z     vdW  Elec       q    Type
REMARK                         _______ _______ _______ _____ _____    ______ ____
ROOT
ATOM      1  C   LIG A   1      -7.932  -2.441 126.727  0.00  0.00    +0.015 C 
ATOM      2  C   LIG A   1      -7.770  -3.626 125.739  0.00  0.00    +0.012 C 
ATOM      3  C   LIG A   1      -7.744  -3.233 124.250  0.00  0.00    +0.030 C 
ATOM      4  C   LIG A   1      -6.446  -2.641 123.742  0.00  0.00    -0.076 C 
ATOM      5  C   LIG A   1      -6.279  -1.359 123.357  0.00  0.00    -0.027 C 
ATOM      6  C   LIG A   1      -7.289  -0.241 123.370  0.00  0.00    +0.032 C 
ATOM      7  C   LIG A   1      -6.955   0.864 124.387  0.00  0.00    +0.038 C 
ATOM      8  C   LIG A   1      -7.289   0.497 125.818  0.00  0.00    -0.054 C 
ATOM      9  C   LIG A   1      -8.329   1.039 126.469  0.00  0.00    +0.012 C 
ATOM     10  C   LIG A   1      -6.375  -0.411 126.482  0.00  0.00    -0.001 C 
ATOM     11  C   LIG A   1      -6.636  -1.669 126.874  0.00  0.00    -0.023 C 
ATOM     12  C   LIG A   1      -5.293  -3.609 123.650  0.00  0.00    +0.038 C 
ENDROOT
BRANCH   1  13
ATOM     13  C   LIG A   1      -8.479  -2.948 128.102  0.00  0.00    -0.010 C 
ATOM     14  C   LIG A   1      -7.370  -3.072 129.153  0.00  0.00    +0.008 C 
ATOM     15  C   LIG A   1      -9.262  -4.263 128.026  0.00  0.00    +0.008 C 
ENDBRANCH   1  13
TORSDOF 1
ENDMDL
MODEL 7
REMARK VINA RESULT:      -6.0      2.283      3.245
REMARK  Name = NuBBE_1429
REMARK  4 active torsions:
REMARK  status: ('A' for Active; 'I' for Inactive)
REMARK    1  A    between atoms: C_1  and  C_2
REMARK    2  A    between atoms: C_1  and  C_3
REMARK    3  A    between atoms: C_1  and  C_4
REMARK    4  A    between atoms: C_8  and  C_16
REMARK                            x       y       z     vdW  Elec       q    Type
REMARK                         _______ _______ _______ _____ _____    ______ ____
ROOT
ATOM      1  C   LIG A   1      -8.526  -1.226 125.032  0.00  0.00    +0.015 C 
ATOM      2  C   LIG A   1      -7.089  -1.296 125.610  0.00  0.00    +0.012 C 
ATOM      3  C   LIG A   1      -6.099  -0.273 125.023  0.00  0.00    +0.030 C 
ATOM      4  C   LIG A   1      -6.229   1.146 125.536  0.00  0.00    -0.076 C 
ATOM      5  C   LIG A   1      -6.657   2.197 124.807  0.00  0.00    -0.027 C 
ATOM      6  C   LIG A   1      -7.123   2.210 123.374  0.00  0.00    +0.032 C 
ATOM      7  C   LIG A   1      -8.621   2.529 123.229  0.00  0.00    +0.038 C 
ATOM      8  C   LIG A   1      -9.528   1.359 123.552  0.00  0.00    -0.054 C 
ATOM      9  C   LIG A   1     -10.189   0.685 122.598  0.00  0.00    +0.012 C 
ATOM     10  C   LIG A   1      -9.713   1.053 124.956  0.00  0.00    -0.001 C 
ATOM     11  C   LIG A   1      -9.289  -0.046 125.602  0.00  0.00    -0.023 C 
ATOM     12  C   LIG A   1      -5.804   1.350 126.970  0.00  0.00    +0.038 C 
ENDROOT
BRANCH   1  13
ATOM     13  C   LIG A   1      -9.273  -2.581 125.259  0.00  0.00    -0.010 C 
ATOM     14  C   LIG A   1      -8.631  -3.413 126.375  0.00  0.00    +0.008 C 
ATOM     15  C   LIG A   1      -9.422  -3.441 123.999  0.00  0.00    +0.008 C 
ENDBRANCH   1  13
TORSDOF 1
ENDMDL
MODEL 8
REMARK VINA RESULT:      -5.9      1.279      2.952
REMARK  Name = NuBBE_1429
REMARK  4 active torsions:
REMARK  status: ('A' for Active; 'I' for Inactive)
REMARK    1  A    between atoms: C_1  and  C_2
REMARK    2  A    between atoms: C_1  and  C_3
REMARK    3  A    between atoms: C_1  and  C_4
REMARK    4  A    between atoms: C_8  and  C_16
REMARK                            x       y       z     vdW  Elec       q    Type
REMARK                         _______ _______ _______ _____ _____    ______ ____
ROOT
ATOM      1  C   LIG A   1      -6.002  -1.836 126.835  0.00  0.00    +0.015 C 
ATOM      2  C   LIG A   1      -5.232  -1.425 125.553  0.00  0.00    +0.012 C 
ATOM      3  C   LIG A   1      -5.773  -2.031 124.245  0.00  0.00    +0.030 C 
ATOM      4  C   LIG A   1      -7.029  -1.394 123.687  0.00  0.00    -0.076 C 
ATOM      5  C   LIG A   1      -8.240  -1.986 123.636  0.00  0.00    -0.027 C 
ATOM      6  C   LIG A   1      -8.632  -3.353 124.132  0.00  0.00    +0.032 C 
ATOM      7  C   LIG A   1      -9.597  -3.309 125.330  0.00  0.00    +0.038 C 
ATOM      8  C   LIG A   1      -8.921  -2.985 126.646  0.00  0.00    -0.054 C 
ATOM      9  C   LIG A   1      -8.730  -3.913 127.597  0.00  0.00    +0.012 C 
ATOM     10  C   LIG A   1      -8.562  -1.599 126.864  0.00  0.00    -0.001 C 
ATOM     11  C   LIG A   1      -7.319  -1.093 126.945  0.00  0.00    -0.023 C 
ATOM     12  C   LIG A   1      -6.849  -0.004 123.130  0.00  0.00    +0.038 C 
ENDROOT
BRANCH   1  13
ATOM     13  C   LIG A   1      -5.103  -1.638 128.099  0.00  0.00    -0.010 C 
ATOM     14  C   LIG A   1      -5.150  -2.851 129.035  0.00  0.00    +0.008 C 
ATOM     15  C   LIG A   1      -5.403  -0.364 128.896  0.00  0.00    +0.008 C 
ENDBRANCH   1  13
TORSDOF 1
ENDMDL
MODEL 9
REMARK VINA RESULT:      -5.8      1.646      4.673
REMARK  Name = NuBBE_1429
REMARK  4 active torsions:
REMARK  status: ('A' for Active; 'I' for Inactive)
REMARK    1  A    between atoms: C_1  and  C_2
REMARK    2  A    between atoms: C_1  and  C_3
REMARK    3  A    between atoms: C_1  and  C_4
REMARK    4  A    between atoms: C_8  and  C_16
REMARK                            x       y       z     vdW  Elec       q    Type
REMARK                         _______ _______ _______ _____ _____    ______ ____
ROOT
ATOM      1  C   LIG A   1      -7.292   0.349 124.955  0.00  0.00    +0.015 C 
ATOM      2  C   LIG A   1      -8.321   0.291 126.114  0.00  0.00    +0.012 C 
ATOM      3  C   LIG A   1      -9.059  -1.052 126.265  0.00  0.00    +0.030 C 
ATOM      4  C   LIG A   1      -8.273  -2.171 126.916  0.00  0.00    -0.076 C 
ATOM      5  C   LIG A   1      -7.843  -3.283 126.284  0.00  0.00    -0.027 C 
ATOM      6  C   LIG A   1      -8.001  -3.652 124.832  0.00  0.00    +0.032 C 
ATOM      7  C   LIG A   1      -6.668  -3.673 124.065  0.00  0.00    +0.038 C 
ATOM      8  C   LIG A   1      -6.154  -2.297 123.697  0.00  0.00    -0.054 C 
ATOM      9  C   LIG A   1      -6.186  -1.836 122.437  0.00  0.00    +0.012 C 
ATOM     10  C   LIG A   1      -5.545  -1.528 124.764  0.00  0.00    -0.001 C 
ATOM     11  C   LIG A   1      -6.022  -0.397 125.313  0.00  0.00    -0.023 C 
ATOM     12  C   LIG A   1      -8.007  -1.995 128.390  0.00  0.00    +0.038 C 
ENDROOT
BRANCH   1  13
ATOM     13  C   LIG A   1      -7.014   1.832 124.545  0.00  0.00    -0.010 C 
ATOM     14  C   LIG A   1      -6.890   1.996 123.026  0.00  0.00    +0.008 C 
ATOM     15  C   LIG A   1      -5.794   2.459 125.230  0.00  0.00    +0.008 C 
ENDBRANCH   1  13
TORSDOF 1
ENDMDL
