MODEL 1
REMARK VINA RESULT:      -7.9      0.000      0.000
REMARK  Name = NuBBE_97
REMARK  7 active torsions:
REMARK  status: ('A' for Active; 'I' for Inactive)
REMARK    1  A    between atoms: C_9  and  C_10
REMARK    2  A    between atoms: C_10  and  O_11
REMARK    3  A    between atoms: O_11  and  C_12
REMARK    4  A    between atoms: C_22  and  C_23
REMARK    5  A    between atoms: C_23  and  C_24
REMARK    6  A    between atoms: C_24  and  O_25
REMARK    7  A    between atoms: C_26  and  C_27
REMARK                            x       y       z     vdW  Elec       q    Type
REMARK                         _______ _______ _______ _____ _____    ______ ____
ROOT
ATOM      1  C   LIG A   1      -7.110  -1.731 123.564  0.00  0.00    +0.121 C 
ATOM      2  C   LIG A   1      -7.118  -2.249 124.976  0.00  0.00    +0.041 A 
ATOM      3  C   LIG A   1      -8.122  -3.036 125.512  0.00  0.00    -0.016 A 
ATOM      4  C   LIG A   1      -9.290  -3.495 124.692  0.00  0.00    +0.056 C 
ATOM      5  C   LIG A   1      -9.091  -3.151 123.189  0.00  0.00    +0.110 C 
ATOM      6  N   LIG A   1      -8.507  -1.782 123.028  0.00  0.00    -0.326 N 
ATOM      7  C   LIG A   1      -9.342  -0.701 123.325  0.00  0.00    +0.082 C 
ATOM      8  C   LIG A   1      -8.942   0.466 123.862  0.00  0.00    +0.057 C 
ATOM      9  C   LIG A   1      -7.883  -3.137 126.908  0.00  0.00    +0.003 A 
ATOM     10  C   LIG A   1      -8.594  -3.692 127.989  0.00  0.00    +0.010 A 
ATOM     11  C   LIG A   1      -8.086  -3.554 129.285  0.00  0.00    +0.001 A 
ATOM     12  C   LIG A   1      -6.884  -2.887 129.511  0.00  0.00    +0.002 A 
ATOM     13  C   LIG A   1      -6.153  -2.337 128.453  0.00  0.00    +0.026 A 
ATOM     14  C   LIG A   1      -6.681  -2.469 127.163  0.00  0.00    +0.047 A 
ATOM     15  N   LIG A   1      -6.207  -1.988 125.960  0.00  0.00    -0.356 N 
ATOM     16  C   LIG A   1      -6.566  -0.306 123.402  0.00  0.00    +0.041 C 
ATOM     17  C   LIG A   1      -7.469   0.769 124.058  0.00  0.00    +0.057 C 
ATOM     18  H   LIG A   1      -5.363  -1.443 125.862  0.00  0.00    +0.166 HD
ENDROOT
BRANCH  17  19
ATOM     19  C   LIG A   1      -6.992   2.158 123.598  0.00  0.00    -0.041 C 
ATOM     20  C   LIG A   1      -6.179   3.006 124.269  0.00  0.00    -0.028 C 
ATOM     21  C   LIG A   1      -5.531   2.857 125.607  0.00  0.00    +0.035 C 
BRANCH  19  22
ATOM     22  C   LIG A   1      -7.518   2.586 122.241  0.00  0.00    +0.187 C 
BRANCH  22  23
ATOM     23  O   LIG A   1      -8.357   3.721 122.371  0.00  0.00    -0.391 OA
ATOM     24  H   LIG A   1      -9.224   3.465 122.003  0.00  0.00    +0.210 HD
ENDBRANCH  22  23
ENDBRANCH  19  22
ENDBRANCH  17  19
BRANCH   8  25
ATOM     25  C   LIG A   1      -9.962   1.412 124.395  0.00  0.00    +0.337 C 
ATOM     26  O   LIG A   1     -11.083   1.574 123.920  0.00  0.00    -0.245 OA
BRANCH  25  27
ATOM     27  O   LIG A   1      -9.437   2.121 125.423  0.00  0.00    -0.465 OA
ATOM     28  C   LIG A   1      -9.096   1.417 126.616  0.00  0.00    +0.280 C 
ENDBRANCH  25  27
ENDBRANCH   8  25
TORSDOF 5
ENDMDL
MODEL 2
REMARK VINA RESULT:      -7.8      2.679      6.356
REMARK  Name = NuBBE_97
REMARK  7 active torsions:
REMARK  status: ('A' for Active; 'I' for Inactive)
REMARK    1  A    between atoms: C_9  and  C_10
REMARK    2  A    between atoms: C_10  and  O_11
REMARK    3  A    between atoms: O_11  and  C_12
REMARK    4  A    between atoms: C_22  and  C_23
REMARK    5  A    between atoms: C_23  and  C_24
REMARK    6  A    between atoms: C_24  and  O_25
REMARK    7  A    between atoms: C_26  and  C_27
REMARK                            x       y       z     vdW  Elec       q    Type
REMARK                         _______ _______ _______ _____ _____    ______ ____
ROOT
ATOM      1  C   LIG A   1      -9.016   1.489 125.190  0.00  0.00    +0.121 C 
ATOM      2  C   LIG A   1      -8.178   2.360 124.295  0.00  0.00    +0.041 A 
ATOM      3  C   LIG A   1      -8.410   2.540 122.943  0.00  0.00    -0.016 A 
ATOM      4  C   LIG A   1      -9.580   1.907 122.250  0.00  0.00    +0.056 C 
ATOM      5  C   LIG A   1     -10.546   1.243 123.272  0.00  0.00    +0.110 C 
ATOM      6  N   LIG A   1      -9.781   0.524 124.339  0.00  0.00    -0.326 N 
ATOM      7  C   LIG A   1      -9.123  -0.651 123.961  0.00  0.00    +0.082 C 
ATOM      8  C   LIG A   1      -7.954  -1.084 124.466  0.00  0.00    +0.057 C 
ATOM      9  C   LIG A   1      -7.298   3.244 122.411  0.00  0.00    +0.003 A 
ATOM     10  C   LIG A   1      -6.901   3.615 121.112  0.00  0.00    +0.010 A 
ATOM     11  C   LIG A   1      -5.675   4.265 120.932  0.00  0.00    +0.001 A 
ATOM     12  C   LIG A   1      -4.857   4.556 122.021  0.00  0.00    +0.002 A 
ATOM     13  C   LIG A   1      -5.234   4.207 123.322  0.00  0.00    +0.026 A 
ATOM     14  C   LIG A   1      -6.456   3.544 123.486  0.00  0.00    +0.047 A 
ATOM     15  N   LIG A   1      -7.044   3.045 124.630  0.00  0.00    -0.356 N 
ATOM     16  C   LIG A   1      -8.229   0.705 126.249  0.00  0.00    +0.041 C 
ATOM     17  C   LIG A   1      -7.303  -0.379 125.641  0.00  0.00    +0.057 C 
ATOM     18  H   LIG A   1      -6.633   3.103 125.550  0.00  0.00    +0.166 HD
ENDROOT
BRANCH  17  19
ATOM     19  C   LIG A   1      -6.790  -1.280 126.777  0.00  0.00    -0.041 C 
ATOM     20  C   LIG A   1      -7.434  -2.326 127.345  0.00  0.00    -0.028 C 
ATOM     21  C   LIG A   1      -8.786  -2.893 127.054  0.00  0.00    +0.035 C 
BRANCH  19  22
ATOM     22  C   LIG A   1      -5.409  -0.920 127.291  0.00  0.00    +0.187 C 
BRANCH  22  23
ATOM     23  O   LIG A   1      -4.781   0.003 126.418  0.00  0.00    -0.391 OA
ATOM     24  H   LIG A   1      -4.491  -0.509 125.640  0.00  0.00    +0.210 HD
ENDBRANCH  22  23
ENDBRANCH  19  22
ENDBRANCH  17  19
BRANCH   8  25
ATOM     25  C   LIG A   1      -7.224  -2.185 123.777  0.00  0.00    +0.337 C 
ATOM     26  O   LIG A   1      -7.685  -3.302 123.559  0.00  0.00    -0.245 OA
BRANCH  25  27
ATOM     27  O   LIG A   1      -5.956  -1.794 123.504  0.00  0.00    -0.465 OA
ATOM     28  C   LIG A   1      -4.908  -2.743 123.694  0.00  0.00    +0.280 C 
ENDBRANCH  25  27
ENDBRANCH   8  25
TORSDOF 5
ENDMDL
MODEL 3
REMARK VINA RESULT:      -7.7      2.888      4.802
REMARK  Name = NuBBE_97
REMARK  7 active torsions:
REMARK  status: ('A' for Active; 'I' for Inactive)
REMARK    1  A    between atoms: C_9  and  C_10
REMARK    2  A    between atoms: C_10  and  O_11
REMARK    3  A    between atoms: O_11  and  C_12
REMARK    4  A    between atoms: C_22  and  C_23
REMARK    5  A    between atoms: C_23  and  C_24
REMARK    6  A    between atoms: C_24  and  O_25
REMARK    7  A    between atoms: C_26  and  C_27
REMARK                            x       y       z     vdW  Elec       q    Type
REMARK                         _______ _______ _______ _____ _____    ______ ____
ROOT
ATOM      1  C   LIG A   1      -5.960  -1.711 128.390  0.00  0.00    +0.121 C 
ATOM      2  C   LIG A   1      -6.627  -0.771 129.356  0.00  0.00    +0.041 A 
ATOM      3  C   LIG A   1      -7.603  -1.148 130.262  0.00  0.00    -0.016 A 
ATOM      4  C   LIG A   1      -8.050  -2.573 130.395  0.00  0.00    +0.056 C 
ATOM      5  C   LIG A   1      -7.144  -3.526 129.565  0.00  0.00    +0.110 C 
ATOM      6  N   LIG A   1      -6.820  -2.926 128.233  0.00  0.00    -0.326 N 
ATOM      7  C   LIG A   1      -7.861  -2.852 127.303  0.00  0.00    +0.082 C 
ATOM      8  C   LIG A   1      -8.025  -1.873 126.394  0.00  0.00    +0.057 C 
ATOM      9  C   LIG A   1      -8.132   0.039 130.835  0.00  0.00    +0.003 A 
ATOM     10  C   LIG A   1      -9.198   0.315 131.712  0.00  0.00    +0.010 A 
ATOM     11  C   LIG A   1      -9.494   1.645 132.030  0.00  0.00    +0.001 A 
ATOM     12  C   LIG A   1      -8.740   2.689 131.499  0.00  0.00    +0.002 A 
ATOM     13  C   LIG A   1      -7.669   2.440 130.634  0.00  0.00    +0.026 A 
ATOM     14  C   LIG A   1      -7.394   1.105 130.312  0.00  0.00    +0.047 A 
ATOM     15  N   LIG A   1      -6.446   0.579 129.460  0.00  0.00    -0.356 N 
ATOM     16  C   LIG A   1      -5.677  -1.117 127.003  0.00  0.00    +0.041 C 
ATOM     17  C   LIG A   1      -6.965  -0.806 126.200  0.00  0.00    +0.057 C 
ATOM     18  H   LIG A   1      -5.792   1.135 128.928  0.00  0.00    +0.166 HD
ENDROOT
BRANCH  17  19
ATOM     19  C   LIG A   1      -6.573  -0.492 124.745  0.00  0.00    -0.041 C 
ATOM     20  C   LIG A   1      -6.016  -1.338 123.849  0.00  0.00    -0.028 C 
ATOM     21  C   LIG A   1      -5.623  -2.772 123.998  0.00  0.00    +0.035 C 
BRANCH  19  22
ATOM     22  C   LIG A   1      -6.856   0.934 124.311  0.00  0.00    +0.187 C 
BRANCH  22  23
ATOM     23  O   LIG A   1      -8.177   1.047 123.812  0.00  0.00    -0.391 OA
ATOM     24  H   LIG A   1      -8.111   1.518 122.961  0.00  0.00    +0.210 HD
ENDBRANCH  22  23
ENDBRANCH  19  22
ENDBRANCH  17  19
BRANCH   8  25
ATOM     25  C   LIG A   1      -9.321  -1.761 125.669  0.00  0.00    +0.337 C 
ATOM     26  O   LIG A   1      -9.978  -0.728 125.563  0.00  0.00    -0.245 OA
BRANCH  25  27
ATOM     27  O   LIG A   1      -9.702  -2.980 125.219  0.00  0.00    -0.465 OA
ATOM     28  C   LIG A   1      -9.353  -3.340 123.883  0.00  0.00    +0.280 C 
ENDBRANCH  25  27
ENDBRANCH   8  25
TORSDOF 5
ENDMDL
MODEL 4
REMARK VINA RESULT:      -7.7      2.719      5.678
REMARK  Name = NuBBE_97
REMARK  7 active torsions:
REMARK  status: ('A' for Active; 'I' for Inactive)
REMARK    1  A    between atoms: C_9  and  C_10
REMARK    2  A    between atoms: C_10  and  O_11
REMARK    3  A    between atoms: O_11  and  C_12
REMARK    4  A    between atoms: C_22  and  C_23
REMARK    5  A    between atoms: C_23  and  C_24
REMARK    6  A    between atoms: C_24  and  O_25
REMARK    7  A    between atoms: C_26  and  C_27
REMARK                            x       y       z     vdW  Elec       q    Type
REMARK                         _______ _______ _______ _____ _____    ______ ____
ROOT
ATOM      1  C   LIG A   1      -8.437   1.167 125.120  0.00  0.00    +0.121 C 
ATOM      2  C   LIG A   1      -7.284   1.709 125.919  0.00  0.00    +0.041 A 
ATOM      3  C   LIG A   1      -6.293   2.527 125.402  0.00  0.00    -0.016 A 
ATOM      4  C   LIG A   1      -6.318   2.995 123.977  0.00  0.00    +0.056 C 
ATOM      5  C   LIG A   1      -7.660   2.621 123.287  0.00  0.00    +0.110 C 
ATOM      6  N   LIG A   1      -8.088   1.238 123.666  0.00  0.00    -0.326 N 
ATOM      7  C   LIG A   1      -7.342   0.180 123.139  0.00  0.00    +0.082 C 
ATOM      8  C   LIG A   1      -7.096  -0.986 123.765  0.00  0.00    +0.057 C 
ATOM      9  C   LIG A   1      -5.282   2.646 126.391  0.00  0.00    +0.003 A 
ATOM     10  C   LIG A   1      -4.003   3.235 126.422  0.00  0.00    +0.010 A 
ATOM     11  C   LIG A   1      -3.220   3.108 127.575  0.00  0.00    +0.001 A 
ATOM     12  C   LIG A   1      -3.698   2.420 128.687  0.00  0.00    +0.002 A 
ATOM     13  C   LIG A   1      -4.969   1.836 128.685  0.00  0.00    +0.026 A 
ATOM     14  C   LIG A   1      -5.735   1.958 127.520  0.00  0.00    +0.047 A 
ATOM     15  N   LIG A   1      -6.983   1.447 127.225  0.00  0.00    -0.356 N 
ATOM     16  C   LIG A   1      -8.842  -0.271 125.466  0.00  0.00    +0.041 C 
ATOM     17  C   LIG A   1      -7.762  -1.316 125.086  0.00  0.00    +0.057 C 
ATOM     18  H   LIG A   1      -7.528   0.882 127.860  0.00  0.00    +0.166 HD
ENDROOT
BRANCH  17  19
ATOM     19  C   LIG A   1      -8.375  -2.723 125.208  0.00  0.00    -0.041 C 
ATOM     20  C   LIG A   1      -8.575  -3.432 126.343  0.00  0.00    -0.028 C 
ATOM     21  C   LIG A   1      -8.266  -3.078 127.762  0.00  0.00    +0.035 C 
BRANCH  19  22
ATOM     22  C   LIG A   1      -8.782  -3.348 123.887  0.00  0.00    +0.187 C 
BRANCH  22  23
ATOM     23  O   LIG A   1     -10.103  -2.964 123.544  0.00  0.00    -0.391 OA
ATOM     24  H   LIG A   1     -10.670  -3.234 124.290  0.00  0.00    +0.210 HD
ENDBRANCH  22  23
ENDBRANCH  19  22
ENDBRANCH  17  19
BRANCH   8  25
ATOM     25  C   LIG A   1      -6.055  -1.901 123.220  0.00  0.00    +0.337 C 
ATOM     26  O   LIG A   1      -5.942  -2.208 122.035  0.00  0.00    -0.245 OA
BRANCH  25  27
ATOM     27  O   LIG A   1      -5.311  -2.405 124.234  0.00  0.00    -0.465 OA
ATOM     28  C   LIG A   1      -4.861  -3.754 124.127  0.00  0.00    +0.280 C 
ENDBRANCH  25  27
ENDBRANCH   8  25
TORSDOF 5
ENDMDL
MODEL 5
REMARK VINA RESULT:      -7.6      1.487      2.247
REMARK  Name = NuBBE_97
REMARK  7 active torsions:
REMARK  status: ('A' for Active; 'I' for Inactive)
REMARK    1  A    between atoms: C_9  and  C_10
REMARK    2  A    between atoms: C_10  and  O_11
REMARK    3  A    between atoms: O_11  and  C_12
REMARK    4  A    between atoms: C_22  and  C_23
REMARK    5  A    between atoms: C_23  and  C_24
REMARK    6  A    between atoms: C_24  and  O_25
REMARK    7  A    between atoms: C_26  and  C_27
REMARK                            x       y       z     vdW  Elec       q    Type
REMARK                         _______ _______ _______ _____ _____    ______ ____
ROOT
ATOM      1  C   LIG A   1      -5.559  -0.618 124.995  0.00  0.00    +0.121 C 
ATOM      2  C   LIG A   1      -6.291  -1.504 125.966  0.00  0.00    +0.041 A 
ATOM      3  C   LIG A   1      -7.219  -2.463 125.598  0.00  0.00    -0.016 A 
ATOM      4  C   LIG A   1      -7.539  -2.743 124.160  0.00  0.00    +0.056 C 
ATOM      5  C   LIG A   1      -6.567  -1.989 123.211  0.00  0.00    +0.110 C 
ATOM      6  N   LIG A   1      -6.313  -0.598 123.703  0.00  0.00    -0.326 N 
ATOM      7  C   LIG A   1      -7.370   0.311 123.597  0.00  0.00    +0.082 C 
ATOM      8  C   LIG A   1      -7.629   1.307 124.465  0.00  0.00    +0.057 C 
ATOM      9  C   LIG A   1      -7.840  -2.930 126.786  0.00  0.00    +0.003 A 
ATOM     10  C   LIG A   1      -8.914  -3.800 127.056  0.00  0.00    +0.010 A 
ATOM     11  C   LIG A   1      -9.320  -3.995 128.381  0.00  0.00    +0.001 A 
ATOM     12  C   LIG A   1      -8.665  -3.350 129.427  0.00  0.00    +0.002 A 
ATOM     13  C   LIG A   1      -7.589  -2.490 129.186  0.00  0.00    +0.026 A 
ATOM     14  C   LIG A   1      -7.204  -2.292 127.855  0.00  0.00    +0.047 A 
ATOM     15  N   LIG A   1      -6.226  -1.473 127.330  0.00  0.00    -0.356 N 
ATOM     16  C   LIG A   1      -5.348   0.825 125.472  0.00  0.00    +0.041 C 
ATOM     17  C   LIG A   1      -6.669   1.626 125.594  0.00  0.00    +0.057 C 
ATOM     18  H   LIG A   1      -5.630  -0.876 127.884  0.00  0.00    +0.166 HD
ENDROOT
BRANCH  17  19
ATOM     19  C   LIG A   1      -6.325   3.112 125.796  0.00  0.00    -0.041 C 
ATOM     20  C   LIG A   1      -6.643   3.887 126.858  0.00  0.00    -0.028 C 
ATOM     21  C   LIG A   1      -7.399   3.547 128.102  0.00  0.00    +0.035 C 
BRANCH  19  22
ATOM     22  C   LIG A   1      -5.548   3.739 124.653  0.00  0.00    +0.187 C 
BRANCH  22  23
ATOM     23  O   LIG A   1      -6.340   4.711 123.991  0.00  0.00    -0.391 OA
ATOM     24  H   LIG A   1      -7.264   4.529 124.242  0.00  0.00    +0.210 HD
ENDBRANCH  22  23
ENDBRANCH  19  22
ENDBRANCH  17  19
BRANCH   8  25
ATOM     25  C   LIG A   1      -8.940   2.011 124.396  0.00  0.00    +0.337 C 
ATOM     26  O   LIG A   1      -9.983   1.603 124.902  0.00  0.00    -0.245 OA
BRANCH  25  27
ATOM     27  O   LIG A   1      -8.825   3.119 123.625  0.00  0.00    -0.465 OA
ATOM     28  C   LIG A   1      -8.803   2.950 122.209  0.00  0.00    +0.280 C 
ENDBRANCH  25  27
ENDBRANCH   8  25
TORSDOF 5
ENDMDL
MODEL 6
REMARK VINA RESULT:      -7.5      6.336      9.418
REMARK  Name = NuBBE_97
REMARK  7 active torsions:
REMARK  status: ('A' for Active; 'I' for Inactive)
REMARK    1  A    between atoms: C_9  and  C_10
REMARK    2  A    between atoms: C_10  and  O_11
REMARK    3  A    between atoms: O_11  and  C_12
REMARK    4  A    between atoms: C_22  and  C_23
REMARK    5  A    between atoms: C_23  and  C_24
REMARK    6  A    between atoms: C_24  and  O_25
REMARK    7  A    between atoms: C_26  and  C_27
REMARK                            x       y       z     vdW  Elec       q    Type
REMARK                         _______ _______ _______ _____ _____    ______ ____
ROOT
ATOM      1  C   LIG A   1      -7.747   6.197 131.483  0.00  0.00    +0.121 C 
ATOM      2  C   LIG A   1      -8.963   6.830 130.861  0.00  0.00    +0.041 A 
ATOM      3  C   LIG A   1     -10.260   6.612 131.291  0.00  0.00    -0.016 A 
ATOM      4  C   LIG A   1     -10.566   5.746 132.477  0.00  0.00    +0.056 C 
ATOM      5  C   LIG A   1      -9.266   5.341 133.226  0.00  0.00    +0.110 C 
ATOM      6  N   LIG A   1      -8.179   4.991 132.258  0.00  0.00    -0.326 N 
ATOM      7  C   LIG A   1      -8.327   3.797 131.546  0.00  0.00    +0.082 C 
ATOM      8  C   LIG A   1      -7.914   3.588 130.283  0.00  0.00    +0.057 C 
ATOM      9  C   LIG A   1     -11.129   7.201 130.334  0.00  0.00    +0.003 A 
ATOM     10  C   LIG A   1     -12.525   7.218 130.154  0.00  0.00    +0.010 A 
ATOM     11  C   LIG A   1     -13.062   7.859 129.033  0.00  0.00    +0.001 A 
ATOM     12  C   LIG A   1     -12.233   8.488 128.108  0.00  0.00    +0.002 A 
ATOM     13  C   LIG A   1     -10.844   8.494 128.269  0.00  0.00    +0.026 A 
ATOM     14  C   LIG A   1     -10.319   7.835 129.388  0.00  0.00    +0.047 A 
ATOM     15  N   LIG A   1      -9.006   7.644 129.765  0.00  0.00    -0.356 N 
ATOM     16  C   LIG A   1      -6.655   5.785 130.487  0.00  0.00    +0.041 C 
ATOM     17  C   LIG A   1      -7.089   4.628 129.551  0.00  0.00    +0.057 C 
ATOM     18  H   LIG A   1      -8.211   7.979 129.240  0.00  0.00    +0.166 HD
ENDROOT
BRANCH  17  19
ATOM     19  C   LIG A   1      -5.847   4.109 128.804  0.00  0.00    -0.041 C 
ATOM     20  C   LIG A   1      -4.725   3.586 129.348  0.00  0.00    -0.028 C 
ATOM     21  C   LIG A   1      -4.365   3.370 130.783  0.00  0.00    +0.035 C 
BRANCH  19  22
ATOM     22  C   LIG A   1      -5.931   4.219 127.293  0.00  0.00    +0.187 C 
BRANCH  22  23
ATOM     23  O   LIG A   1      -7.240   4.590 126.896  0.00  0.00    -0.391 OA
ATOM     24  H   LIG A   1      -7.810   4.470 127.678  0.00  0.00    +0.210 HD
ENDBRANCH  22  23
ENDBRANCH  19  22
ENDBRANCH  17  19
BRANCH   8  25
ATOM     25  C   LIG A   1      -8.390   2.382 129.551  0.00  0.00    +0.337 C 
ATOM     26  O   LIG A   1      -8.945   2.400 128.455  0.00  0.00    -0.245 OA
BRANCH  25  27
ATOM     27  O   LIG A   1      -8.194   1.277 130.310  0.00  0.00    -0.465 OA
ATOM     28  C   LIG A   1      -7.001   0.523 130.100  0.00  0.00    +0.280 C 
ENDBRANCH  25  27
ENDBRANCH   8  25
TORSDOF 5
ENDMDL
MODEL 7
REMARK VINA RESULT:      -7.4      2.600      4.004
REMARK  Name = NuBBE_97
REMARK  7 active torsions:
REMARK  status: ('A' for Active; 'I' for Inactive)
REMARK    1  A    between atoms: C_9  and  C_10
REMARK    2  A    between atoms: C_10  and  O_11
REMARK    3  A    between atoms: O_11  and  C_12
REMARK    4  A    between atoms: C_22  and  C_23
REMARK    5  A    between atoms: C_23  and  C_24
REMARK    6  A    between atoms: C_24  and  O_25
REMARK    7  A    between atoms: C_26  and  C_27
REMARK                            x       y       z     vdW  Elec       q    Type
REMARK                         _______ _______ _______ _____ _____    ______ ____
ROOT
ATOM      1  C   LIG A   1      -7.042   1.860 123.215  0.00  0.00    +0.121 C 
ATOM      2  C   LIG A   1      -7.360   0.395 123.337  0.00  0.00    +0.041 A 
ATOM      3  C   LIG A   1      -8.634  -0.137 123.244  0.00  0.00    -0.016 A 
ATOM      4  C   LIG A   1      -9.829   0.721 122.953  0.00  0.00    +0.056 C 
ATOM      5  C   LIG A   1      -9.404   2.169 122.579  0.00  0.00    +0.110 C 
ATOM      6  N   LIG A   1      -8.293   2.643 123.464  0.00  0.00    -0.326 N 
ATOM      7  C   LIG A   1      -8.619   2.916 124.795  0.00  0.00    +0.082 C 
ATOM      8  C   LIG A   1      -7.806   2.724 125.850  0.00  0.00    +0.057 C 
ATOM      9  C   LIG A   1      -8.554  -1.503 123.623  0.00  0.00    +0.003 A 
ATOM     10  C   LIG A   1      -9.503  -2.521 123.835  0.00  0.00    +0.010 A 
ATOM     11  C   LIG A   1      -9.072  -3.775 124.281  0.00  0.00    +0.001 A 
ATOM     12  C   LIG A   1      -7.720  -4.026 124.501  0.00  0.00    +0.002 A 
ATOM     13  C   LIG A   1      -6.757  -3.035 124.287  0.00  0.00    +0.026 A 
ATOM     14  C   LIG A   1      -7.203  -1.780 123.857  0.00  0.00    +0.047 A 
ATOM     15  N   LIG A   1      -6.492  -0.622 123.618  0.00  0.00    -0.356 N 
ATOM     16  C   LIG A   1      -5.943   2.362 124.161  0.00  0.00    +0.041 C 
ATOM     17  C   LIG A   1      -6.358   2.319 125.654  0.00  0.00    +0.057 C 
ATOM     18  H   LIG A   1      -5.493  -0.537 123.737  0.00  0.00    +0.166 HD
ENDROOT
BRANCH  17  19
ATOM     19  C   LIG A   1      -5.315   3.098 126.476  0.00  0.00    -0.041 C 
ATOM     20  C   LIG A   1      -4.723   2.705 127.627  0.00  0.00    -0.028 C 
ATOM     21  C   LIG A   1      -4.902   1.449 128.418  0.00  0.00    +0.035 C 
BRANCH  19  22
ATOM     22  C   LIG A   1      -4.942   4.451 125.899  0.00  0.00    +0.187 C 
BRANCH  22  23
ATOM     23  O   LIG A   1      -5.524   5.492 126.664  0.00  0.00    -0.391 OA
ATOM     24  H   LIG A   1      -6.427   5.199 126.887  0.00  0.00    +0.210 HD
ENDBRANCH  22  23
ENDBRANCH  19  22
ENDBRANCH  17  19
BRANCH   8  25
ATOM     25  C   LIG A   1      -8.372   2.777 127.227  0.00  0.00    +0.337 C 
ATOM     26  O   LIG A   1      -8.937   1.842 127.789  0.00  0.00    -0.245 OA
BRANCH  25  27
ATOM     27  O   LIG A   1      -8.244   4.029 127.727  0.00  0.00    -0.465 OA
ATOM     28  C   LIG A   1      -7.882   4.167 129.100  0.00  0.00    +0.280 C 
ENDBRANCH  25  27
ENDBRANCH   8  25
TORSDOF 5
ENDMDL
MODEL 8
REMARK VINA RESULT:      -7.4      2.248      2.867
REMARK  Name = NuBBE_97
REMARK  7 active torsions:
REMARK  status: ('A' for Active; 'I' for Inactive)
REMARK    1  A    between atoms: C_9  and  C_10
REMARK    2  A    between atoms: C_10  and  O_11
REMARK    3  A    between atoms: O_11  and  C_12
REMARK    4  A    between atoms: C_22  and  C_23
REMARK    5  A    between atoms: C_23  and  C_24
REMARK    6  A    between atoms: C_24  and  O_25
REMARK    7  A    between atoms: C_26  and  C_27
REMARK                            x       y       z     vdW  Elec       q    Type
REMARK                         _______ _______ _______ _____ _____    ______ ____
ROOT
ATOM      1  C   LIG A   1      -6.993   0.441 124.535  0.00  0.00    +0.121 C 
ATOM      2  C   LIG A   1      -6.818  -0.577 125.628  0.00  0.00    +0.041 A 
ATOM      3  C   LIG A   1      -7.862  -1.190 126.297  0.00  0.00    -0.016 A 
ATOM      4  C   LIG A   1      -9.295  -0.923 125.941  0.00  0.00    +0.056 C 
ATOM      5  C   LIG A   1      -9.402  -0.074 124.643  0.00  0.00    +0.110 C 
ATOM      6  N   LIG A   1      -8.373   1.013 124.631  0.00  0.00    -0.326 N 
ATOM      7  C   LIG A   1      -8.562   2.071 125.524  0.00  0.00    +0.082 C 
ATOM      8  C   LIG A   1      -7.580   2.754 126.141  0.00  0.00    +0.057 C 
ATOM      9  C   LIG A   1      -7.305  -1.910 127.386  0.00  0.00    +0.003 A 
ATOM     10  C   LIG A   1      -7.847  -2.626 128.471  0.00  0.00    +0.010 A 
ATOM     11  C   LIG A   1      -6.986  -3.174 129.427  0.00  0.00    +0.001 A 
ATOM     12  C   LIG A   1      -5.606  -3.030 129.308  0.00  0.00    +0.002 A 
ATOM     13  C   LIG A   1      -5.042  -2.333 128.234  0.00  0.00    +0.026 A 
ATOM     14  C   LIG A   1      -5.917  -1.776 127.293  0.00  0.00    +0.047 A 
ATOM     15  N   LIG A   1      -5.644  -1.008 126.180  0.00  0.00    -0.356 N 
ATOM     16  C   LIG A   1      -5.975   1.589 124.553  0.00  0.00    +0.041 C 
ATOM     17  C   LIG A   1      -6.125   2.517 125.785  0.00  0.00    +0.057 C 
ATOM     18  H   LIG A   1      -4.715  -0.736 125.893  0.00  0.00    +0.166 HD
ENDROOT
BRANCH  17  19
ATOM     19  C   LIG A   1      -5.265   3.773 125.562  0.00  0.00    -0.041 C 
ATOM     20  C   LIG A   1      -4.149   4.130 126.238  0.00  0.00    -0.028 C 
ATOM     21  C   LIG A   1      -3.448   3.441 127.365  0.00  0.00    +0.035 C 
BRANCH  19  22
ATOM     22  C   LIG A   1      -5.760   4.687 124.457  0.00  0.00    +0.187 C 
BRANCH  22  23
ATOM     23  O   LIG A   1      -6.368   5.844 125.006  0.00  0.00    -0.391 OA
ATOM     24  H   LIG A   1      -6.373   5.719 125.973  0.00  0.00    +0.210 HD
ENDBRANCH  22  23
ENDBRANCH  19  22
ENDBRANCH  17  19
BRANCH   8  25
ATOM     25  C   LIG A   1      -7.920   3.653 127.279  0.00  0.00    +0.337 C 
ATOM     26  O   LIG A   1      -8.341   4.801 127.164  0.00  0.00    -0.245 OA
BRANCH  25  27
ATOM     27  O   LIG A   1      -7.615   3.044 128.450  0.00  0.00    -0.465 OA
ATOM     28  C   LIG A   1      -8.662   2.367 129.145  0.00  0.00    +0.280 C 
ENDBRANCH  25  27
ENDBRANCH   8  25
TORSDOF 5
ENDMDL
MODEL 9
REMARK VINA RESULT:      -7.3      2.646      4.752
REMARK  Name = NuBBE_97
REMARK  7 active torsions:
REMARK  status: ('A' for Active; 'I' for Inactive)
REMARK    1  A    between atoms: C_9  and  C_10
REMARK    2  A    between atoms: C_10  and  O_11
REMARK    3  A    between atoms: O_11  and  C_12
REMARK    4  A    between atoms: C_22  and  C_23
REMARK    5  A    between atoms: C_23  and  C_24
REMARK    6  A    between atoms: C_24  and  O_25
REMARK    7  A    between atoms: C_26  and  C_27
REMARK                            x       y       z     vdW  Elec       q    Type
REMARK                         _______ _______ _______ _____ _____    ______ ____
ROOT
ATOM      1  C   LIG A   1      -8.283   0.496 126.618  0.00  0.00    +0.121 C 
ATOM      2  C   LIG A   1      -7.626  -0.524 125.728  0.00  0.00    +0.041 A 
ATOM      3  C   LIG A   1      -6.832  -1.561 126.185  0.00  0.00    -0.016 A 
ATOM      4  C   LIG A   1      -6.598  -1.792 127.648  0.00  0.00    +0.056 C 
ATOM      5  C   LIG A   1      -7.508  -0.877 128.514  0.00  0.00    +0.110 C 
ATOM      6  N   LIG A   1      -7.578   0.503 127.938  0.00  0.00    -0.326 N 
ATOM      7  C   LIG A   1      -6.426   1.289 128.040  0.00  0.00    +0.082 C 
ATOM      8  C   LIG A   1      -6.020   2.195 127.132  0.00  0.00    +0.057 C 
ATOM      9  C   LIG A   1      -6.228  -2.165 125.050  0.00  0.00    +0.003 A 
ATOM     10  C   LIG A   1      -5.256  -3.167 124.873  0.00  0.00    +0.010 A 
ATOM     11  C   LIG A   1      -4.829  -3.484 123.579  0.00  0.00    +0.001 A 
ATOM     12  C   LIG A   1      -5.365  -2.829 122.472  0.00  0.00    +0.002 A 
ATOM     13  C   LIG A   1      -6.340  -1.838 122.622  0.00  0.00    +0.026 A 
ATOM     14  C   LIG A   1      -6.746  -1.520 123.923  0.00  0.00    +0.047 A 
ATOM     15  N   LIG A   1      -7.639  -0.564 124.362  0.00  0.00    -0.356 N 
ATOM     16  C   LIG A   1      -8.306   1.923 126.056  0.00  0.00    +0.041 C 
ATOM     17  C   LIG A   1      -6.896   2.558 125.948  0.00  0.00    +0.057 C 
ATOM     18  H   LIG A   1      -8.140   0.065 123.752  0.00  0.00    +0.166 HD
ENDROOT
BRANCH  17  19
ATOM     19  C   LIG A   1      -7.054   4.060 125.653  0.00  0.00    -0.041 C 
ATOM     20  C   LIG A   1      -6.409   4.779 124.706  0.00  0.00    -0.028 C 
ATOM     21  C   LIG A   1      -5.384   4.348 123.706  0.00  0.00    +0.035 C 
BRANCH  19  22
ATOM     22  C   LIG A   1      -8.049   4.775 126.547  0.00  0.00    +0.187 C 
BRANCH  22  23
ATOM     23  O   LIG A   1      -8.849   5.663 125.786  0.00  0.00    -0.391 OA
ATOM     24  H   LIG A   1      -8.821   5.340 124.866  0.00  0.00    +0.210 HD
ENDBRANCH  22  23
ENDBRANCH  19  22
ENDBRANCH  17  19
BRANCH   8  25
ATOM     25  C   LIG A   1      -4.639   2.746 127.218  0.00  0.00    +0.337 C 
ATOM     26  O   LIG A   1      -3.768   2.590 126.366  0.00  0.00    -0.245 OA
BRANCH  25  27
ATOM     27  O   LIG A   1      -4.467   3.367 128.410  0.00  0.00    -0.465 OA
ATOM     28  C   LIG A   1      -4.764   4.761 128.486  0.00  0.00    +0.280 C 
ENDBRANCH  25  27
ENDBRANCH   8  25
TORSDOF 5
ENDMDL
