MODEL 1
REMARK VINA RESULT:      -7.4      0.000      0.000
REMARK  Name = NuBBE_2038
REMARK  11 active torsions:
REMARK  status: ('A' for Active; 'I' for Inactive)
REMARK    1  A    between atoms: O_1  and  C_2
REMARK    2  A    between atoms: O_1  and  C_3
REMARK    3  A    between atoms: C_4  and  C_5
REMARK    4  A    between atoms: C_5  and  C_7
REMARK    5  A    between atoms: C_7  and  C_8
REMARK    6  A    between atoms: C_8  and  C_9
REMARK    7  A    between atoms: C_12  and  O_15
REMARK    8  A    between atoms: O_15  and  C_16
REMARK    9  A    between atoms: C_17  and  O_18
REMARK   10  A    between atoms: C_20  and  O_22
REMARK   11  A    between atoms: O_22  and  C_23
REMARK                            x       y       z     vdW  Elec       q    Type
REMARK                         _______ _______ _______ _____ _____    ______ ____
ROOT
ATOM      1  C   LIG A   1     -10.976   7.428 128.811  0.00  0.00    +0.138 A 
ATOM      2  C   LIG A   1     -11.213   6.538 129.925  0.00  0.00    +0.101 A 
ATOM      3  C   LIG A   1     -12.172   7.016 130.847  0.00  0.00    +0.134 A 
ATOM      4  C   LIG A   1     -12.945   8.164 130.625  0.00  0.00    +0.092 A 
ATOM      5  C   LIG A   1     -12.738   8.950 129.501  0.00  0.00    +0.127 A 
ATOM      6  C   LIG A   1     -11.725   8.607 128.637  0.00  0.00    +0.092 A 
ENDROOT
BRANCH   1   7
ATOM      7  O   LIG A   1     -10.064   7.410 127.768  0.00  0.00    -0.494 OA
ATOM      8  C   LIG A   1     -10.728   7.510 126.557  0.00  0.00    +0.277 C 
ENDBRANCH   1   7
BRANCH   2   9
ATOM      9  C   LIG A   1     -10.625   5.135 130.235  0.00  0.00    +0.171 C 
ATOM     10  O   LIG A   1     -11.407   4.106 130.122  0.00  0.00    -0.292 OA
BRANCH   9  11
ATOM     11  C   LIG A   1      -9.201   4.862 130.764  0.00  0.00    +0.084 C 
BRANCH  11  12
ATOM     12  C   LIG A   1      -8.797   5.631 132.099  0.00  0.00    +0.043 C 
BRANCH  12  13
ATOM     13  C   LIG A   1      -7.390   6.090 132.191  0.00  0.00    -0.047 A 
ATOM     14  C   LIG A   1      -6.930   6.847 131.137  0.00  0.00    +0.007 A 
ATOM     15  C   LIG A   1      -5.592   7.045 130.976  0.00  0.00    +0.046 A 
ATOM     16  C   LIG A   1      -4.691   6.594 131.933  0.00  0.00    +0.120 A 
ATOM     17  C   LIG A   1      -5.160   5.977 133.097  0.00  0.00    +0.046 A 
ATOM     18  C   LIG A   1      -6.519   5.698 133.223  0.00  0.00    +0.007 A 
BRANCH  16  19
ATOM     19  O   LIG A   1      -3.338   6.725 131.786  0.00  0.00    -0.495 OA
ATOM     20  C   LIG A   1      -2.881   8.072 131.924  0.00  0.00    +0.277 C 
ENDBRANCH  16  19
ENDBRANCH  12  13
ENDBRANCH  11  12
ENDBRANCH   9  11
ENDBRANCH   2   9
BRANCH   3  21
ATOM     21  O   LIG A   1     -12.324   6.419 132.079  0.00  0.00    -0.506 OA
ATOM     22  H   LIG A   1     -11.463   6.369 132.527  0.00  0.00    +0.292 HD
ENDBRANCH   3  21
BRANCH   5  23
ATOM     23  O   LIG A   1     -13.409  10.104 129.221  0.00  0.00    -0.495 OA
ATOM     24  C   LIG A   1     -13.435  11.033 130.298  0.00  0.00    +0.277 C 
ENDBRANCH   5  23
TORSDOF 8
ENDMDL
MODEL 2
REMARK VINA RESULT:      -6.7      8.796     10.878
REMARK  Name = NuBBE_2038
REMARK  11 active torsions:
REMARK  status: ('A' for Active; 'I' for Inactive)
REMARK    1  A    between atoms: O_1  and  C_2
REMARK    2  A    between atoms: O_1  and  C_3
REMARK    3  A    between atoms: C_4  and  C_5
REMARK    4  A    between atoms: C_5  and  C_7
REMARK    5  A    between atoms: C_7  and  C_8
REMARK    6  A    between atoms: C_8  and  C_9
REMARK    7  A    between atoms: C_12  and  O_15
REMARK    8  A    between atoms: O_15  and  C_16
REMARK    9  A    between atoms: C_17  and  O_18
REMARK   10  A    between atoms: C_20  and  O_22
REMARK   11  A    between atoms: O_22  and  C_23
REMARK                            x       y       z     vdW  Elec       q    Type
REMARK                         _______ _______ _______ _____ _____    ______ ____
ROOT
ATOM      1  C   LIG A   1      -7.695   1.527 124.927  0.00  0.00    +0.138 A 
ATOM      2  C   LIG A   1      -8.538   1.737 123.772  0.00  0.00    +0.101 A 
ATOM      3  C   LIG A   1      -8.143   2.827 122.964  0.00  0.00    +0.134 A 
ATOM      4  C   LIG A   1      -6.953   3.540 123.164  0.00  0.00    +0.092 A 
ATOM      5  C   LIG A   1      -6.131   3.254 124.244  0.00  0.00    +0.127 A 
ATOM      6  C   LIG A   1      -6.534   2.293 125.141  0.00  0.00    +0.092 A 
ENDROOT
BRANCH   1   7
ATOM      7  O   LIG A   1      -7.781   0.672 126.014  0.00  0.00    -0.494 OA
ATOM      8  C   LIG A   1      -8.754   1.118 126.892  0.00  0.00    +0.277 C 
ENDBRANCH   1   7
BRANCH   2   9
ATOM      9  C   LIG A   1      -9.763   0.931 123.261  0.00  0.00    +0.171 C 
ATOM     10  O   LIG A   1     -10.942   1.291 123.666  0.00  0.00    -0.292 OA
BRANCH   9  11
ATOM     11  C   LIG A   1      -9.694  -0.332 122.377  0.00  0.00    +0.084 C 
BRANCH  11  12
ATOM     12  C   LIG A   1      -9.473  -1.707 123.149  0.00  0.00    +0.043 C 
BRANCH  12  13
ATOM     13  C   LIG A   1      -8.067  -2.080 123.434  0.00  0.00    -0.047 A 
ATOM     14  C   LIG A   1      -7.107  -1.445 122.679  0.00  0.00    +0.007 A 
ATOM     15  C   LIG A   1      -5.837  -1.937 122.641  0.00  0.00    +0.046 A 
ATOM     16  C   LIG A   1      -5.468  -3.002 123.454  0.00  0.00    +0.120 A 
ATOM     17  C   LIG A   1      -6.388  -3.543 124.357  0.00  0.00    +0.046 A 
ATOM     18  C   LIG A   1      -7.708  -3.099 124.336  0.00  0.00    +0.007 A 
BRANCH  16  19
ATOM     19  O   LIG A   1      -4.220  -3.559 123.412  0.00  0.00    -0.495 OA
ATOM     20  C   LIG A   1      -4.231  -4.983 123.533  0.00  0.00    +0.277 C 
ENDBRANCH  16  19
ENDBRANCH  12  13
ENDBRANCH  11  12
ENDBRANCH   9  11
ENDBRANCH   2   9
BRANCH   3  21
ATOM     21  O   LIG A   1      -8.977   3.315 121.983  0.00  0.00    -0.506 OA
ATOM     22  H   LIG A   1      -9.440   4.104 122.308  0.00  0.00    +0.292 HD
ENDBRANCH   3  21
BRANCH   5  23
ATOM     23  O   LIG A   1      -4.977   3.918 124.545  0.00  0.00    -0.495 OA
ATOM     24  C   LIG A   1      -4.467   3.631 125.843  0.00  0.00    +0.277 C 
ENDBRANCH   5  23
TORSDOF 8
ENDMDL
MODEL 3
REMARK VINA RESULT:      -6.7      8.342     10.841
REMARK  Name = NuBBE_2038
REMARK  11 active torsions:
REMARK  status: ('A' for Active; 'I' for Inactive)
REMARK    1  A    between atoms: O_1  and  C_2
REMARK    2  A    between atoms: O_1  and  C_3
REMARK    3  A    between atoms: C_4  and  C_5
REMARK    4  A    between atoms: C_5  and  C_7
REMARK    5  A    between atoms: C_7  and  C_8
REMARK    6  A    between atoms: C_8  and  C_9
REMARK    7  A    between atoms: C_12  and  O_15
REMARK    8  A    between atoms: O_15  and  C_16
REMARK    9  A    between atoms: C_17  and  O_18
REMARK   10  A    between atoms: C_20  and  O_22
REMARK   11  A    between atoms: O_22  and  C_23
REMARK                            x       y       z     vdW  Elec       q    Type
REMARK                         _______ _______ _______ _____ _____    ______ ____
ROOT
ATOM      1  C   LIG A   1      -9.040  -1.338 124.961  0.00  0.00    +0.138 A 
ATOM      2  C   LIG A   1      -9.281   0.081 125.087  0.00  0.00    +0.101 A 
ATOM      3  C   LIG A   1      -8.749   0.650 126.267  0.00  0.00    +0.134 A 
ATOM      4  C   LIG A   1      -7.923  -0.053 127.154  0.00  0.00    +0.092 A 
ATOM      5  C   LIG A   1      -7.655  -1.399 126.954  0.00  0.00    +0.127 A 
ATOM      6  C   LIG A   1      -8.256  -2.039 125.896  0.00  0.00    +0.092 A 
ENDROOT
BRANCH   1   7
ATOM      7  O   LIG A   1      -9.471  -2.290 124.050  0.00  0.00    -0.494 OA
ATOM      8  C   LIG A   1      -8.772  -3.472 124.233  0.00  0.00    +0.277 C 
ENDBRANCH   1   7
BRANCH   2   9
ATOM      9  C   LIG A   1      -9.977   1.074 124.118  0.00  0.00    +0.171 C 
ATOM     10  O   LIG A   1     -11.249   1.282 124.268  0.00  0.00    -0.292 OA
BRANCH   9  11
ATOM     11  C   LIG A   1      -9.301   1.772 122.918  0.00  0.00    +0.084 C 
BRANCH  11  12
ATOM     12  C   LIG A   1      -8.094   2.748 123.274  0.00  0.00    +0.043 C 
BRANCH  12  13
ATOM     13  C   LIG A   1      -7.306   3.260 122.127  0.00  0.00    -0.047 A 
ATOM     14  C   LIG A   1      -5.981   3.536 122.380  0.00  0.00    +0.007 A 
ATOM     15  C   LIG A   1      -5.266   4.293 121.502  0.00  0.00    +0.046 A 
ATOM     16  C   LIG A   1      -5.824   4.687 120.291  0.00  0.00    +0.120 A 
ATOM     17  C   LIG A   1      -7.111   4.264 119.945  0.00  0.00    +0.046 A 
ATOM     18  C   LIG A   1      -7.873   3.563 120.876  0.00  0.00    +0.007 A 
BRANCH  16  19
ATOM     19  O   LIG A   1      -5.161   5.489 119.404  0.00  0.00    -0.495 OA
ATOM     20  C   LIG A   1      -5.949   5.849 118.267  0.00  0.00    +0.277 C 
ENDBRANCH  16  19
ENDBRANCH  12  13
ENDBRANCH  11  12
ENDBRANCH   9  11
ENDBRANCH   2   9
BRANCH   3  21
ATOM     21  O   LIG A   1      -9.107   1.921 126.659  0.00  0.00    -0.506 OA
ATOM     22  H   LIG A   1      -8.850   2.560 125.974  0.00  0.00    +0.292 HD
ENDBRANCH   3  21
BRANCH   5  23
ATOM     23  O   LIG A   1      -6.900  -2.177 127.783  0.00  0.00    -0.495 OA
ATOM     24  C   LIG A   1      -6.956  -1.786 129.151  0.00  0.00    +0.277 C 
ENDBRANCH   5  23
TORSDOF 8
ENDMDL
MODEL 4
REMARK VINA RESULT:      -6.7      8.222     10.249
REMARK  Name = NuBBE_2038
REMARK  11 active torsions:
REMARK  status: ('A' for Active; 'I' for Inactive)
REMARK    1  A    between atoms: O_1  and  C_2
REMARK    2  A    between atoms: O_1  and  C_3
REMARK    3  A    between atoms: C_4  and  C_5
REMARK    4  A    between atoms: C_5  and  C_7
REMARK    5  A    between atoms: C_7  and  C_8
REMARK    6  A    between atoms: C_8  and  C_9
REMARK    7  A    between atoms: C_12  and  O_15
REMARK    8  A    between atoms: O_15  and  C_16
REMARK    9  A    between atoms: C_17  and  O_18
REMARK   10  A    between atoms: C_20  and  O_22
REMARK   11  A    between atoms: O_22  and  C_23
REMARK                            x       y       z     vdW  Elec       q    Type
REMARK                         _______ _______ _______ _____ _____    ______ ____
ROOT
ATOM      1  C   LIG A   1      -7.191   0.335 124.367  0.00  0.00    +0.138 A 
ATOM      2  C   LIG A   1      -8.164  -0.450 123.641  0.00  0.00    +0.101 A 
ATOM      3  C   LIG A   1      -9.282   0.293 123.195  0.00  0.00    +0.134 A 
ATOM      4  C   LIG A   1      -9.367   1.688 123.298  0.00  0.00    +0.092 A 
ATOM      5  C   LIG A   1      -8.371   2.413 123.935  0.00  0.00    +0.127 A 
ATOM      6  C   LIG A   1      -7.325   1.729 124.508  0.00  0.00    +0.092 A 
ENDROOT
BRANCH   1   7
ATOM      7  O   LIG A   1      -6.038   0.000 125.060  0.00  0.00    -0.494 OA
ATOM      8  C   LIG A   1      -5.742   0.984 125.988  0.00  0.00    +0.277 C 
ENDBRANCH   1   7
BRANCH   2   9
ATOM      9  C   LIG A   1      -8.149  -1.948 123.237  0.00  0.00    +0.171 C 
ATOM     10  O   LIG A   1      -8.043  -2.239 121.977  0.00  0.00    -0.292 OA
BRANCH   9  11
ATOM     11  C   LIG A   1      -8.346  -3.135 124.204  0.00  0.00    +0.084 C 
BRANCH  11  12
ATOM     12  C   LIG A   1      -9.311  -2.869 125.442  0.00  0.00    +0.043 C 
BRANCH  12  13
ATOM     13  C   LIG A   1      -8.676  -2.872 126.781  0.00  0.00    -0.047 A 
ATOM     14  C   LIG A   1      -8.985  -3.939 127.594  0.00  0.00    +0.007 A 
ATOM     15  C   LIG A   1      -8.715  -3.878 128.928  0.00  0.00    +0.046 A 
ATOM     16  C   LIG A   1      -8.017  -2.799 129.458  0.00  0.00    +0.120 A 
ATOM     17  C   LIG A   1      -7.543  -1.791 128.613  0.00  0.00    +0.046 A 
ATOM     18  C   LIG A   1      -7.892  -1.809 127.264  0.00  0.00    +0.007 A 
BRANCH  16  19
ATOM     19  O   LIG A   1      -7.770  -2.671 130.796  0.00  0.00    -0.495 OA
ATOM     20  C   LIG A   1      -6.429  -3.006 131.159  0.00  0.00    +0.277 C 
ENDBRANCH  16  19
ENDBRANCH  12  13
ENDBRANCH  11  12
ENDBRANCH   9  11
ENDBRANCH   2   9
BRANCH   3  21
ATOM     21  O   LIG A   1     -10.406  -0.345 122.720  0.00  0.00    -0.506 OA
ATOM     22  H   LIG A   1     -10.976  -0.602 123.464  0.00  0.00    +0.292 HD
ENDBRANCH   3  21
BRANCH   5  23
ATOM     23  O   LIG A   1      -8.386   3.764 124.121  0.00  0.00    -0.495 OA
ATOM     24  C   LIG A   1      -7.582   4.206 125.209  0.00  0.00    +0.277 C 
ENDBRANCH   5  23
TORSDOF 8
ENDMDL
MODEL 5
REMARK VINA RESULT:      -6.7      2.191      3.566
REMARK  Name = NuBBE_2038
REMARK  11 active torsions:
REMARK  status: ('A' for Active; 'I' for Inactive)
REMARK    1  A    between atoms: O_1  and  C_2
REMARK    2  A    between atoms: O_1  and  C_3
REMARK    3  A    between atoms: C_4  and  C_5
REMARK    4  A    between atoms: C_5  and  C_7
REMARK    5  A    between atoms: C_7  and  C_8
REMARK    6  A    between atoms: C_8  and  C_9
REMARK    7  A    between atoms: C_12  and  O_15
REMARK    8  A    between atoms: O_15  and  C_16
REMARK    9  A    between atoms: C_17  and  O_18
REMARK   10  A    between atoms: C_20  and  O_22
REMARK   11  A    between atoms: O_22  and  C_23
REMARK                            x       y       z     vdW  Elec       q    Type
REMARK                         _______ _______ _______ _____ _____    ______ ____
ROOT
ATOM      1  C   LIG A   1     -11.747   6.892 130.315  0.00  0.00    +0.138 A 
ATOM      2  C   LIG A   1     -10.730   6.474 129.377  0.00  0.00    +0.101 A 
ATOM      3  C   LIG A   1     -10.750   7.186 128.155  0.00  0.00    +0.134 A 
ATOM      4  C   LIG A   1     -11.566   8.302 127.930  0.00  0.00    +0.092 A 
ATOM      5  C   LIG A   1     -12.477   8.717 128.891  0.00  0.00    +0.127 A 
ATOM      6  C   LIG A   1     -12.597   7.980 130.045  0.00  0.00    +0.092 A 
ENDROOT
BRANCH   1   7
ATOM      7  O   LIG A   1     -12.150   6.402 131.547  0.00  0.00    -0.494 OA
ATOM      8  C   LIG A   1     -11.082   6.405 132.430  0.00  0.00    +0.277 C 
ENDBRANCH   1   7
BRANCH   2   9
ATOM      9  C   LIG A   1      -9.602   5.417 129.519  0.00  0.00    +0.171 C 
ATOM     10  O   LIG A   1      -8.435   5.700 129.027  0.00  0.00    -0.292 OA
BRANCH   9  11
ATOM     11  C   LIG A   1      -9.774   4.005 130.117  0.00  0.00    +0.084 C 
BRANCH  11  12
ATOM     12  C   LIG A   1      -8.473   3.370 130.781  0.00  0.00    +0.043 C 
BRANCH  12  13
ATOM     13  C   LIG A   1      -8.081   3.912 132.104  0.00  0.00    -0.047 A 
ATOM     14  C   LIG A   1      -8.753   3.399 133.191  0.00  0.00    +0.007 A 
ATOM     15  C   LIG A   1      -8.695   4.042 134.390  0.00  0.00    +0.046 A 
ATOM     16  C   LIG A   1      -7.866   5.144 134.561  0.00  0.00    +0.120 A 
ATOM     17  C   LIG A   1      -7.044   5.569 133.513  0.00  0.00    +0.046 A 
ATOM     18  C   LIG A   1      -7.164   4.966 132.263  0.00  0.00    +0.007 A 
BRANCH  16  19
ATOM     19  O   LIG A   1      -7.816   5.850 135.731  0.00  0.00    -0.495 OA
ATOM     20  C   LIG A   1      -6.637   5.594 136.498  0.00  0.00    +0.277 C 
ENDBRANCH  16  19
ENDBRANCH  12  13
ENDBRANCH  11  12
ENDBRANCH   9  11
ENDBRANCH   2   9
BRANCH   3  21
ATOM     21  O   LIG A   1     -10.025   6.745 127.071  0.00  0.00    -0.506 OA
ATOM     22  H   LIG A   1      -9.176   6.381 127.371  0.00  0.00    +0.292 HD
ENDBRANCH   3  21
BRANCH   5  23
ATOM     23  O   LIG A   1     -13.342   9.763 128.748  0.00  0.00    -0.495 OA
ATOM     24  C   LIG A   1     -13.380  10.639 129.869  0.00  0.00    +0.277 C 
ENDBRANCH   5  23
TORSDOF 8
ENDMDL
MODEL 6
REMARK VINA RESULT:      -6.6      1.259      2.718
REMARK  Name = NuBBE_2038
REMARK  11 active torsions:
REMARK  status: ('A' for Active; 'I' for Inactive)
REMARK    1  A    between atoms: O_1  and  C_2
REMARK    2  A    between atoms: O_1  and  C_3
REMARK    3  A    between atoms: C_4  and  C_5
REMARK    4  A    between atoms: C_5  and  C_7
REMARK    5  A    between atoms: C_7  and  C_8
REMARK    6  A    between atoms: C_8  and  C_9
REMARK    7  A    between atoms: C_12  and  O_15
REMARK    8  A    between atoms: O_15  and  C_16
REMARK    9  A    between atoms: C_17  and  O_18
REMARK   10  A    between atoms: C_20  and  O_22
REMARK   11  A    between atoms: O_22  and  C_23
REMARK                            x       y       z     vdW  Elec       q    Type
REMARK                         _______ _______ _______ _____ _____    ______ ____
ROOT
ATOM      1  C   LIG A   1     -11.726   6.732 130.171  0.00  0.00    +0.138 A 
ATOM      2  C   LIG A   1     -10.617   6.420 129.298  0.00  0.00    +0.101 A 
ATOM      3  C   LIG A   1     -10.624   7.141 128.082  0.00  0.00    +0.134 A 
ATOM      4  C   LIG A   1     -11.523   8.181 127.811  0.00  0.00    +0.092 A 
ATOM      5  C   LIG A   1     -12.528   8.500 128.713  0.00  0.00    +0.127 A 
ATOM      6  C   LIG A   1     -12.653   7.742 129.853  0.00  0.00    +0.092 A 
ENDROOT
BRANCH   1   7
ATOM      7  O   LIG A   1     -12.161   6.194 131.372  0.00  0.00    -0.494 OA
ATOM      8  C   LIG A   1     -11.312   6.578 132.397  0.00  0.00    +0.277 C 
ENDBRANCH   1   7
BRANCH   2   9
ATOM      9  C   LIG A   1      -9.409   5.468 129.507  0.00  0.00    +0.171 C 
ATOM     10  O   LIG A   1      -9.177   4.569 128.601  0.00  0.00    -0.292 OA
BRANCH   9  11
ATOM     11  C   LIG A   1      -8.505   5.434 130.758  0.00  0.00    +0.084 C 
BRANCH  11  12
ATOM     12  C   LIG A   1      -7.740   6.789 131.097  0.00  0.00    +0.043 C 
BRANCH  12  13
ATOM     13  C   LIG A   1      -6.307   6.661 131.455  0.00  0.00    -0.047 A 
ATOM     14  C   LIG A   1      -6.034   6.004 132.633  0.00  0.00    +0.007 A 
ATOM     15  C   LIG A   1      -4.800   6.109 133.199  0.00  0.00    +0.046 A 
ATOM     16  C   LIG A   1      -3.774   6.773 132.537  0.00  0.00    +0.120 A 
ATOM     17  C   LIG A   1      -3.990   7.295 131.258  0.00  0.00    +0.046 A 
ATOM     18  C   LIG A   1      -5.273   7.263 130.715  0.00  0.00    +0.007 A 
BRANCH  16  19
ATOM     19  O   LIG A   1      -2.536   6.947 133.091  0.00  0.00    -0.495 OA
ATOM     20  C   LIG A   1      -1.717   5.777 133.027  0.00  0.00    +0.277 C 
ENDBRANCH  16  19
ENDBRANCH  12  13
ENDBRANCH  11  12
ENDBRANCH   9  11
ENDBRANCH   2   9
BRANCH   3  21
ATOM     21  O   LIG A   1      -9.793   6.780 127.044  0.00  0.00    -0.506 OA
ATOM     22  H   LIG A   1     -10.318   6.393 126.325  0.00  0.00    +0.292 HD
ENDBRANCH   3  21
BRANCH   5  23
ATOM     23  O   LIG A   1     -13.473   9.465 128.520  0.00  0.00    -0.495 OA
ATOM     24  C   LIG A   1     -13.427  10.519 129.475  0.00  0.00    +0.277 C 
ENDBRANCH   5  23
TORSDOF 8
ENDMDL
MODEL 7
REMARK VINA RESULT:      -6.5      9.457     11.453
REMARK  Name = NuBBE_2038
REMARK  11 active torsions:
REMARK  status: ('A' for Active; 'I' for Inactive)
REMARK    1  A    between atoms: O_1  and  C_2
REMARK    2  A    between atoms: O_1  and  C_3
REMARK    3  A    between atoms: C_4  and  C_5
REMARK    4  A    between atoms: C_5  and  C_7
REMARK    5  A    between atoms: C_7  and  C_8
REMARK    6  A    between atoms: C_8  and  C_9
REMARK    7  A    between atoms: C_12  and  O_15
REMARK    8  A    between atoms: O_15  and  C_16
REMARK    9  A    between atoms: C_17  and  O_18
REMARK   10  A    between atoms: C_20  and  O_22
REMARK   11  A    between atoms: O_22  and  C_23
REMARK                            x       y       z     vdW  Elec       q    Type
REMARK                         _______ _______ _______ _____ _____    ______ ____
ROOT
ATOM      1  C   LIG A   1      -6.623  -1.669 125.822  0.00  0.00    +0.138 A 
ATOM      2  C   LIG A   1      -7.759  -1.740 124.931  0.00  0.00    +0.101 A 
ATOM      3  C   LIG A   1      -8.843  -2.489 125.444  0.00  0.00    +0.134 A 
ATOM      4  C   LIG A   1      -8.886  -2.978 126.756  0.00  0.00    +0.092 A 
ATOM      5  C   LIG A   1      -7.801  -2.819 127.606  0.00  0.00    +0.127 A 
ATOM      6  C   LIG A   1      -6.666  -2.217 127.117  0.00  0.00    +0.092 A 
ENDROOT
BRANCH   1   7
ATOM      7  O   LIG A   1      -5.345  -1.152 125.679  0.00  0.00    -0.494 OA
ATOM      8  C   LIG A   1      -5.341   0.197 125.993  0.00  0.00    +0.277 C 
ENDBRANCH   1   7
BRANCH   2   9
ATOM      9  C   LIG A   1      -7.990  -1.091 123.540  0.00  0.00    +0.171 C 
ATOM     10  O   LIG A   1      -7.388  -1.613 122.516  0.00  0.00    -0.292 OA
BRANCH   9  11
ATOM     11  C   LIG A   1      -8.808   0.192 123.279  0.00  0.00    +0.084 C 
BRANCH  11  12
ATOM     12  C   LIG A   1      -8.163   1.546 123.814  0.00  0.00    +0.043 C 
BRANCH  12  13
ATOM     13  C   LIG A   1      -7.722   2.515 122.782  0.00  0.00    -0.047 A 
ATOM     14  C   LIG A   1      -8.719   3.081 122.019  0.00  0.00    +0.007 A 
ATOM     15  C   LIG A   1      -8.405   3.725 120.861  0.00  0.00    +0.046 A 
ATOM     16  C   LIG A   1      -7.077   3.925 120.502  0.00  0.00    +0.120 A 
ATOM     17  C   LIG A   1      -6.052   3.509 121.357  0.00  0.00    +0.046 A 
ATOM     18  C   LIG A   1      -6.370   2.776 122.498  0.00  0.00    +0.007 A 
BRANCH  16  19
ATOM     19  O   LIG A   1      -6.717   4.520 119.325  0.00  0.00    -0.495 OA
ATOM     20  C   LIG A   1      -5.549   5.336 119.436  0.00  0.00    +0.277 C 
ENDBRANCH  16  19
ENDBRANCH  12  13
ENDBRANCH  11  12
ENDBRANCH   9  11
ENDBRANCH   2   9
BRANCH   3  21
ATOM     21  O   LIG A   1      -9.887  -2.866 124.628  0.00  0.00    -0.506 OA
ATOM     22  H   LIG A   1      -9.574  -3.512 123.974  0.00  0.00    +0.292 HD
ENDBRANCH   3  21
BRANCH   5  23
ATOM     23  O   LIG A   1      -7.732  -3.295 128.883  0.00  0.00    -0.495 OA
ATOM     24  C   LIG A   1      -7.025  -2.445 129.779  0.00  0.00    +0.277 C 
ENDBRANCH   5  23
TORSDOF 8
ENDMDL
MODEL 8
REMARK VINA RESULT:      -6.5      8.052     10.029
REMARK  Name = NuBBE_2038
REMARK  11 active torsions:
REMARK  status: ('A' for Active; 'I' for Inactive)
REMARK    1  A    between atoms: O_1  and  C_2
REMARK    2  A    between atoms: O_1  and  C_3
REMARK    3  A    between atoms: C_4  and  C_5
REMARK    4  A    between atoms: C_5  and  C_7
REMARK    5  A    between atoms: C_7  and  C_8
REMARK    6  A    between atoms: C_8  and  C_9
REMARK    7  A    between atoms: C_12  and  O_15
REMARK    8  A    between atoms: O_15  and  C_16
REMARK    9  A    between atoms: C_17  and  O_18
REMARK   10  A    between atoms: C_20  and  O_22
REMARK   11  A    between atoms: O_22  and  C_23
REMARK                            x       y       z     vdW  Elec       q    Type
REMARK                         _______ _______ _______ _____ _____    ______ ____
ROOT
ATOM      1  C   LIG A   1      -7.582   1.532 123.232  0.00  0.00    +0.138 A 
ATOM      2  C   LIG A   1      -8.390   0.407 123.643  0.00  0.00    +0.101 A 
ATOM      3  C   LIG A   1      -9.237   0.681 124.741  0.00  0.00    +0.134 A 
ATOM      4  C   LIG A   1      -9.406   1.964 125.279  0.00  0.00    +0.092 A 
ATOM      5  C   LIG A   1      -8.665   3.034 124.802  0.00  0.00    +0.127 A 
ATOM      6  C   LIG A   1      -7.726   2.800 123.825  0.00  0.00    +0.092 A 
ENDROOT
BRANCH   1   7
ATOM      7  O   LIG A   1      -6.562   1.670 122.303  0.00  0.00    -0.494 OA
ATOM      8  C   LIG A   1      -6.394   3.006 121.980  0.00  0.00    +0.277 C 
ENDBRANCH   1   7
BRANCH   2   9
ATOM      9  C   LIG A   1      -8.508  -1.020 123.044  0.00  0.00    +0.171 C 
ATOM     10  O   LIG A   1      -9.695  -1.516 122.878  0.00  0.00    -0.292 OA
BRANCH   9  11
ATOM     11  C   LIG A   1      -7.321  -1.950 122.713  0.00  0.00    +0.084 C 
BRANCH  11  12
ATOM     12  C   LIG A   1      -6.494  -2.491 123.961  0.00  0.00    +0.043 C 
BRANCH  12  13
ATOM     13  C   LIG A   1      -7.230  -2.583 125.245  0.00  0.00    -0.047 A 
ATOM     14  C   LIG A   1      -6.759  -1.793 126.270  0.00  0.00    +0.007 A 
ATOM     15  C   LIG A   1      -7.156  -2.035 127.550  0.00  0.00    +0.046 A 
ATOM     16  C   LIG A   1      -8.127  -2.992 127.820  0.00  0.00    +0.120 A 
ATOM     17  C   LIG A   1      -8.742  -3.679 126.769  0.00  0.00    +0.046 A 
ATOM     18  C   LIG A   1      -8.277  -3.495 125.468  0.00  0.00    +0.007 A 
BRANCH  16  19
ATOM     19  O   LIG A   1      -8.517  -3.303 129.093  0.00  0.00    -0.495 OA
ATOM     20  C   LIG A   1      -7.850  -2.533 130.095  0.00  0.00    +0.277 C 
ENDBRANCH  16  19
ENDBRANCH  12  13
ENDBRANCH  11  12
ENDBRANCH   9  11
ENDBRANCH   2   9
BRANCH   3  21
ATOM     21  O   LIG A   1      -9.874  -0.340 125.412  0.00  0.00    -0.506 OA
ATOM     22  H   LIG A   1     -10.687  -0.584 124.940  0.00  0.00    +0.292 HD
ENDBRANCH   3  21
BRANCH   5  23
ATOM     23  O   LIG A   1      -8.728   4.307 125.288  0.00  0.00    -0.495 OA
ATOM     24  C   LIG A   1      -7.470   4.833 125.697  0.00  0.00    +0.277 C 
ENDBRANCH   5  23
TORSDOF 8
ENDMDL
MODEL 9
REMARK VINA RESULT:      -6.4      8.514     11.466
REMARK  Name = NuBBE_2038
REMARK  11 active torsions:
REMARK  status: ('A' for Active; 'I' for Inactive)
REMARK    1  A    between atoms: O_1  and  C_2
REMARK    2  A    between atoms: O_1  and  C_3
REMARK    3  A    between atoms: C_4  and  C_5
REMARK    4  A    between atoms: C_5  and  C_7
REMARK    5  A    between atoms: C_7  and  C_8
REMARK    6  A    between atoms: C_8  and  C_9
REMARK    7  A    between atoms: C_12  and  O_15
REMARK    8  A    between atoms: O_15  and  C_16
REMARK    9  A    between atoms: C_17  and  O_18
REMARK   10  A    between atoms: C_20  and  O_22
REMARK   11  A    between atoms: O_22  and  C_23
REMARK                            x       y       z     vdW  Elec       q    Type
REMARK                         _______ _______ _______ _____ _____    ______ ____
ROOT
ATOM      1  C   LIG A   1      -7.273   0.055 124.120  0.00  0.00    +0.138 A 
ATOM      2  C   LIG A   1      -6.523   0.653 125.202  0.00  0.00    +0.101 A 
ATOM      3  C   LIG A   1      -5.623  -0.236 125.834  0.00  0.00    +0.134 A 
ATOM      4  C   LIG A   1      -5.356  -1.526 125.358  0.00  0.00    +0.092 A 
ATOM      5  C   LIG A   1      -6.045  -2.034 124.266  0.00  0.00    +0.127 A 
ATOM      6  C   LIG A   1      -7.030  -1.263 123.694  0.00  0.00    +0.092 A 
ENDROOT
BRANCH   1   7
ATOM      7  O   LIG A   1      -8.313   0.516 123.328  0.00  0.00    -0.494 OA
ATOM      8  C   LIG A   1      -9.479   0.586 124.072  0.00  0.00    +0.277 C 
ENDBRANCH   1   7
BRANCH   2   9
ATOM      9  C   LIG A   1      -6.515   2.110 125.736  0.00  0.00    +0.171 C 
ATOM     10  O   LIG A   1      -6.344   2.291 127.010  0.00  0.00    -0.292 OA
BRANCH   9  11
ATOM     11  C   LIG A   1      -6.789   3.372 124.891  0.00  0.00    +0.084 C 
BRANCH  11  12
ATOM     12  C   LIG A   1      -5.592   3.856 123.959  0.00  0.00    +0.043 C 
BRANCH  12  13
ATOM     13  C   LIG A   1      -5.867   3.890 122.503  0.00  0.00    -0.047 A 
ATOM     14  C   LIG A   1      -4.888   4.452 121.715  0.00  0.00    +0.007 A 
ATOM     15  C   LIG A   1      -5.172   4.814 120.433  0.00  0.00    +0.046 A 
ATOM     16  C   LIG A   1      -6.405   4.507 119.870  0.00  0.00    +0.120 A 
ATOM     17  C   LIG A   1      -7.346   3.778 120.604  0.00  0.00    +0.046 A 
ATOM     18  C   LIG A   1      -7.091   3.484 121.941  0.00  0.00    +0.007 A 
BRANCH  16  19
ATOM     19  O   LIG A   1      -6.752   4.896 118.606  0.00  0.00    -0.495 OA
ATOM     20  C   LIG A   1      -5.996   6.011 118.128  0.00  0.00    +0.277 C 
ENDBRANCH  16  19
ENDBRANCH  12  13
ENDBRANCH  11  12
ENDBRANCH   9  11
ENDBRANCH   2   9
BRANCH   3  21
ATOM     21  O   LIG A   1      -5.029   0.097 127.031  0.00  0.00    -0.506 OA
ATOM     22  H   LIG A   1      -4.167   0.512 126.864  0.00  0.00    +0.292 HD
ENDBRANCH   3  21
BRANCH   5  23
ATOM     23  O   LIG A   1      -5.886  -3.290 123.757  0.00  0.00    -0.495 OA
ATOM     24  C   LIG A   1      -4.532  -3.638 123.492  0.00  0.00    +0.277 C 
ENDBRANCH   5  23
TORSDOF 8
ENDMDL
