MODEL 1
REMARK VINA RESULT:      -8.1      0.000      0.000
REMARK  Name = NuBBE_1910
REMARK  1 active torsions:
REMARK  status: ('A' for Active; 'I' for Inactive)
REMARK    1  A    between atoms: C_12  and  O_13
REMARK                            x       y       z     vdW  Elec       q    Type
REMARK                         _______ _______ _______ _____ _____    ______ ____
ROOT
ATOM      1  O   LIG A   1     -11.992   6.092 132.127  0.00  0.00    -0.286 OA
ATOM      2  C   LIG A   1     -11.115   6.535 131.399  0.00  0.00    +0.200 A 
ATOM      3  C   LIG A   1      -9.694   6.407 131.744  0.00  0.00    +0.072 A 
ATOM      4  C   LIG A   1      -8.736   6.938 130.864  0.00  0.00    +0.184 A 
ATOM      5  O   LIG A   1      -9.059   7.579 129.688  0.00  0.00    -0.451 OA
ATOM      6  C   LIG A   1     -10.388   7.703 129.356  0.00  0.00    +0.139 A 
ATOM      7  C   LIG A   1     -11.433   7.219 130.140  0.00  0.00    +0.065 A 
ATOM      8  C   LIG A   1     -12.763   7.380 129.741  0.00  0.00    +0.015 A 
ATOM      9  C   LIG A   1     -13.049   8.033 128.543  0.00  0.00    +0.001 A 
ATOM     10  C   LIG A   1     -12.008   8.521 127.752  0.00  0.00    +0.004 A 
ATOM     11  C   LIG A   1     -10.679   8.357 128.156  0.00  0.00    +0.047 A 
ATOM     12  C   LIG A   1      -7.377   6.821 131.176  0.00  0.00    +0.206 A 
ATOM     13  C   LIG A   1      -7.021   6.181 132.348  0.00  0.00    +0.211 A 
ATOM     14  C   LIG A   1      -7.973   5.668 133.199  0.00  0.00    +0.171 A 
ATOM     15  O   LIG A   1      -7.431   5.076 134.295  0.00  0.00    -0.452 OA
ATOM     16  C   LIG A   1      -6.025   5.258 134.036  0.00  0.00    +0.467 C 
ATOM     17  O   LIG A   1      -5.758   5.972 132.813  0.00  0.00    -0.449 OA
ATOM     18  C   LIG A   1      -9.320   5.763 132.930  0.00  0.00    +0.065 A 
ENDROOT
BRANCH  12  19
ATOM     19  O   LIG A   1      -6.410   7.321 130.354  0.00  0.00    -0.501 OA
ATOM     20  H   LIG A   1      -6.266   6.675 129.640  0.00  0.00    +0.292 HD
ENDBRANCH  12  19
TORSDOF 1
ENDMDL
MODEL 2
REMARK VINA RESULT:      -7.9      1.302      6.223
REMARK  Name = NuBBE_1910
REMARK  1 active torsions:
REMARK  status: ('A' for Active; 'I' for Inactive)
REMARK    1  A    between atoms: C_12  and  O_13
REMARK                            x       y       z     vdW  Elec       q    Type
REMARK                         _______ _______ _______ _____ _____    ______ ____
ROOT
ATOM      1  O   LIG A   1      -6.710   7.194 130.602  0.00  0.00    -0.286 OA
ATOM      2  C   LIG A   1      -7.662   6.757 131.234  0.00  0.00    +0.200 A 
ATOM      3  C   LIG A   1      -9.044   6.986 130.795  0.00  0.00    +0.072 A 
ATOM      4  C   LIG A   1     -10.093   6.457 131.566  0.00  0.00    +0.184 A 
ATOM      5  O   LIG A   1      -9.895   5.732 132.721  0.00  0.00    -0.451 OA
ATOM      6  C   LIG A   1      -8.603   5.512 133.139  0.00  0.00    +0.139 A 
ATOM      7  C   LIG A   1      -7.478   5.979 132.465  0.00  0.00    +0.065 A 
ATOM      8  C   LIG A   1      -6.192   5.717 132.948  0.00  0.00    +0.015 A 
ATOM      9  C   LIG A   1      -6.033   4.979 134.119  0.00  0.00    +0.001 A 
ATOM     10  C   LIG A   1      -7.156   4.507 134.800  0.00  0.00    +0.004 A 
ATOM     11  C   LIG A   1      -8.440   4.772 134.312  0.00  0.00    +0.047 A 
ATOM     12  C   LIG A   1     -11.416   6.664 131.159  0.00  0.00    +0.206 A 
ATOM     13  C   LIG A   1     -11.648   7.385 130.003  0.00  0.00    +0.211 A 
ATOM     14  C   LIG A   1     -10.607   7.897 129.262  0.00  0.00    +0.171 A 
ATOM     15  O   LIG A   1     -11.032   8.574 128.162  0.00  0.00    -0.452 OA
ATOM     16  C   LIG A   1     -12.460   8.420 128.283  0.00  0.00    +0.467 C 
ATOM     17  O   LIG A   1     -12.858   7.683 129.455  0.00  0.00    -0.449 OA
ATOM     18  C   LIG A   1      -9.292   7.718 129.627  0.00  0.00    +0.065 A 
ENDROOT
BRANCH  12  19
ATOM     19  O   LIG A   1     -12.468   6.171 131.874  0.00  0.00    -0.501 OA
ATOM     20  H   LIG A   1     -12.128   5.468 132.455  0.00  0.00    +0.292 HD
ENDBRANCH  12  19
TORSDOF 1
ENDMDL
MODEL 3
REMARK VINA RESULT:      -7.6      8.419      9.698
REMARK  Name = NuBBE_1910
REMARK  1 active torsions:
REMARK  status: ('A' for Active; 'I' for Inactive)
REMARK    1  A    between atoms: C_12  and  O_13
REMARK                            x       y       z     vdW  Elec       q    Type
REMARK                         _______ _______ _______ _____ _____    ______ ____
ROOT
ATOM      1  O   LIG A   1      -4.675   4.224 123.138  0.00  0.00    -0.286 OA
ATOM      2  C   LIG A   1      -5.794   3.903 122.762  0.00  0.00    +0.200 A 
ATOM      3  C   LIG A   1      -6.747   3.246 123.664  0.00  0.00    +0.072 A 
ATOM      4  C   LIG A   1      -8.017   2.903 123.169  0.00  0.00    +0.184 A 
ATOM      5  O   LIG A   1      -8.419   3.149 121.875  0.00  0.00    -0.451 OA
ATOM      6  C   LIG A   1      -7.532   3.765 121.023  0.00  0.00    +0.139 A 
ATOM      7  C   LIG A   1      -6.247   4.157 121.389  0.00  0.00    +0.065 A 
ATOM      8  C   LIG A   1      -5.397   4.779 120.470  0.00  0.00    +0.015 A 
ATOM      9  C   LIG A   1      -5.841   5.012 119.169  0.00  0.00    +0.001 A 
ATOM     10  C   LIG A   1      -7.128   4.623 118.794  0.00  0.00    +0.004 A 
ATOM     11  C   LIG A   1      -7.973   4.000 119.718  0.00  0.00    +0.047 A 
ATOM     12  C   LIG A   1      -8.939   2.280 124.018  0.00  0.00    +0.206 A 
ATOM     13  C   LIG A   1      -8.567   2.022 125.324  0.00  0.00    +0.211 A 
ATOM     14  C   LIG A   1      -7.318   2.363 125.790  0.00  0.00    +0.171 A 
ATOM     15  O   LIG A   1      -7.138   2.032 127.096  0.00  0.00    -0.452 OA
ATOM     16  C   LIG A   1      -8.421   1.454 127.409  0.00  0.00    +0.467 C 
ATOM     17  O   LIG A   1      -9.325   1.429 126.288  0.00  0.00    -0.449 OA
ATOM     18  C   LIG A   1      -6.381   2.976 124.988  0.00  0.00    +0.065 A 
ENDROOT
BRANCH  12  19
ATOM     19  O   LIG A   1     -10.184   1.928 123.584  0.00  0.00    -0.501 OA
ATOM     20  H   LIG A   1     -10.345   2.388 122.742  0.00  0.00    +0.292 HD
ENDBRANCH  12  19
TORSDOF 1
ENDMDL
MODEL 4
REMARK VINA RESULT:      -7.2      2.261      3.238
REMARK  Name = NuBBE_1910
REMARK  1 active torsions:
REMARK  status: ('A' for Active; 'I' for Inactive)
REMARK    1  A    between atoms: C_12  and  O_13
REMARK                            x       y       z     vdW  Elec       q    Type
REMARK                         _______ _______ _______ _____ _____    ______ ____
ROOT
ATOM      1  O   LIG A   1      -9.660   6.448 127.595  0.00  0.00    -0.286 OA
ATOM      2  C   LIG A   1     -10.094   6.460 128.738  0.00  0.00    +0.200 A 
ATOM      3  C   LIG A   1      -9.567   5.558 129.769  0.00  0.00    +0.072 A 
ATOM      4  C   LIG A   1     -10.110   5.623 131.063  0.00  0.00    +0.184 A 
ATOM      5  O   LIG A   1     -11.117   6.491 131.421  0.00  0.00    -0.451 OA
ATOM      6  C   LIG A   1     -11.617   7.341 130.461  0.00  0.00    +0.139 A 
ATOM      7  C   LIG A   1     -11.165   7.378 129.144  0.00  0.00    +0.065 A 
ATOM      8  C   LIG A   1     -11.719   8.269 128.221  0.00  0.00    +0.015 A 
ATOM      9  C   LIG A   1     -12.736   9.133 128.621  0.00  0.00    +0.001 A 
ATOM     10  C   LIG A   1     -13.195   9.103 129.939  0.00  0.00    +0.004 A 
ATOM     11  C   LIG A   1     -12.637   8.208 130.859  0.00  0.00    +0.047 A 
ATOM     12  C   LIG A   1      -9.615   4.772 132.058  0.00  0.00    +0.206 A 
ATOM     13  C   LIG A   1      -8.602   3.891 131.731  0.00  0.00    +0.211 A 
ATOM     14  C   LIG A   1      -8.084   3.840 130.457  0.00  0.00    +0.171 A 
ATOM     15  O   LIG A   1      -7.097   2.915 130.330  0.00  0.00    -0.452 OA
ATOM     16  C   LIG A   1      -7.037   2.394 131.673  0.00  0.00    +0.467 C 
ATOM     17  O   LIG A   1      -7.999   2.995 132.562  0.00  0.00    -0.449 OA
ATOM     18  C   LIG A   1      -8.542   4.659 129.449  0.00  0.00    +0.065 A 
ENDROOT
BRANCH  12  19
ATOM     19  O   LIG A   1     -10.110   4.797 133.329  0.00  0.00    -0.501 OA
ATOM     20  H   LIG A   1     -10.272   5.727 133.566  0.00  0.00    +0.292 HD
ENDBRANCH  12  19
TORSDOF 1
ENDMDL
MODEL 5
REMARK VINA RESULT:      -7.0      1.485      6.343
REMARK  Name = NuBBE_1910
REMARK  1 active torsions:
REMARK  status: ('A' for Active; 'I' for Inactive)
REMARK    1  A    between atoms: C_12  and  O_13
REMARK                            x       y       z     vdW  Elec       q    Type
REMARK                         _______ _______ _______ _____ _____    ______ ____
ROOT
ATOM      1  O   LIG A   1      -6.071   7.635 130.308  0.00  0.00    -0.286 OA
ATOM      2  C   LIG A   1      -6.538   6.943 131.201  0.00  0.00    +0.200 A 
ATOM      3  C   LIG A   1      -7.983   6.702 131.309  0.00  0.00    +0.072 A 
ATOM      4  C   LIG A   1      -8.454   5.897 132.359  0.00  0.00    +0.184 A 
ATOM      5  O   LIG A   1      -7.632   5.317 133.300  0.00  0.00    -0.451 OA
ATOM      6  C   LIG A   1      -6.278   5.536 133.206  0.00  0.00    +0.139 A 
ATOM      7  C   LIG A   1      -5.683   6.312 132.213  0.00  0.00    +0.065 A 
ATOM      8  C   LIG A   1      -4.297   6.492 132.178  0.00  0.00    +0.015 A 
ATOM      9  C   LIG A   1      -3.498   5.889 133.147  0.00  0.00    +0.001 A 
ATOM     10  C   LIG A   1      -4.086   5.110 134.145  0.00  0.00    +0.004 A 
ATOM     11  C   LIG A   1      -5.473   4.933 134.176  0.00  0.00    +0.047 A 
ATOM     12  C   LIG A   1      -9.828   5.655 132.475  0.00  0.00    +0.206 A 
ATOM     13  C   LIG A   1     -10.680   6.220 131.544  0.00  0.00    +0.211 A 
ATOM     14  C   LIG A   1     -10.199   7.007 130.524  0.00  0.00    +0.171 A 
ATOM     15  O   LIG A   1     -11.185   7.470 129.711  0.00  0.00    -0.452 OA
ATOM     16  C   LIG A   1     -12.345   6.874 130.324  0.00  0.00    +0.467 C 
ATOM     17  O   LIG A   1     -12.035   6.095 131.495  0.00  0.00    -0.449 OA
ATOM     18  C   LIG A   1      -8.856   7.271 130.375  0.00  0.00    +0.065 A 
ENDROOT
BRANCH  12  19
ATOM     19  O   LIG A   1     -10.335   4.880 133.477  0.00  0.00    -0.501 OA
ATOM     20  H   LIG A   1     -11.002   4.289 133.085  0.00  0.00    +0.292 HD
ENDBRANCH  12  19
TORSDOF 1
ENDMDL
MODEL 6
REMARK VINA RESULT:      -7.0      9.365     10.841
REMARK  Name = NuBBE_1910
REMARK  1 active torsions:
REMARK  status: ('A' for Active; 'I' for Inactive)
REMARK    1  A    between atoms: C_12  and  O_13
REMARK                            x       y       z     vdW  Elec       q    Type
REMARK                         _______ _______ _______ _____ _____    ______ ____
ROOT
ATOM      1  O   LIG A   1      -6.502   0.491 126.957  0.00  0.00    -0.286 OA
ATOM      2  C   LIG A   1      -7.379  -0.083 126.327  0.00  0.00    +0.200 A 
ATOM      3  C   LIG A   1      -7.945   0.494 125.101  0.00  0.00    +0.072 A 
ATOM      4  C   LIG A   1      -8.951  -0.217 124.425  0.00  0.00    +0.184 A 
ATOM      5  O   LIG A   1      -9.441  -1.431 124.851  0.00  0.00    -0.451 OA
ATOM      6  C   LIG A   1      -8.915  -1.979 125.998  0.00  0.00    +0.139 A 
ATOM      7  C   LIG A   1      -7.915  -1.379 126.759  0.00  0.00    +0.065 A 
ATOM      8  C   LIG A   1      -7.427  -1.994 127.916  0.00  0.00    +0.015 A 
ATOM      9  C   LIG A   1      -7.947  -3.223 128.315  0.00  0.00    +0.001 A 
ATOM     10  C   LIG A   1      -8.950  -3.832 127.558  0.00  0.00    +0.004 A 
ATOM     11  C   LIG A   1      -9.434  -3.212 126.401  0.00  0.00    +0.047 A 
ATOM     12  C   LIG A   1      -9.499   0.318 123.253  0.00  0.00    +0.206 A 
ATOM     13  C   LIG A   1      -9.026   1.534 122.796  0.00  0.00    +0.211 A 
ATOM     14  C   LIG A   1      -8.042   2.216 123.474  0.00  0.00    +0.171 A 
ATOM     15  O   LIG A   1      -7.709   3.389 122.873  0.00  0.00    -0.452 OA
ATOM     16  C   LIG A   1      -8.585   3.366 121.728  0.00  0.00    +0.467 C 
ATOM     17  O   LIG A   1      -9.435   2.203 121.682  0.00  0.00    -0.449 OA
ATOM     18  C   LIG A   1      -7.477   1.727 124.631  0.00  0.00    +0.065 A 
ENDROOT
BRANCH  12  19
ATOM     19  O   LIG A   1     -10.477  -0.334 122.560  0.00  0.00    -0.501 OA
ATOM     20  H   LIG A   1     -11.334  -0.056 122.927  0.00  0.00    +0.292 HD
ENDBRANCH  12  19
TORSDOF 1
ENDMDL
MODEL 7
REMARK VINA RESULT:      -7.0      2.204      2.211
REMARK  Name = NuBBE_1910
REMARK  1 active torsions:
REMARK  status: ('A' for Active; 'I' for Inactive)
REMARK    1  A    between atoms: C_12  and  O_13
REMARK                            x       y       z     vdW  Elec       q    Type
REMARK                         _______ _______ _______ _____ _____    ______ ____
ROOT
ATOM      1  O   LIG A   1     -11.086   6.487 132.383  0.00  0.00    -0.286 OA
ATOM      2  C   LIG A   1     -10.648   6.393 131.245  0.00  0.00    +0.200 A 
ATOM      3  C   LIG A   1      -9.521   5.508 130.928  0.00  0.00    +0.072 A 
ATOM      4  C   LIG A   1      -9.066   5.446 129.600  0.00  0.00    +0.184 A 
ATOM      5  O   LIG A   1      -9.621   6.176 128.572  0.00  0.00    -0.451 OA
ATOM      6  C   LIG A   1     -10.678   7.007 128.861  0.00  0.00    +0.139 A 
ATOM      7  C   LIG A   1     -11.224   7.158 130.133  0.00  0.00    +0.065 A 
ATOM      8  C   LIG A   1     -12.300   8.022 130.354  0.00  0.00    +0.015 A 
ATOM      9  C   LIG A   1     -12.836   8.743 129.289  0.00  0.00    +0.001 A 
ATOM     10  C   LIG A   1     -12.294   8.598 128.010  0.00  0.00    +0.004 A 
ATOM     11  C   LIG A   1     -11.217   7.732 127.795  0.00  0.00    +0.047 A 
ATOM     12  C   LIG A   1      -7.995   4.604 129.280  0.00  0.00    +0.206 A 
ATOM     13  C   LIG A   1      -7.417   3.855 130.289  0.00  0.00    +0.211 A 
ATOM     14  C   LIG A   1      -7.876   3.931 131.584  0.00  0.00    +0.171 A 
ATOM     15  O   LIG A   1      -7.185   3.123 132.431  0.00  0.00    -0.452 OA
ATOM     16  C   LIG A   1      -6.246   2.515 131.523  0.00  0.00    +0.467 C 
ATOM     17  O   LIG A   1      -6.375   2.986 130.167  0.00  0.00    -0.449 OA
ATOM     18  C   LIG A   1      -8.926   4.747 131.941  0.00  0.00    +0.065 A 
ENDROOT
BRANCH  12  19
ATOM     19  O   LIG A   1      -7.517   4.509 128.006  0.00  0.00    -0.501 OA
ATOM     20  H   LIG A   1      -7.509   3.567 127.762  0.00  0.00    +0.292 HD
ENDBRANCH  12  19
TORSDOF 1
ENDMDL
MODEL 8
REMARK VINA RESULT:      -6.9      2.107      3.205
REMARK  Name = NuBBE_1910
REMARK  1 active torsions:
REMARK  status: ('A' for Active; 'I' for Inactive)
REMARK    1  A    between atoms: C_12  and  O_13
REMARK                            x       y       z     vdW  Elec       q    Type
REMARK                         _______ _______ _______ _____ _____    ______ ____
ROOT
ATOM      1  O   LIG A   1      -8.117   7.597 130.350  0.00  0.00    -0.286 OA
ATOM      2  C   LIG A   1      -9.018   6.771 130.323  0.00  0.00    +0.200 A 
ATOM      3  C   LIG A   1      -8.895   5.479 131.009  0.00  0.00    +0.072 A 
ATOM      4  C   LIG A   1      -9.967   4.573 130.938  0.00  0.00    +0.184 A 
ATOM      5  O   LIG A   1     -11.134   4.831 130.253  0.00  0.00    -0.451 OA
ATOM      6  C   LIG A   1     -11.258   6.039 129.608  0.00  0.00    +0.139 A 
ATOM      7  C   LIG A   1     -10.272   7.023 129.603  0.00  0.00    +0.065 A 
ATOM      8  C   LIG A   1     -10.466   8.230 128.925  0.00  0.00    +0.015 A 
ATOM      9  C   LIG A   1     -11.661   8.454 128.245  0.00  0.00    +0.001 A 
ATOM     10  C   LIG A   1     -12.655   7.473 128.245  0.00  0.00    +0.004 A 
ATOM     11  C   LIG A   1     -12.455   6.267 128.925  0.00  0.00    +0.047 A 
ATOM     12  C   LIG A   1      -9.866   3.339 131.590  0.00  0.00    +0.206 A 
ATOM     13  C   LIG A   1      -8.709   3.051 132.288  0.00  0.00    +0.211 A 
ATOM     14  C   LIG A   1      -7.669   3.951 132.344  0.00  0.00    +0.171 A 
ATOM     15  O   LIG A   1      -6.619   3.491 133.076  0.00  0.00    -0.452 OA
ATOM     16  C   LIG A   1      -7.118   2.204 133.490  0.00  0.00    +0.467 C 
ATOM     17  O   LIG A   1      -8.434   1.911 132.980  0.00  0.00    -0.449 OA
ATOM     18  C   LIG A   1      -7.725   5.175 131.717  0.00  0.00    +0.065 A 
ENDROOT
BRANCH  12  19
ATOM     19  O   LIG A   1     -10.880   2.426 131.550  0.00  0.00    -0.501 OA
ATOM     20  H   LIG A   1     -11.583   2.738 132.146  0.00  0.00    +0.292 HD
ENDBRANCH  12  19
TORSDOF 1
ENDMDL
MODEL 9
REMARK VINA RESULT:      -6.9     10.187     10.453
REMARK  Name = NuBBE_1910
REMARK  1 active torsions:
REMARK  status: ('A' for Active; 'I' for Inactive)
REMARK    1  A    between atoms: C_12  and  O_13
REMARK                            x       y       z     vdW  Elec       q    Type
REMARK                         _______ _______ _______ _____ _____    ______ ____
ROOT
ATOM      1  O   LIG A   1      -9.803  -3.651 126.812  0.00  0.00    -0.286 OA
ATOM      2  C   LIG A   1      -8.712  -3.123 126.656  0.00  0.00    +0.200 A 
ATOM      3  C   LIG A   1      -7.819  -2.857 127.790  0.00  0.00    +0.072 A 
ATOM      4  C   LIG A   1      -6.578  -2.246 127.542  0.00  0.00    +0.184 A 
ATOM      5  O   LIG A   1      -6.150  -1.879 126.285  0.00  0.00    -0.451 OA
ATOM      6  C   LIG A   1      -6.980  -2.125 125.216  0.00  0.00    +0.139 A 
ATOM      7  C   LIG A   1      -8.233  -2.725 125.326  0.00  0.00    +0.065 A 
ATOM      8  C   LIG A   1      -9.024  -2.945 124.196  0.00  0.00    +0.015 A 
ATOM      9  C   LIG A   1      -8.557  -2.560 122.941  0.00  0.00    +0.001 A 
ATOM     10  C   LIG A   1      -7.303  -1.958 122.821  0.00  0.00    +0.004 A 
ATOM     11  C   LIG A   1      -6.515  -1.740 123.957  0.00  0.00    +0.047 A 
ATOM     12  C   LIG A   1      -5.713  -1.990 128.612  0.00  0.00    +0.206 A 
ATOM     13  C   LIG A   1      -6.112  -2.350 129.886  0.00  0.00    +0.211 A 
ATOM     14  C   LIG A   1      -7.332  -2.945 130.109  0.00  0.00    +0.171 A 
ATOM     15  O   LIG A   1      -7.545  -3.226 131.422  0.00  0.00    -0.452 OA
ATOM     16  C   LIG A   1      -6.314  -2.753 132.004  0.00  0.00    +0.467 C 
ATOM     17  O   LIG A   1      -5.408  -2.182 131.040  0.00  0.00    -0.449 OA
ATOM     18  C   LIG A   1      -8.212  -3.214 129.085  0.00  0.00    +0.065 A 
ENDROOT
BRANCH  12  19
ATOM     19  O   LIG A   1      -4.498  -1.399 128.422  0.00  0.00    -0.501 OA
ATOM     20  H   LIG A   1      -3.957  -1.575 129.211  0.00  0.00    +0.292 HD
ENDBRANCH  12  19
TORSDOF 1
ENDMDL
