MODEL 1
REMARK VINA RESULT:      -5.4      0.000      0.000
REMARK  Name = NuBBE_1471
REMARK  4 active torsions:
REMARK  status: ('A' for Active; 'I' for Inactive)
REMARK    1  A    between atoms: C_4  and  O_5
REMARK    2  A    between atoms: O_5  and  C_6
REMARK    3  A    between atoms: N_7  and  O_8
REMARK    4  A    between atoms: O_8  and  C_9
REMARK                            x       y       z     vdW  Elec       q    Type
REMARK                         _______ _______ _______ _____ _____    ______ ____
ROOT
ATOM      1  O   LIG A   1      -8.200   3.368 126.673  0.00  0.00    -0.265 OA
ATOM      2  C   LIG A   1      -7.893   3.320 125.484  0.00  0.00    +0.287 A 
ATOM      3  C   LIG A   1      -8.849   2.702 124.530  0.00  0.00    +0.119 A 
ATOM      4  C   LIG A   1      -8.609   2.644 123.209  0.00  0.00    +0.135 A 
ATOM      5  N   LIG A   1      -6.709   3.761 124.940  0.00  0.00    -0.144 N 
ATOM      6  C   LIG A   1      -6.443   3.824 123.557  0.00  0.00    +0.095 A 
ATOM      7  C   LIG A   1      -7.372   3.251 122.671  0.00  0.00    +0.044 A 
ATOM      8  C   LIG A   1      -7.104   3.290 121.293  0.00  0.00    +0.013 A 
ATOM      9  C   LIG A   1      -5.941   3.890 120.807  0.00  0.00    +0.001 A 
ATOM     10  C   LIG A   1      -5.030   4.462 121.690  0.00  0.00    +0.002 A 
ATOM     11  C   LIG A   1      -5.279   4.429 123.062  0.00  0.00    +0.030 A 
ENDROOT
BRANCH   4  12
ATOM     12  O   LIG A   1      -9.422   2.066 122.259  0.00  0.00    -0.494 OA
ATOM     13  C   LIG A   1     -10.130   0.882 122.606  0.00  0.00    +0.277 C 
ENDBRANCH   4  12
BRANCH   5  14
ATOM     14  O   LIG A   1      -5.820   4.450 125.800  0.00  0.00    -0.411 OA
ATOM     15  C   LIG A   1      -4.890   3.518 126.348  0.00  0.00    +0.311 C 
ENDBRANCH   5  14
TORSDOF 2
ENDMDL
MODEL 2
REMARK VINA RESULT:      -5.3      1.118      3.713
REMARK  Name = NuBBE_1471
REMARK  4 active torsions:
REMARK  status: ('A' for Active; 'I' for Inactive)
REMARK    1  A    between atoms: C_4  and  O_5
REMARK    2  A    between atoms: O_5  and  C_6
REMARK    3  A    between atoms: N_7  and  O_8
REMARK    4  A    between atoms: O_8  and  C_9
REMARK                            x       y       z     vdW  Elec       q    Type
REMARK                         _______ _______ _______ _____ _____    ______ ____
ROOT
ATOM      1  O   LIG A   1      -8.904   2.269 125.610  0.00  0.00    -0.265 OA
ATOM      2  C   LIG A   1      -8.101   2.764 124.822  0.00  0.00    +0.287 A 
ATOM      3  C   LIG A   1      -6.782   3.206 125.341  0.00  0.00    +0.119 A 
ATOM      4  C   LIG A   1      -5.832   3.721 124.541  0.00  0.00    +0.135 A 
ATOM      5  N   LIG A   1      -8.321   2.988 123.483  0.00  0.00    -0.144 N 
ATOM      6  C   LIG A   1      -7.334   3.424 122.576  0.00  0.00    +0.095 A 
ATOM      7  C   LIG A   1      -6.084   3.818 123.087  0.00  0.00    +0.044 A 
ATOM      8  C   LIG A   1      -5.103   4.276 122.193  0.00  0.00    +0.013 A 
ATOM      9  C   LIG A   1      -5.356   4.335 120.821  0.00  0.00    +0.001 A 
ATOM     10  C   LIG A   1      -6.593   3.936 120.323  0.00  0.00    +0.002 A 
ATOM     11  C   LIG A   1      -7.581   3.483 121.197  0.00  0.00    +0.030 A 
ENDROOT
BRANCH   4  12
ATOM     12  O   LIG A   1      -4.596   4.182 124.938  0.00  0.00    -0.494 OA
ATOM     13  C   LIG A   1      -4.119   3.811 126.226  0.00  0.00    +0.277 C 
ENDBRANCH   4  12
BRANCH   5  14
ATOM     14  O   LIG A   1      -9.524   2.484 122.932  0.00  0.00    -0.411 OA
ATOM     15  C   LIG A   1      -9.462   1.059 122.911  0.00  0.00    +0.311 C 
ENDBRANCH   5  14
TORSDOF 2
ENDMDL
MODEL 3
REMARK VINA RESULT:      -5.3      5.314      7.688
REMARK  Name = NuBBE_1471
REMARK  4 active torsions:
REMARK  status: ('A' for Active; 'I' for Inactive)
REMARK    1  A    between atoms: C_4  and  O_5
REMARK    2  A    between atoms: O_5  and  C_6
REMARK    3  A    between atoms: N_7  and  O_8
REMARK    4  A    between atoms: O_8  and  C_9
REMARK                            x       y       z     vdW  Elec       q    Type
REMARK                         _______ _______ _______ _____ _____    ______ ____
ROOT
ATOM      1  O   LIG A   1      -8.077  -0.275 123.507  0.00  0.00    -0.265 OA
ATOM      2  C   LIG A   1      -7.849  -0.836 124.577  0.00  0.00    +0.287 A 
ATOM      3  C   LIG A   1      -6.710  -0.357 125.400  0.00  0.00    +0.119 A 
ATOM      4  C   LIG A   1      -6.417  -0.889 126.598  0.00  0.00    +0.135 A 
ATOM      5  N   LIG A   1      -8.539  -1.913 125.083  0.00  0.00    -0.144 N 
ATOM      6  C   LIG A   1      -8.349  -2.445 126.374  0.00  0.00    +0.095 A 
ATOM      7  C   LIG A   1      -7.276  -1.961 127.145  0.00  0.00    +0.044 A 
ATOM      8  C   LIG A   1      -7.066  -2.501 128.423  0.00  0.00    +0.013 A 
ATOM      9  C   LIG A   1      -7.905  -3.497 128.927  0.00  0.00    +0.001 A 
ATOM     10  C   LIG A   1      -8.970  -3.964 128.161  0.00  0.00    +0.002 A 
ATOM     11  C   LIG A   1      -9.191  -3.442 126.888  0.00  0.00    +0.030 A 
ENDROOT
BRANCH   4  12
ATOM     12  O   LIG A   1      -5.366  -0.528 127.414  0.00  0.00    -0.494 OA
ATOM     13  C   LIG A   1      -5.348   0.790 127.948  0.00  0.00    +0.277 C 
ENDBRANCH   4  12
BRANCH   5  14
ATOM     14  O   LIG A   1      -9.695  -2.329 124.378  0.00  0.00    -0.411 OA
ATOM     15  C   LIG A   1      -9.320  -3.306 123.410  0.00  0.00    +0.311 C 
ENDBRANCH   5  14
TORSDOF 2
ENDMDL
MODEL 4
REMARK VINA RESULT:      -5.3      4.922      6.122
REMARK  Name = NuBBE_1471
REMARK  4 active torsions:
REMARK  status: ('A' for Active; 'I' for Inactive)
REMARK    1  A    between atoms: C_4  and  O_5
REMARK    2  A    between atoms: O_5  and  C_6
REMARK    3  A    between atoms: N_7  and  O_8
REMARK    4  A    between atoms: O_8  and  C_9
REMARK                            x       y       z     vdW  Elec       q    Type
REMARK                         _______ _______ _______ _____ _____    ______ ____
ROOT
ATOM      1  O   LIG A   1     -10.183  -0.060 125.756  0.00  0.00    -0.265 OA
ATOM      2  C   LIG A   1      -9.113  -0.618 125.524  0.00  0.00    +0.287 A 
ATOM      3  C   LIG A   1      -8.363  -1.211 126.660  0.00  0.00    +0.119 A 
ATOM      4  C   LIG A   1      -7.206  -1.872 126.488  0.00  0.00    +0.135 A 
ATOM      5  N   LIG A   1      -8.510  -0.720 124.292  0.00  0.00    -0.144 N 
ATOM      6  C   LIG A   1      -7.356  -1.488 124.032  0.00  0.00    +0.095 A 
ATOM      7  C   LIG A   1      -6.673  -2.058 125.121  0.00  0.00    +0.044 A 
ATOM      8  C   LIG A   1      -5.511  -2.805 124.872  0.00  0.00    +0.013 A 
ATOM      9  C   LIG A   1      -5.041  -2.986 123.570  0.00  0.00    +0.001 A 
ATOM     10  C   LIG A   1      -5.727  -2.425 122.497  0.00  0.00    +0.002 A 
ATOM     11  C   LIG A   1      -6.881  -1.677 122.725  0.00  0.00    +0.030 A 
ENDROOT
BRANCH   4  12
ATOM     12  O   LIG A   1      -6.430  -2.428 127.483  0.00  0.00    -0.494 OA
ATOM     13  C   LIG A   1      -7.024  -2.652 128.756  0.00  0.00    +0.277 C 
ENDBRANCH   4  12
BRANCH   5  14
ATOM     14  O   LIG A   1      -9.244  -0.261 123.172  0.00  0.00    -0.411 OA
ATOM     15  C   LIG A   1      -9.039   1.143 123.027  0.00  0.00    +0.311 C 
ENDBRANCH   5  14
TORSDOF 2
ENDMDL
MODEL 5
REMARK VINA RESULT:      -5.2      5.047      6.659
REMARK  Name = NuBBE_1471
REMARK  4 active torsions:
REMARK  status: ('A' for Active; 'I' for Inactive)
REMARK    1  A    between atoms: C_4  and  O_5
REMARK    2  A    between atoms: O_5  and  C_6
REMARK    3  A    between atoms: N_7  and  O_8
REMARK    4  A    between atoms: O_8  and  C_9
REMARK                            x       y       z     vdW  Elec       q    Type
REMARK                         _______ _______ _______ _____ _____    ______ ____
ROOT
ATOM      1  O   LIG A   1      -7.542   1.345 125.267  0.00  0.00    -0.265 OA
ATOM      2  C   LIG A   1      -7.894   0.269 125.746  0.00  0.00    +0.287 A 
ATOM      3  C   LIG A   1      -8.625  -0.688 124.877  0.00  0.00    +0.119 A 
ATOM      4  C   LIG A   1      -9.011  -1.900 125.309  0.00  0.00    +0.135 A 
ATOM      5  N   LIG A   1      -7.705  -0.133 127.047  0.00  0.00    -0.144 N 
ATOM      6  C   LIG A   1      -7.990  -1.426 127.531  0.00  0.00    +0.095 A 
ATOM      7  C   LIG A   1      -8.665  -2.323 126.684  0.00  0.00    +0.044 A 
ATOM      8  C   LIG A   1      -8.973  -3.605 127.165  0.00  0.00    +0.013 A 
ATOM      9  C   LIG A   1      -8.614  -3.989 128.459  0.00  0.00    +0.001 A 
ATOM     10  C   LIG A   1      -7.940  -3.099 129.289  0.00  0.00    +0.002 A 
ATOM     11  C   LIG A   1      -7.629  -1.820 128.828  0.00  0.00    +0.030 A 
ENDROOT
BRANCH   4  12
ATOM     12  O   LIG A   1      -9.716  -2.837 124.585  0.00  0.00    -0.494 OA
ATOM     13  C   LIG A   1      -9.312  -3.099 123.246  0.00  0.00    +0.277 C 
ENDBRANCH   4  12
BRANCH   5  14
ATOM     14  O   LIG A   1      -6.920   0.706 127.875  0.00  0.00    -0.411 OA
ATOM     15  C   LIG A   1      -7.776   1.633 128.539  0.00  0.00    +0.311 C 
ENDBRANCH   5  14
TORSDOF 2
ENDMDL
MODEL 6
REMARK VINA RESULT:      -5.2      2.924      5.065
REMARK  Name = NuBBE_1471
REMARK  4 active torsions:
REMARK  status: ('A' for Active; 'I' for Inactive)
REMARK    1  A    between atoms: C_4  and  O_5
REMARK    2  A    between atoms: O_5  and  C_6
REMARK    3  A    between atoms: N_7  and  O_8
REMARK    4  A    between atoms: O_8  and  C_9
REMARK                            x       y       z     vdW  Elec       q    Type
REMARK                         _______ _______ _______ _____ _____    ______ ____
ROOT
ATOM      1  O   LIG A   1     -10.731   0.246 122.516  0.00  0.00    -0.265 OA
ATOM      2  C   LIG A   1      -9.668   0.515 123.073  0.00  0.00    +0.287 A 
ATOM      3  C   LIG A   1      -9.064   1.850 122.838  0.00  0.00    +0.119 A 
ATOM      4  C   LIG A   1      -7.926   2.238 123.438  0.00  0.00    +0.135 A 
ATOM      5  N   LIG A   1      -8.949  -0.332 123.884  0.00  0.00    -0.144 N 
ATOM      6  C   LIG A   1      -7.810   0.050 124.622  0.00  0.00    +0.095 A 
ATOM      7  C   LIG A   1      -7.266   1.327 124.399  0.00  0.00    +0.044 A 
ATOM      8  C   LIG A   1      -6.119   1.707 125.114  0.00  0.00    +0.013 A 
ATOM      9  C   LIG A   1      -5.529   0.839 126.034  0.00  0.00    +0.001 A 
ATOM     10  C   LIG A   1      -6.078  -0.421 126.255  0.00  0.00    +0.002 A 
ATOM     11  C   LIG A   1      -7.215  -0.816 125.551  0.00  0.00    +0.030 A 
ENDROOT
BRANCH   4  12
ATOM     12  O   LIG A   1      -7.280   3.442 123.258  0.00  0.00    -0.494 OA
ATOM     13  C   LIG A   1      -6.523   3.630 122.068  0.00  0.00    +0.277 C 
ENDBRANCH   4  12
BRANCH   5  14
ATOM     14  O   LIG A   1      -9.545  -1.573 124.215  0.00  0.00    -0.411 OA
ATOM     15  C   LIG A   1      -9.124  -2.555 123.271  0.00  0.00    +0.311 C 
ENDBRANCH   5  14
TORSDOF 2
ENDMDL
MODEL 7
REMARK VINA RESULT:      -5.0      3.512      5.641
REMARK  Name = NuBBE_1471
REMARK  4 active torsions:
REMARK  status: ('A' for Active; 'I' for Inactive)
REMARK    1  A    between atoms: C_4  and  O_5
REMARK    2  A    between atoms: O_5  and  C_6
REMARK    3  A    between atoms: N_7  and  O_8
REMARK    4  A    between atoms: O_8  and  C_9
REMARK                            x       y       z     vdW  Elec       q    Type
REMARK                         _______ _______ _______ _____ _____    ______ ____
ROOT
ATOM      1  O   LIG A   1      -9.266   2.547 125.007  0.00  0.00    -0.265 OA
ATOM      2  C   LIG A   1      -8.462   1.619 124.950  0.00  0.00    +0.287 A 
ATOM      3  C   LIG A   1      -7.106   1.821 125.520  0.00  0.00    +0.119 A 
ATOM      4  C   LIG A   1      -6.181   0.846 125.534  0.00  0.00    +0.135 A 
ATOM      5  N   LIG A   1      -8.688   0.394 124.367  0.00  0.00    -0.144 N 
ATOM      6  C   LIG A   1      -7.801  -0.699 124.441  0.00  0.00    +0.095 A 
ATOM      7  C   LIG A   1      -6.529  -0.490 125.004  0.00  0.00    +0.044 A 
ATOM      8  C   LIG A   1      -5.631  -1.568 125.062  0.00  0.00    +0.013 A 
ATOM      9  C   LIG A   1      -5.992  -2.827 124.577  0.00  0.00    +0.001 A 
ATOM     10  C   LIG A   1      -7.256  -3.027 124.029  0.00  0.00    +0.002 A 
ATOM     11  C   LIG A   1      -8.158  -1.967 123.960  0.00  0.00    +0.030 A 
ENDROOT
BRANCH   4  12
ATOM     12  O   LIG A   1      -4.893   0.952 126.013  0.00  0.00    -0.494 OA
ATOM     13  C   LIG A   1      -4.506   2.168 126.643  0.00  0.00    +0.277 C 
ENDBRANCH   4  12
BRANCH   5  14
ATOM     14  O   LIG A   1     -10.001   0.128 123.908  0.00  0.00    -0.411 OA
ATOM     15  C   LIG A   1     -10.133   0.614 122.574  0.00  0.00    +0.311 C 
ENDBRANCH   5  14
TORSDOF 2
ENDMDL
MODEL 8
REMARK VINA RESULT:      -5.0      4.378      6.050
REMARK  Name = NuBBE_1471
REMARK  4 active torsions:
REMARK  status: ('A' for Active; 'I' for Inactive)
REMARK    1  A    between atoms: C_4  and  O_5
REMARK    2  A    between atoms: O_5  and  C_6
REMARK    3  A    between atoms: N_7  and  O_8
REMARK    4  A    between atoms: O_8  and  C_9
REMARK                            x       y       z     vdW  Elec       q    Type
REMARK                         _______ _______ _______ _____ _____    ______ ____
ROOT
ATOM      1  O   LIG A   1      -7.551   1.441 127.351  0.00  0.00    -0.265 OA
ATOM      2  C   LIG A   1      -7.823   0.385 126.783  0.00  0.00    +0.287 A 
ATOM      3  C   LIG A   1      -7.864  -0.862 127.588  0.00  0.00    +0.119 A 
ATOM      4  C   LIG A   1      -8.190  -2.051 127.054  0.00  0.00    +0.135 A 
ATOM      5  N   LIG A   1      -8.064   0.234 125.437  0.00  0.00    -0.144 N 
ATOM      6  C   LIG A   1      -8.512  -0.960 124.838  0.00  0.00    +0.095 A 
ATOM      7  C   LIG A   1      -8.564  -2.125 125.625  0.00  0.00    +0.044 A 
ATOM      8  C   LIG A   1      -8.988  -3.324 125.030  0.00  0.00    +0.013 A 
ATOM      9  C   LIG A   1      -9.358  -3.363 123.684  0.00  0.00    +0.001 A 
ATOM     10  C   LIG A   1      -9.312  -2.205 122.914  0.00  0.00    +0.002 A 
ATOM     11  C   LIG A   1      -8.890  -1.006 123.488  0.00  0.00    +0.030 A 
ENDROOT
BRANCH   4  12
ATOM     12  O   LIG A   1      -8.226  -3.259 127.717  0.00  0.00    -0.494 OA
ATOM     13  C   LIG A   1      -8.094  -3.256 129.133  0.00  0.00    +0.277 C 
ENDBRANCH   4  12
BRANCH   5  14
ATOM     14  O   LIG A   1      -8.137   1.414 124.657  0.00  0.00    -0.411 OA
ATOM     15  C   LIG A   1      -6.831   1.742 124.191  0.00  0.00    +0.311 C 
ENDBRANCH   5  14
TORSDOF 2
ENDMDL
MODEL 9
REMARK VINA RESULT:      -5.0      4.292      5.853
REMARK  Name = NuBBE_1471
REMARK  4 active torsions:
REMARK  status: ('A' for Active; 'I' for Inactive)
REMARK    1  A    between atoms: C_4  and  O_5
REMARK    2  A    between atoms: O_5  and  C_6
REMARK    3  A    between atoms: N_7  and  O_8
REMARK    4  A    between atoms: O_8  and  C_9
REMARK                            x       y       z     vdW  Elec       q    Type
REMARK                         _______ _______ _______ _____ _____    ______ ____
ROOT
ATOM      1  O   LIG A   1      -7.714   0.717 128.338  0.00  0.00    -0.265 OA
ATOM      2  C   LIG A   1      -8.106   0.096 127.352  0.00  0.00    +0.287 A 
ATOM      3  C   LIG A   1      -8.881   0.826 126.317  0.00  0.00    +0.119 A 
ATOM      4  C   LIG A   1      -9.313   0.233 125.192  0.00  0.00    +0.135 A 
ATOM      5  N   LIG A   1      -7.923  -1.248 127.122  0.00  0.00    -0.144 N 
ATOM      6  C   LIG A   1      -8.258  -1.903 125.920  0.00  0.00    +0.095 A 
ATOM      7  C   LIG A   1      -8.974  -1.186 124.945  0.00  0.00    +0.044 A 
ATOM      8  C   LIG A   1      -9.331  -1.837 123.754  0.00  0.00    +0.013 A 
ATOM      9  C   LIG A   1      -8.979  -3.170 123.534  0.00  0.00    +0.001 A 
ATOM     10  C   LIG A   1      -8.263  -3.871 124.500  0.00  0.00    +0.002 A 
ATOM     11  C   LIG A   1      -7.903  -3.240 125.691  0.00  0.00    +0.030 A 
ENDROOT
BRANCH   4  12
ATOM     12  O   LIG A   1     -10.061   0.823 124.196  0.00  0.00    -0.494 OA
ATOM     13  C   LIG A   1      -9.498   1.924 123.492  0.00  0.00    +0.277 C 
ENDBRANCH   4  12
BRANCH   5  14
ATOM     14  O   LIG A   1      -7.099  -1.953 128.033  0.00  0.00    -0.411 OA
ATOM     15  C   LIG A   1      -7.915  -2.504 129.065  0.00  0.00    +0.311 C 
ENDBRANCH   5  14
TORSDOF 2
ENDMDL
