MODEL 1
REMARK VINA RESULT:      -7.2      0.000      0.000
REMARK  Name = NuBBE_2525
REMARK  10 active torsions:
REMARK  status: ('A' for Active; 'I' for Inactive)
REMARK    1  A    between atoms: O_1  and  C_2
REMARK    2  A    between atoms: O_1  and  C_3
REMARK    3  A    between atoms: C_6  and  O_22
REMARK    4  A    between atoms: C_7  and  C_10
REMARK    5  A    between atoms: C_8  and  O_9
REMARK    6  A    between atoms: C_10  and  C_12
REMARK    7  A    between atoms: C_12  and  C_13
REMARK    8  A    between atoms: C_13  and  C_14
REMARK    9  A    between atoms: C_17  and  O_20
REMARK   10  A    between atoms: O_20  and  C_21
REMARK                            x       y       z     vdW  Elec       q    Type
REMARK                         _______ _______ _______ _____ _____    ______ ____
ROOT
ATOM      1  C   UNL A   1     -10.567   7.361 128.595  0.00  0.00    +0.208 A 
ATOM      2  C   UNL A   1     -11.561   8.025 129.297  0.00  0.00    +0.215 A 
ATOM      3  C   UNL A   1     -12.019   7.574 130.505  0.00  0.00    +0.212 A 
ATOM      4  C   UNL A   1     -11.530   6.432 131.099  0.00  0.00    +0.177 A 
ATOM      5  C   UNL A   1     -10.533   5.696 130.440  0.00  0.00    +0.108 A 
ATOM      6  C   UNL A   1     -10.049   6.182 129.179  0.00  0.00    +0.177 A 
ATOM      7  O   UNL A   1     -12.999   8.356 131.040  0.00  0.00    -0.449 OA
ATOM      8  C   UNL A   1     -13.182   9.305 129.970  0.00  0.00    +0.467 C 
ATOM      9  O   UNL A   1     -12.206   9.168 128.919  0.00  0.00    -0.449 OA
ENDROOT
BRANCH   1  10
ATOM     10  O   UNL A   1     -10.234   7.964 127.416  0.00  0.00    -0.488 OA
ATOM     11  C   UNL A   1     -10.971   7.665 126.243  0.00  0.00    +0.277 C 
ENDBRANCH   1  10
BRANCH   6  12
ATOM     12  O   UNL A   1      -9.058   5.501 128.509  0.00  0.00    -0.503 OA
ATOM     13  H   UNL A   1      -8.237   6.045 128.512  0.00  0.00    +0.292 HD
ENDBRANCH   6  12
BRANCH   5  14
ATOM     14  C   UNL A   1      -9.995   4.404 131.013  0.00  0.00    +0.171 C 
ATOM     15  O   UNL A   1     -10.355   3.347 130.499  0.00  0.00    -0.292 OA
BRANCH  14  16
ATOM     16  C   UNL A   1      -9.059   4.466 132.217  0.00  0.00    +0.084 C 
BRANCH  16  17
ATOM     17  C   UNL A   1      -8.582   5.849 132.650  0.00  0.00    +0.043 C 
BRANCH  17  18
ATOM     18  C   UNL A   1      -7.153   6.143 132.289  0.00  0.00    -0.047 A 
ATOM     19  C   UNL A   1      -6.088   5.760 133.113  0.00  0.00    +0.007 A 
ATOM     20  C   UNL A   1      -4.780   6.125 132.786  0.00  0.00    +0.046 A 
ATOM     21  C   UNL A   1      -4.514   6.843 131.620  0.00  0.00    +0.120 A 
ATOM     22  C   UNL A   1      -5.567   7.194 130.779  0.00  0.00    +0.046 A 
ATOM     23  C   UNL A   1      -6.878   6.844 131.111  0.00  0.00    +0.007 A 
BRANCH  21  24
ATOM     24  O   UNL A   1      -3.207   7.198 131.437  0.00  0.00    -0.495 OA
ATOM     25  C   UNL A   1      -2.491   6.446 130.465  0.00  0.00    +0.277 C 
ENDBRANCH  21  24
ENDBRANCH  17  18
ENDBRANCH  16  17
ENDBRANCH  14  16
ENDBRANCH   5  14
BRANCH   4  26
ATOM     26  O   UNL A   1     -12.072   6.088 132.302  0.00  0.00    -0.503 OA
ATOM     27  H   UNL A   1     -13.044   6.076 132.189  0.00  0.00    +0.292 HD
ENDBRANCH   4  26
TORSDOF 8
ENDMDL
MODEL 2
REMARK VINA RESULT:      -7.0      8.351     10.387
REMARK  Name = NuBBE_2525
REMARK  10 active torsions:
REMARK  status: ('A' for Active; 'I' for Inactive)
REMARK    1  A    between atoms: O_1  and  C_2
REMARK    2  A    between atoms: O_1  and  C_3
REMARK    3  A    between atoms: C_6  and  O_22
REMARK    4  A    between atoms: C_7  and  C_10
REMARK    5  A    between atoms: C_8  and  O_9
REMARK    6  A    between atoms: C_10  and  C_12
REMARK    7  A    between atoms: C_12  and  C_13
REMARK    8  A    between atoms: C_13  and  C_14
REMARK    9  A    between atoms: C_17  and  O_20
REMARK   10  A    between atoms: O_20  and  C_21
REMARK                            x       y       z     vdW  Elec       q    Type
REMARK                         _______ _______ _______ _____ _____    ______ ____
ROOT
ATOM      1  C   UNL A   1      -6.690   1.618 125.681  0.00  0.00    +0.208 A 
ATOM      2  C   UNL A   1      -6.206   2.735 125.017  0.00  0.00    +0.215 A 
ATOM      3  C   UNL A   1      -6.873   3.296 123.962  0.00  0.00    +0.212 A 
ATOM      4  C   UNL A   1      -8.063   2.788 123.488  0.00  0.00    +0.177 A 
ATOM      5  C   UNL A   1      -8.606   1.648 124.099  0.00  0.00    +0.108 A 
ATOM      6  C   UNL A   1      -7.907   1.072 125.212  0.00  0.00    +0.177 A 
ATOM      7  O   UNL A   1      -6.241   4.384 123.437  0.00  0.00    -0.449 OA
ATOM      8  C   UNL A   1      -5.033   4.382 124.223  0.00  0.00    +0.467 C 
ATOM      9  O   UNL A   1      -5.054   3.415 125.290  0.00  0.00    -0.449 OA
ENDROOT
BRANCH   1  10
ATOM     10  O   UNL A   1      -5.894   1.207 126.712  0.00  0.00    -0.488 OA
ATOM     11  C   UNL A   1      -6.276   1.490 128.047  0.00  0.00    +0.277 C 
ENDBRANCH   1  10
BRANCH   6  12
ATOM     12  O   UNL A   1      -8.417  -0.035 125.852  0.00  0.00    -0.503 OA
ATOM     13  H   UNL A   1      -9.216   0.230 126.363  0.00  0.00    +0.292 HD
ENDBRANCH   6  12
BRANCH   5  14
ATOM     14  C   UNL A   1      -9.879   1.009 123.590  0.00  0.00    +0.171 C 
ATOM     15  O   UNL A   1     -10.927   1.245 124.188  0.00  0.00    -0.292 OA
BRANCH  14  16
ATOM     16  C   UNL A   1      -9.804   0.079 122.381  0.00  0.00    +0.084 C 
BRANCH  16  17
ATOM     17  C   UNL A   1      -9.905  -1.417 122.656  0.00  0.00    +0.043 C 
BRANCH  17  18
ATOM     18  C   UNL A   1      -8.609  -2.050 123.077  0.00  0.00    -0.047 A 
ATOM     19  C   UNL A   1      -8.566  -3.125 123.972  0.00  0.00    +0.007 A 
ATOM     20  C   UNL A   1      -7.339  -3.632 124.405  0.00  0.00    +0.046 A 
ATOM     21  C   UNL A   1      -6.142  -3.098 123.926  0.00  0.00    +0.120 A 
ATOM     22  C   UNL A   1      -6.181  -2.052 123.008  0.00  0.00    +0.046 A 
ATOM     23  C   UNL A   1      -7.405  -1.533 122.585  0.00  0.00    +0.007 A 
BRANCH  21  24
ATOM     24  O   UNL A   1      -5.006  -3.630 124.468  0.00  0.00    -0.495 OA
ATOM     25  C   UNL A   1      -4.235  -4.455 123.603  0.00  0.00    +0.277 C 
ENDBRANCH  21  24
ENDBRANCH  17  18
ENDBRANCH  16  17
ENDBRANCH  14  16
ENDBRANCH   5  14
BRANCH   4  26
ATOM     26  O   UNL A   1      -8.626   3.438 122.430  0.00  0.00    -0.503 OA
ATOM     27  H   UNL A   1      -9.597   3.376 122.535  0.00  0.00    +0.292 HD
ENDBRANCH   4  26
TORSDOF 8
ENDMDL
MODEL 3
REMARK VINA RESULT:      -6.9      2.888      4.207
REMARK  Name = NuBBE_2525
REMARK  10 active torsions:
REMARK  status: ('A' for Active; 'I' for Inactive)
REMARK    1  A    between atoms: O_1  and  C_2
REMARK    2  A    between atoms: O_1  and  C_3
REMARK    3  A    between atoms: C_6  and  O_22
REMARK    4  A    between atoms: C_7  and  C_10
REMARK    5  A    between atoms: C_8  and  O_9
REMARK    6  A    between atoms: C_10  and  C_12
REMARK    7  A    between atoms: C_12  and  C_13
REMARK    8  A    between atoms: C_13  and  C_14
REMARK    9  A    between atoms: C_17  and  O_20
REMARK   10  A    between atoms: O_20  and  C_21
REMARK                            x       y       z     vdW  Elec       q    Type
REMARK                         _______ _______ _______ _____ _____    ______ ____
ROOT
ATOM      1  C   UNL A   1     -10.795   7.588 128.497  0.00  0.00    +0.208 A 
ATOM      2  C   UNL A   1     -11.717   8.204 129.330  0.00  0.00    +0.215 A 
ATOM      3  C   UNL A   1     -12.092   7.655 130.526  0.00  0.00    +0.212 A 
ATOM      4  C   UNL A   1     -11.586   6.456 130.978  0.00  0.00    +0.177 A 
ATOM      5  C   UNL A   1     -10.661   5.765 130.180  0.00  0.00    +0.108 A 
ATOM      6  C   UNL A   1     -10.263   6.353 128.933  0.00  0.00    +0.177 A 
ATOM      7  O   UNL A   1     -13.008   8.403 131.203  0.00  0.00    -0.449 OA
ATOM      8  C   UNL A   1     -13.249   9.447 130.238  0.00  0.00    +0.467 C 
ATOM      9  O   UNL A   1     -12.361   9.387 129.106  0.00  0.00    -0.449 OA
ENDROOT
BRANCH   1  10
ATOM     10  O   UNL A   1     -10.539   8.289 127.353  0.00  0.00    -0.488 OA
ATOM     11  C   UNL A   1     -11.039   7.814 126.114  0.00  0.00    +0.277 C 
ENDBRANCH   1  10
BRANCH   6  12
ATOM     12  O   UNL A   1      -9.342   5.717 128.130  0.00  0.00    -0.503 OA
ATOM     13  H   UNL A   1      -8.587   6.327 127.964  0.00  0.00    +0.292 HD
ENDBRANCH   6  12
BRANCH   5  14
ATOM     14  C   UNL A   1     -10.111   4.418 130.594  0.00  0.00    +0.171 C 
ATOM     15  O   UNL A   1     -10.529   3.418 130.014  0.00  0.00    -0.292 OA
BRANCH  14  16
ATOM     16  C   UNL A   1      -9.092   4.355 131.728  0.00  0.00    +0.084 C 
BRANCH  16  17
ATOM     17  C   UNL A   1      -9.363   3.351 132.844  0.00  0.00    +0.043 C 
BRANCH  17  18
ATOM     18  C   UNL A   1      -8.655   2.037 132.668  0.00  0.00    -0.047 A 
ATOM     19  C   UNL A   1      -9.247   0.961 131.997  0.00  0.00    +0.007 A 
ATOM     20  C   UNL A   1      -8.592  -0.271 131.927  0.00  0.00    +0.046 A 
ATOM     21  C   UNL A   1      -7.327  -0.435 132.494  0.00  0.00    +0.120 A 
ATOM     22  C   UNL A   1      -6.720   0.644 133.131  0.00  0.00    +0.046 A 
ATOM     23  C   UNL A   1      -7.378   1.872 133.216  0.00  0.00    +0.007 A 
BRANCH  21  24
ATOM     24  O   UNL A   1      -6.813  -1.699 132.419  0.00  0.00    -0.495 OA
ATOM     25  C   UNL A   1      -6.465  -2.150 131.116  0.00  0.00    +0.277 C 
ENDBRANCH  21  24
ENDBRANCH  17  18
ENDBRANCH  16  17
ENDBRANCH  14  16
ENDBRANCH   5  14
BRANCH   4  26
ATOM     26  O   UNL A   1     -12.042   6.016 132.185  0.00  0.00    -0.503 OA
ATOM     27  H   UNL A   1     -12.650   5.269 132.010  0.00  0.00    +0.292 HD
ENDBRANCH   4  26
TORSDOF 8
ENDMDL
MODEL 4
REMARK VINA RESULT:      -6.9      0.956      2.829
REMARK  Name = NuBBE_2525
REMARK  10 active torsions:
REMARK  status: ('A' for Active; 'I' for Inactive)
REMARK    1  A    between atoms: O_1  and  C_2
REMARK    2  A    between atoms: O_1  and  C_3
REMARK    3  A    between atoms: C_6  and  O_22
REMARK    4  A    between atoms: C_7  and  C_10
REMARK    5  A    between atoms: C_8  and  O_9
REMARK    6  A    between atoms: C_10  and  C_12
REMARK    7  A    between atoms: C_12  and  C_13
REMARK    8  A    between atoms: C_13  and  C_14
REMARK    9  A    between atoms: C_17  and  O_20
REMARK   10  A    between atoms: O_20  and  C_21
REMARK                            x       y       z     vdW  Elec       q    Type
REMARK                         _______ _______ _______ _____ _____    ______ ____
ROOT
ATOM      1  C   UNL A   1     -12.082   7.320 129.857  0.00  0.00    +0.208 A 
ATOM      2  C   UNL A   1     -11.459   7.302 128.618  0.00  0.00    +0.215 A 
ATOM      3  C   UNL A   1     -10.325   6.571 128.389  0.00  0.00    +0.212 A 
ATOM      4  C   UNL A   1      -9.725   5.813 129.370  0.00  0.00    +0.177 A 
ATOM      5  C   UNL A   1     -10.289   5.795 130.655  0.00  0.00    +0.108 A 
ATOM      6  C   UNL A   1     -11.485   6.554 130.885  0.00  0.00    +0.177 A 
ATOM      7  O   UNL A   1      -9.857   6.681 127.113  0.00  0.00    -0.449 OA
ATOM      8  C   UNL A   1     -10.778   7.658 126.587  0.00  0.00    +0.467 C 
ATOM      9  O   UNL A   1     -11.852   7.970 127.494  0.00  0.00    -0.449 OA
ENDROOT
BRANCH   1  10
ATOM     10  O   UNL A   1     -13.205   8.096 129.893  0.00  0.00    -0.488 OA
ATOM     11  C   UNL A   1     -13.089   9.482 130.165  0.00  0.00    +0.277 C 
ENDBRANCH   1  10
BRANCH   6  12
ATOM     12  O   UNL A   1     -12.082   6.547 132.126  0.00  0.00    -0.503 OA
ATOM     13  H   UNL A   1     -11.561   7.119 132.735  0.00  0.00    +0.292 HD
ENDBRANCH   6  12
BRANCH   5  14
ATOM     14  C   UNL A   1      -9.648   5.028 131.789  0.00  0.00    +0.171 C 
ATOM     15  O   UNL A   1      -9.683   3.799 131.752  0.00  0.00    -0.292 OA
BRANCH  14  16
ATOM     16  C   UNL A   1      -9.015   5.805 132.940  0.00  0.00    +0.084 C 
BRANCH  16  17
ATOM     17  C   UNL A   1      -7.637   5.348 133.407  0.00  0.00    +0.043 C 
BRANCH  17  18
ATOM     18  C   UNL A   1      -6.497   6.007 132.684  0.00  0.00    -0.047 A 
ATOM     19  C   UNL A   1      -6.674   6.650 131.453  0.00  0.00    +0.007 A 
ATOM     20  C   UNL A   1      -5.576   7.178 130.770  0.00  0.00    +0.046 A 
ATOM     21  C   UNL A   1      -4.295   7.103 131.321  0.00  0.00    +0.120 A 
ATOM     22  C   UNL A   1      -4.121   6.497 132.563  0.00  0.00    +0.046 A 
ATOM     23  C   UNL A   1      -5.214   5.955 133.240  0.00  0.00    +0.007 A 
BRANCH  21  24
ATOM     24  O   UNL A   1      -3.291   7.597 130.536  0.00  0.00    -0.495 OA
ATOM     25  C   UNL A   1      -3.679   8.042 129.242  0.00  0.00    +0.277 C 
ENDBRANCH  21  24
ENDBRANCH  17  18
ENDBRANCH  16  17
ENDBRANCH  14  16
ENDBRANCH   5  14
BRANCH   4  26
ATOM     26  O   UNL A   1      -8.598   5.133 129.014  0.00  0.00    -0.503 OA
ATOM     27  H   UNL A   1      -8.093   4.960 129.834  0.00  0.00    +0.292 HD
ENDBRANCH   4  26
TORSDOF 8
ENDMDL
MODEL 5
REMARK VINA RESULT:      -6.8      7.957     10.685
REMARK  Name = NuBBE_2525
REMARK  10 active torsions:
REMARK  status: ('A' for Active; 'I' for Inactive)
REMARK    1  A    between atoms: O_1  and  C_2
REMARK    2  A    between atoms: O_1  and  C_3
REMARK    3  A    between atoms: C_6  and  O_22
REMARK    4  A    between atoms: C_7  and  C_10
REMARK    5  A    between atoms: C_8  and  O_9
REMARK    6  A    between atoms: C_10  and  C_12
REMARK    7  A    between atoms: C_12  and  C_13
REMARK    8  A    between atoms: C_13  and  C_14
REMARK    9  A    between atoms: C_17  and  O_20
REMARK   10  A    between atoms: O_20  and  C_21
REMARK                            x       y       z     vdW  Elec       q    Type
REMARK                         _______ _______ _______ _____ _____    ______ ____
ROOT
ATOM      1  C   UNL A   1      -7.401  -1.545 125.830  0.00  0.00    +0.208 A 
ATOM      2  C   UNL A   1      -8.230  -1.989 124.812  0.00  0.00    +0.215 A 
ATOM      3  C   UNL A   1      -9.033  -1.133 124.108  0.00  0.00    +0.212 A 
ATOM      4  C   UNL A   1      -9.076   0.219 124.367  0.00  0.00    +0.177 A 
ATOM      5  C   UNL A   1      -8.276   0.739 125.396  0.00  0.00    +0.108 A 
ATOM      6  C   UNL A   1      -7.428  -0.162 126.122  0.00  0.00    +0.177 A 
ATOM      7  O   UNL A   1      -9.778  -1.753 123.149  0.00  0.00    -0.449 OA
ATOM      8  C   UNL A   1      -9.426  -3.128 123.401  0.00  0.00    +0.467 C 
ATOM      9  O   UNL A   1      -8.372  -3.274 124.372  0.00  0.00    -0.449 OA
ENDROOT
BRANCH   1  10
ATOM     10  O   UNL A   1      -6.668  -2.541 126.411  0.00  0.00    -0.488 OA
ATOM     11  C   UNL A   1      -5.333  -2.766 125.988  0.00  0.00    +0.277 C 
ENDBRANCH   1  10
BRANCH   6  12
ATOM     12  O   UNL A   1      -6.613   0.311 127.126  0.00  0.00    -0.503 OA
ATOM     13  H   UNL A   1      -6.600   1.295 127.091  0.00  0.00    +0.292 HD
ENDBRANCH   6  12
BRANCH   5  14
ATOM     14  C   UNL A   1      -8.320   2.205 125.766  0.00  0.00    +0.171 C 
ATOM     15  O   UNL A   1      -8.811   2.515 126.850  0.00  0.00    -0.292 OA
BRANCH  14  16
ATOM     16  C   UNL A   1      -7.786   3.232 124.772  0.00  0.00    +0.084 C 
BRANCH  16  17
ATOM     17  C   UNL A   1      -6.629   2.793 123.880  0.00  0.00    +0.043 C 
BRANCH  17  18
ATOM     18  C   UNL A   1      -6.740   3.267 122.458  0.00  0.00    -0.047 A 
ATOM     19  C   UNL A   1      -5.621   3.684 121.729  0.00  0.00    +0.007 A 
ATOM     20  C   UNL A   1      -5.773   4.198 120.439  0.00  0.00    +0.046 A 
ATOM     21  C   UNL A   1      -7.036   4.269 119.849  0.00  0.00    +0.120 A 
ATOM     22  C   UNL A   1      -8.147   3.820 120.558  0.00  0.00    +0.046 A 
ATOM     23  C   UNL A   1      -8.000   3.321 121.853  0.00  0.00    +0.007 A 
BRANCH  21  24
ATOM     24  O   UNL A   1      -7.071   4.847 118.610  0.00  0.00    -0.495 OA
ATOM     25  C   UNL A   1      -6.000   5.733 118.310  0.00  0.00    +0.277 C 
ENDBRANCH  21  24
ENDBRANCH  17  18
ENDBRANCH  16  17
ENDBRANCH  14  16
ENDBRANCH   5  14
BRANCH   4  26
ATOM     26  O   UNL A   1      -9.920   0.963 123.596  0.00  0.00    -0.503 OA
ATOM     27  H   UNL A   1      -9.816   1.896 123.871  0.00  0.00    +0.292 HD
ENDBRANCH   4  26
TORSDOF 8
ENDMDL
MODEL 6
REMARK VINA RESULT:      -6.7      8.310     10.242
REMARK  Name = NuBBE_2525
REMARK  10 active torsions:
REMARK  status: ('A' for Active; 'I' for Inactive)
REMARK    1  A    between atoms: O_1  and  C_2
REMARK    2  A    between atoms: O_1  and  C_3
REMARK    3  A    between atoms: C_6  and  O_22
REMARK    4  A    between atoms: C_7  and  C_10
REMARK    5  A    between atoms: C_8  and  O_9
REMARK    6  A    between atoms: C_10  and  C_12
REMARK    7  A    between atoms: C_12  and  C_13
REMARK    8  A    between atoms: C_13  and  C_14
REMARK    9  A    between atoms: C_17  and  O_20
REMARK   10  A    between atoms: O_20  and  C_21
REMARK                            x       y       z     vdW  Elec       q    Type
REMARK                         _______ _______ _______ _____ _____    ______ ____
ROOT
ATOM      1  C   UNL A   1      -6.600   3.142 124.684  0.00  0.00    +0.208 A 
ATOM      2  C   UNL A   1      -5.998   2.383 125.675  0.00  0.00    +0.215 A 
ATOM      3  C   UNL A   1      -6.527   1.194 126.098  0.00  0.00    +0.212 A 
ATOM      4  C   UNL A   1      -7.692   0.678 125.574  0.00  0.00    +0.177 A 
ATOM      5  C   UNL A   1      -8.368   1.399 124.579  0.00  0.00    +0.108 A 
ATOM      6  C   UNL A   1      -7.801   2.639 124.132  0.00  0.00    +0.177 A 
ATOM      7  O   UNL A   1      -5.797   0.594 127.080  0.00  0.00    -0.449 OA
ATOM      8  C   UNL A   1      -4.791   1.602 127.303  0.00  0.00    +0.467 C 
ATOM      9  O   UNL A   1      -4.848   2.679 126.349  0.00  0.00    -0.449 OA
ENDROOT
BRANCH   1  10
ATOM     10  O   UNL A   1      -5.923   4.291 124.388  0.00  0.00    -0.488 OA
ATOM     11  C   UNL A   1      -6.220   5.482 125.096  0.00  0.00    +0.277 C 
ENDBRANCH   1  10
BRANCH   6  12
ATOM     12  O   UNL A   1      -8.422   3.368 123.143  0.00  0.00    -0.503 OA
ATOM     13  H   UNL A   1      -9.273   2.931 122.908  0.00  0.00    +0.292 HD
ENDBRANCH   6  12
BRANCH   5  14
ATOM     14  C   UNL A   1      -9.680   0.914 124.005  0.00  0.00    +0.171 C 
ATOM     15  O   UNL A   1     -10.698   1.060 124.678  0.00  0.00    -0.292 OA
BRANCH  14  16
ATOM     16  C   UNL A   1      -9.680   0.238 122.636  0.00  0.00    +0.084 C 
BRANCH  16  17
ATOM     17  C   UNL A   1      -9.804  -1.282 122.618  0.00  0.00    +0.043 C 
BRANCH  17  18
ATOM     18  C   UNL A   1      -8.557  -2.002 123.050  0.00  0.00    -0.047 A 
ATOM     19  C   UNL A   1      -8.600  -3.103 123.912  0.00  0.00    +0.007 A 
ATOM     20  C   UNL A   1      -7.415  -3.693 124.359  0.00  0.00    +0.046 A 
ATOM     21  C   UNL A   1      -6.177  -3.216 123.924  0.00  0.00    +0.120 A 
ATOM     22  C   UNL A   1      -6.132  -2.144 123.037  0.00  0.00    +0.046 A 
ATOM     23  C   UNL A   1      -7.314  -1.542 122.601  0.00  0.00    +0.007 A 
BRANCH  21  24
ATOM     24  O   UNL A   1      -5.088  -3.831 124.475  0.00  0.00    -0.495 OA
ATOM     25  C   UNL A   1      -4.248  -4.533 123.568  0.00  0.00    +0.277 C 
ENDBRANCH  21  24
ENDBRANCH  17  18
ENDBRANCH  16  17
ENDBRANCH  14  16
ENDBRANCH   5  14
BRANCH   4  26
ATOM     26  O   UNL A   1      -8.115  -0.514 126.084  0.00  0.00    -0.503 OA
ATOM     27  H   UNL A   1      -9.053  -0.623 125.826  0.00  0.00    +0.292 HD
ENDBRANCH   4  26
TORSDOF 8
ENDMDL
MODEL 7
REMARK VINA RESULT:      -6.7      8.994     11.411
REMARK  Name = NuBBE_2525
REMARK  10 active torsions:
REMARK  status: ('A' for Active; 'I' for Inactive)
REMARK    1  A    between atoms: O_1  and  C_2
REMARK    2  A    between atoms: O_1  and  C_3
REMARK    3  A    between atoms: C_6  and  O_22
REMARK    4  A    between atoms: C_7  and  C_10
REMARK    5  A    between atoms: C_8  and  O_9
REMARK    6  A    between atoms: C_10  and  C_12
REMARK    7  A    between atoms: C_12  and  C_13
REMARK    8  A    between atoms: C_13  and  C_14
REMARK    9  A    between atoms: C_17  and  O_20
REMARK   10  A    between atoms: O_20  and  C_21
REMARK                            x       y       z     vdW  Elec       q    Type
REMARK                         _______ _______ _______ _____ _____    ______ ____
ROOT
ATOM      1  C   UNL A   1      -8.123  -1.823 126.026  0.00  0.00    +0.208 A 
ATOM      2  C   UNL A   1      -6.917  -2.149 125.425  0.00  0.00    +0.215 A 
ATOM      3  C   UNL A   1      -6.543  -1.622 124.219  0.00  0.00    +0.212 A 
ATOM      4  C   UNL A   1      -7.338  -0.739 123.522  0.00  0.00    +0.177 A 
ATOM      5  C   UNL A   1      -8.582  -0.376 124.059  0.00  0.00    +0.108 A 
ATOM      6  C   UNL A   1      -8.963  -0.923 125.329  0.00  0.00    +0.177 A 
ATOM      7  O   UNL A   1      -5.327  -2.062 123.789  0.00  0.00    -0.449 OA
ATOM      8  C   UNL A   1      -5.021  -3.019 124.822  0.00  0.00    +0.467 C 
ATOM      9  O   UNL A   1      -5.964  -2.999 125.910  0.00  0.00    -0.449 OA
ENDROOT
BRANCH   1  10
ATOM     10  O   UNL A   1      -8.320  -2.439 127.229  0.00  0.00    -0.488 OA
ATOM     11  C   UNL A   1      -8.962  -3.702 127.273  0.00  0.00    +0.277 C 
ENDBRANCH   1  10
BRANCH   6  12
ATOM     12  O   UNL A   1     -10.167  -0.576 125.901  0.00  0.00    -0.503 OA
ATOM     13  H   UNL A   1     -10.526  -1.352 126.389  0.00  0.00    +0.292 HD
ENDBRANCH   6  12
BRANCH   5  14
ATOM     14  C   UNL A   1      -9.525   0.544 123.316  0.00  0.00    +0.171 C 
ATOM     15  O   UNL A   1     -10.262   0.054 122.462  0.00  0.00    -0.292 OA
BRANCH  14  16
ATOM     16  C   UNL A   1      -9.500   2.037 123.632  0.00  0.00    +0.084 C 
BRANCH  16  17
ATOM     17  C   UNL A   1      -8.148   2.737 123.547  0.00  0.00    +0.043 C 
BRANCH  17  18
ATOM     18  C   UNL A   1      -7.802   3.233 122.171  0.00  0.00    -0.047 A 
ATOM     19  C   UNL A   1      -6.483   3.515 121.797  0.00  0.00    +0.007 A 
ATOM     20  C   UNL A   1      -6.209   4.054 120.538  0.00  0.00    +0.046 A 
ATOM     21  C   UNL A   1      -7.240   4.285 119.626  0.00  0.00    +0.120 A 
ATOM     22  C   UNL A   1      -8.549   3.971 119.981  0.00  0.00    +0.046 A 
ATOM     23  C   UNL A   1      -8.828   3.447 121.245  0.00  0.00    +0.007 A 
BRANCH  21  24
ATOM     24  O   UNL A   1      -6.861   4.872 118.451  0.00  0.00    -0.495 OA
ATOM     25  C   UNL A   1      -5.847   5.863 118.554  0.00  0.00    +0.277 C 
ENDBRANCH  21  24
ENDBRANCH  17  18
ENDBRANCH  16  17
ENDBRANCH  14  16
ENDBRANCH   5  14
BRANCH   4  26
ATOM     26  O   UNL A   1      -6.852  -0.288 122.331  0.00  0.00    -0.503 OA
ATOM     27  H   UNL A   1      -6.950   0.685 122.327  0.00  0.00    +0.292 HD
ENDBRANCH   4  26
TORSDOF 8
ENDMDL
MODEL 8
REMARK VINA RESULT:      -6.6      7.167      9.930
REMARK  Name = NuBBE_2525
REMARK  10 active torsions:
REMARK  status: ('A' for Active; 'I' for Inactive)
REMARK    1  A    between atoms: O_1  and  C_2
REMARK    2  A    between atoms: O_1  and  C_3
REMARK    3  A    between atoms: C_6  and  O_22
REMARK    4  A    between atoms: C_7  and  C_10
REMARK    5  A    between atoms: C_8  and  O_9
REMARK    6  A    between atoms: C_10  and  C_12
REMARK    7  A    between atoms: C_12  and  C_13
REMARK    8  A    between atoms: C_13  and  C_14
REMARK    9  A    between atoms: C_17  and  O_20
REMARK   10  A    between atoms: O_20  and  C_21
REMARK                            x       y       z     vdW  Elec       q    Type
REMARK                         _______ _______ _______ _____ _____    ______ ____
ROOT
ATOM      1  C   UNL A   1      -8.232  -1.612 126.683  0.00  0.00    +0.208 A 
ATOM      2  C   UNL A   1      -7.805  -0.814 127.734  0.00  0.00    +0.215 A 
ATOM      3  C   UNL A   1      -8.000   0.541 127.739  0.00  0.00    +0.212 A 
ATOM      4  C   UNL A   1      -8.625   1.200 126.704  0.00  0.00    +0.177 A 
ATOM      5  C   UNL A   1      -9.069   0.460 125.597  0.00  0.00    +0.108 A 
ATOM      6  C   UNL A   1      -8.872  -0.961 125.603  0.00  0.00    +0.177 A 
ATOM      7  O   UNL A   1      -7.510   1.154 128.854  0.00  0.00    -0.449 OA
ATOM      8  C   UNL A   1      -6.884   0.033 129.509  0.00  0.00    +0.467 C 
ATOM      9  O   UNL A   1      -7.160  -1.225 128.865  0.00  0.00    -0.449 OA
ENDROOT
BRANCH   1  10
ATOM     10  O   UNL A   1      -7.958  -2.938 126.858  0.00  0.00    -0.488 OA
ATOM     11  C   UNL A   1      -8.937  -3.785 127.437  0.00  0.00    +0.277 C 
ENDBRANCH   1  10
BRANCH   6  12
ATOM     12  O   UNL A   1      -9.311  -1.726 124.546  0.00  0.00    -0.503 OA
ATOM     13  H   UNL A   1     -10.133  -2.198 124.812  0.00  0.00    +0.292 HD
ENDBRANCH   6  12
BRANCH   5  14
ATOM     14  C   UNL A   1      -9.711   1.132 124.404  0.00  0.00    +0.171 C 
ATOM     15  O   UNL A   1     -10.938   1.205 124.370  0.00  0.00    -0.292 OA
BRANCH  14  16
ATOM     16  C   UNL A   1      -8.817   1.659 123.285  0.00  0.00    +0.084 C 
BRANCH  16  17
ATOM     17  C   UNL A   1      -7.618   2.505 123.701  0.00  0.00    +0.043 C 
BRANCH  17  18
ATOM     18  C   UNL A   1      -6.995   3.278 122.573  0.00  0.00    -0.047 A 
ATOM     19  C   UNL A   1      -7.644   3.447 121.345  0.00  0.00    +0.007 A 
ATOM     20  C   UNL A   1      -6.998   4.099 120.291  0.00  0.00    +0.046 A 
ATOM     21  C   UNL A   1      -5.715   4.620 120.460  0.00  0.00    +0.120 A 
ATOM     22  C   UNL A   1      -5.080   4.486 121.692  0.00  0.00    +0.046 A 
ATOM     23  C   UNL A   1      -5.716   3.821 122.742  0.00  0.00    +0.007 A 
BRANCH  21  24
ATOM     24  O   UNL A   1      -5.160   5.180 119.343  0.00  0.00    -0.495 OA
ATOM     25  C   UNL A   1      -6.076   5.721 118.401  0.00  0.00    +0.277 C 
ENDBRANCH  21  24
ENDBRANCH  17  18
ENDBRANCH  16  17
ENDBRANCH  14  16
ENDBRANCH   5  14
BRANCH   4  26
ATOM     26  O   UNL A   1      -8.755   2.551 126.830  0.00  0.00    -0.503 OA
ATOM     27  H   UNL A   1      -7.912   2.952 126.538  0.00  0.00    +0.292 HD
ENDBRANCH   4  26
TORSDOF 8
ENDMDL
MODEL 9
REMARK VINA RESULT:      -6.6      5.592      8.185
REMARK  Name = NuBBE_2525
REMARK  10 active torsions:
REMARK  status: ('A' for Active; 'I' for Inactive)
REMARK    1  A    between atoms: O_1  and  C_2
REMARK    2  A    between atoms: O_1  and  C_3
REMARK    3  A    between atoms: C_6  and  O_22
REMARK    4  A    between atoms: C_7  and  C_10
REMARK    5  A    between atoms: C_8  and  O_9
REMARK    6  A    between atoms: C_10  and  C_12
REMARK    7  A    between atoms: C_12  and  C_13
REMARK    8  A    between atoms: C_13  and  C_14
REMARK    9  A    between atoms: C_17  and  O_20
REMARK   10  A    between atoms: O_20  and  C_21
REMARK                            x       y       z     vdW  Elec       q    Type
REMARK                         _______ _______ _______ _____ _____    ______ ____
ROOT
ATOM      1  C   UNL A   1      -9.008   3.292 132.835  0.00  0.00    +0.208 A 
ATOM      2  C   UNL A   1      -9.634   4.034 131.846  0.00  0.00    +0.215 A 
ATOM      3  C   UNL A   1      -9.590   3.667 130.529  0.00  0.00    +0.212 A 
ATOM      4  C   UNL A   1      -8.917   2.544 130.098  0.00  0.00    +0.177 A 
ATOM      5  C   UNL A   1      -8.244   1.752 131.041  0.00  0.00    +0.108 A 
ATOM      6  C   UNL A   1      -8.305   2.136 132.422  0.00  0.00    +0.177 A 
ATOM      7  O   UNL A   1     -10.261   4.521 129.705  0.00  0.00    -0.449 OA
ATOM      8  C   UNL A   1     -10.650   5.536 130.651  0.00  0.00    +0.467 C 
ATOM      9  O   UNL A   1     -10.354   5.182 132.015  0.00  0.00    -0.449 OA
ENDROOT
BRANCH   1  10
ATOM     10  O   UNL A   1      -9.170   3.807 134.090  0.00  0.00    -0.488 OA
ATOM     11  C   UNL A   1      -8.112   4.536 134.690  0.00  0.00    +0.277 C 
ENDBRANCH   1  10
BRANCH   6  12
ATOM     12  O   UNL A   1      -7.675   1.376 133.381  0.00  0.00    -0.503 OA
ATOM     13  H   UNL A   1      -7.839   0.423 133.193  0.00  0.00    +0.292 HD
ENDBRANCH   6  12
BRANCH   5  14
ATOM     14  C   UNL A   1      -7.442   0.540 130.625  0.00  0.00    +0.171 C 
ATOM     15  O   UNL A   1      -6.296   0.714 130.216  0.00  0.00    -0.292 OA
BRANCH  14  16
ATOM     16  C   UNL A   1      -8.096  -0.838 130.700  0.00  0.00    +0.084 C 
BRANCH  16  17
ATOM     17  C   UNL A   1      -7.379  -1.981 129.989  0.00  0.00    +0.043 C 
BRANCH  17  18
ATOM     18  C   UNL A   1      -7.936  -2.301 128.630  0.00  0.00    -0.047 A 
ATOM     19  C   UNL A   1      -7.853  -1.396 127.565  0.00  0.00    +0.007 A 
ATOM     20  C   UNL A   1      -8.457  -1.694 126.341  0.00  0.00    +0.046 A 
ATOM     21  C   UNL A   1      -9.118  -2.909 126.153  0.00  0.00    +0.120 A 
ATOM     22  C   UNL A   1      -9.170  -3.826 127.199  0.00  0.00    +0.046 A 
ATOM     23  C   UNL A   1      -8.582  -3.525 128.428  0.00  0.00    +0.007 A 
BRANCH  21  24
ATOM     24  O   UNL A   1      -9.723  -3.063 124.938  0.00  0.00    -0.495 OA
ATOM     25  C   UNL A   1      -8.850  -3.162 123.819  0.00  0.00    +0.277 C 
ENDBRANCH  21  24
ENDBRANCH  17  18
ENDBRANCH  16  17
ENDBRANCH  14  16
ENDBRANCH   5  14
BRANCH   4  26
ATOM     26  O   UNL A   1      -8.947   2.290 128.759  0.00  0.00    -0.503 OA
ATOM     27  H   UNL A   1      -9.398   3.045 128.331  0.00  0.00    +0.292 HD
ENDBRANCH   4  26
TORSDOF 8
ENDMDL
