MODEL 1
REMARK VINA RESULT:      -8.1      0.000      0.000
REMARK  Name = NuBBE_990
REMARK  7 active torsions:
REMARK  status: ('A' for Active; 'I' for Inactive)
REMARK    1  A    between atoms: C_1  and  C_2
REMARK    2  A    between atoms: C_9  and  O_23
REMARK    3  A    between atoms: C_11  and  O_19
REMARK    4  A    between atoms: O_19  and  C_20
REMARK    5  A    between atoms: C_20  and  C_21
REMARK    6  A    between atoms: O_23  and  C_24
REMARK    7  A    between atoms: C_24  and  C_25
REMARK                            x       y       z     vdW  Elec       q    Type
REMARK                         _______ _______ _______ _____ _____    ______ ____
ROOT
ATOM      1  C   LIG A   1      -5.413  -2.986 124.085  0.00  0.00    +0.012 C 
ATOM      2  C   LIG A   1      -6.840  -2.538 124.467  0.00  0.00    -0.022 C 
ATOM      3  C   LIG A   1      -7.251  -1.273 123.662  0.00  0.00    +0.006 C 
ATOM      4  C   LIG A   1      -6.879  -0.005 124.440  0.00  0.00    -0.003 C 
ATOM      5  C   LIG A   1      -7.040   1.280 123.631  0.00  0.00    +0.004 C 
ATOM      6  C   LIG A   1      -6.338   2.417 124.364  0.00  0.00    +0.004 C 
ATOM      7  C   LIG A   1      -6.820   2.580 125.816  0.00  0.00    +0.002 C 
ATOM      8  C   LIG A   1      -6.006   3.694 126.509  0.00  0.00    +0.055 C 
ATOM      9  C   LIG A   1      -4.783   3.171 127.266  0.00  0.00    +0.248 C 
ATOM     10  C   LIG A   1      -5.207   1.935 128.122  0.00  0.00    +0.253 C 
ATOM     11  C   LIG A   1      -5.533   0.792 127.164  0.00  0.00    +0.092 C 
ATOM     12  C   LIG A   1      -6.896   1.235 126.646  0.00  0.00    +0.006 C 
ATOM     13  C   LIG A   1      -7.620   0.145 125.800  0.00  0.00    +0.001 C 
ATOM     14  C   LIG A   1      -7.841  -1.231 126.469  0.00  0.00    +0.005 C 
ATOM     15  C   LIG A   1      -6.859  -2.303 126.002  0.00  0.00    +0.007 C 
ATOM     16  C   LIG A   1      -7.528   1.573 128.008  0.00  0.00    +0.172 C 
ATOM     17  O   LIG A   1      -6.464   2.150 128.806  0.00  0.00    -0.336 OA
ATOM     18  C   LIG A   1      -8.741  -1.395 123.326  0.00  0.00    +0.078 C 
ATOM     19  C   LIG A   1      -9.033  -2.848 123.555  0.00  0.00    +0.134 C 
ATOM     20  C   LIG A   1      -7.837  -3.624 124.024  0.00  0.00    +0.081 C 
ATOM     21  O   LIG A   1     -10.127  -3.357 123.347  0.00  0.00    -0.297 OA
ENDROOT
BRANCH  10  22
ATOM     22  O   LIG A   1      -4.164   1.484 128.998  0.00  0.00    -0.429 OA
BRANCH  22  23
ATOM     23  C   LIG A   1      -4.176   1.977 130.264  0.00  0.00    +0.306 C 
ATOM     24  C   LIG A   1      -4.432   0.869 131.233  0.00  0.00    +0.136 C 
ATOM     25  O   LIG A   1      -3.968   3.138 130.600  0.00  0.00    -0.251 OA
ENDBRANCH  22  23
ENDBRANCH  10  22
BRANCH   9  26
ATOM     26  O   LIG A   1      -3.693   2.759 126.399  0.00  0.00    -0.455 OA
BRANCH  26  27
ATOM     27  C   LIG A   1      -2.443   3.165 126.716  0.00  0.00    +0.304 C 
ATOM     28  C   LIG A   1      -2.504   4.395 127.563  0.00  0.00    +0.136 C 
ATOM     29  O   LIG A   1      -1.398   2.653 126.313  0.00  0.00    -0.251 OA
ENDBRANCH  26  27
ENDBRANCH   9  26
TORSDOF 4
ENDMDL
MODEL 2
REMARK VINA RESULT:      -7.8      2.837      5.168
REMARK  Name = NuBBE_990
REMARK  7 active torsions:
REMARK  status: ('A' for Active; 'I' for Inactive)
REMARK    1  A    between atoms: C_1  and  C_2
REMARK    2  A    between atoms: C_9  and  O_23
REMARK    3  A    between atoms: C_11  and  O_19
REMARK    4  A    between atoms: O_19  and  C_20
REMARK    5  A    between atoms: C_20  and  C_21
REMARK    6  A    between atoms: O_23  and  C_24
REMARK    7  A    between atoms: C_24  and  C_25
REMARK                            x       y       z     vdW  Elec       q    Type
REMARK                         _______ _______ _______ _____ _____    ______ ____
ROOT
ATOM      1  C   LIG A   1      -9.769   0.470 125.362  0.00  0.00    +0.012 C 
ATOM      2  C   LIG A   1      -8.680  -0.519 124.894  0.00  0.00    -0.022 C 
ATOM      3  C   LIG A   1      -9.041  -1.971 125.317  0.00  0.00    +0.006 C 
ATOM      4  C   LIG A   1      -8.433  -2.290 126.689  0.00  0.00    -0.003 C 
ATOM      5  C   LIG A   1      -8.921  -3.609 127.283  0.00  0.00    +0.004 C 
ATOM      6  C   LIG A   1      -8.532  -3.661 128.756  0.00  0.00    +0.004 C 
ATOM      7  C   LIG A   1      -7.027  -3.442 128.984  0.00  0.00    +0.002 C 
ATOM      8  C   LIG A   1      -6.730  -3.431 130.499  0.00  0.00    +0.055 C 
ATOM      9  C   LIG A   1      -6.745  -2.026 131.110  0.00  0.00    +0.248 C 
ATOM     10  C   LIG A   1      -5.918  -1.067 130.195  0.00  0.00    +0.253 C 
ATOM     11  C   LIG A   1      -6.690  -0.883 128.891  0.00  0.00    +0.092 C 
ATOM     12  C   LIG A   1      -6.408  -2.213 128.203  0.00  0.00    +0.006 C 
ATOM     13  C   LIG A   1      -6.878  -2.254 126.718  0.00  0.00    +0.001 C 
ATOM     14  C   LIG A   1      -6.329  -1.157 125.778  0.00  0.00    +0.005 C 
ATOM     15  C   LIG A   1      -7.329  -0.039 125.490  0.00  0.00    +0.007 C 
ATOM     16  C   LIG A   1      -4.887  -2.240 128.437  0.00  0.00    +0.172 C 
ATOM     17  O   LIG A   1      -4.678  -1.667 129.753  0.00  0.00    -0.336 OA
ATOM     18  C   LIG A   1      -8.593  -2.911 124.193  0.00  0.00    +0.078 C 
ATOM     19  C   LIG A   1      -8.393  -1.990 123.026  0.00  0.00    +0.134 C 
ATOM     20  C   LIG A   1      -8.667  -0.552 123.355  0.00  0.00    +0.081 C 
ATOM     21  O   LIG A   1      -8.073  -2.377 121.909  0.00  0.00    -0.297 OA
ENDROOT
BRANCH  10  22
ATOM     22  O   LIG A   1      -5.734   0.230 130.778  0.00  0.00    -0.429 OA
BRANCH  22  23
ATOM     23  C   LIG A   1      -4.453   0.663 130.912  0.00  0.00    +0.306 C 
ATOM     24  C   LIG A   1      -4.137   1.644 129.830  0.00  0.00    +0.136 C 
ATOM     25  O   LIG A   1      -3.663   0.351 131.797  0.00  0.00    -0.251 OA
ENDBRANCH  22  23
ENDBRANCH  10  22
BRANCH   9  26
ATOM     26  O   LIG A   1      -8.078  -1.468 131.252  0.00  0.00    -0.455 OA
BRANCH  26  27
ATOM     27  C   LIG A   1      -8.293  -0.591 132.259  0.00  0.00    +0.304 C 
ATOM     28  C   LIG A   1      -9.265   0.458 131.826  0.00  0.00    +0.136 C 
ATOM     29  O   LIG A   1      -7.722  -0.598 133.350  0.00  0.00    -0.251 OA
ENDBRANCH  26  27
ENDBRANCH   9  26
TORSDOF 4
ENDMDL
MODEL 3
REMARK VINA RESULT:      -7.7      2.419      7.162
REMARK  Name = NuBBE_990
REMARK  7 active torsions:
REMARK  status: ('A' for Active; 'I' for Inactive)
REMARK    1  A    between atoms: C_1  and  C_2
REMARK    2  A    between atoms: C_9  and  O_23
REMARK    3  A    between atoms: C_11  and  O_19
REMARK    4  A    between atoms: O_19  and  C_20
REMARK    5  A    between atoms: C_20  and  C_21
REMARK    6  A    between atoms: O_23  and  C_24
REMARK    7  A    between atoms: C_24  and  C_25
REMARK                            x       y       z     vdW  Elec       q    Type
REMARK                         _______ _______ _______ _____ _____    ______ ____
ROOT
ATOM      1  C   LIG A   1      -1.875   3.084 126.605  0.00  0.00    +0.012 C 
ATOM      2  C   LIG A   1      -3.019   3.694 127.443  0.00  0.00    -0.022 C 
ATOM      3  C   LIG A   1      -3.656   2.617 128.365  0.00  0.00    +0.006 C 
ATOM      4  C   LIG A   1      -4.832   1.937 127.654  0.00  0.00    -0.003 C 
ATOM      5  C   LIG A   1      -5.373   0.716 128.393  0.00  0.00    +0.004 C 
ATOM      6  C   LIG A   1      -6.289  -0.064 127.457  0.00  0.00    +0.004 C 
ATOM      7  C   LIG A   1      -7.413   0.801 126.862  0.00  0.00    +0.002 C 
ATOM      8  C   LIG A   1      -8.242  -0.040 125.868  0.00  0.00    +0.055 C 
ATOM      9  C   LIG A   1      -7.760   0.082 124.420  0.00  0.00    +0.248 C 
ATOM     10  C   LIG A   1      -7.530   1.591 124.088  0.00  0.00    +0.253 C 
ATOM     11  C   LIG A   1      -6.325   2.070 124.893  0.00  0.00    +0.092 C 
ATOM     12  C   LIG A   1      -6.942   2.195 126.281  0.00  0.00    +0.006 C 
ATOM     13  C   LIG A   1      -6.007   2.897 127.312  0.00  0.00    +0.001 C 
ATOM     14  C   LIG A   1      -5.487   4.305 126.942  0.00  0.00    +0.005 C 
ATOM     15  C   LIG A   1      -4.041   4.315 126.453  0.00  0.00    +0.007 C 
ATOM     16  C   LIG A   1      -8.206   2.970 125.868  0.00  0.00    +0.172 C 
ATOM     17  O   LIG A   1      -8.602   2.429 124.583  0.00  0.00    -0.336 OA
ATOM     18  C   LIG A   1      -4.023   3.293 129.690  0.00  0.00    +0.078 C 
ATOM     19  C   LIG A   1      -3.237   4.570 129.661  0.00  0.00    +0.134 C 
ATOM     20  C   LIG A   1      -2.426   4.735 128.410  0.00  0.00    +0.081 C 
ATOM     21  O   LIG A   1      -3.228   5.377 130.582  0.00  0.00    -0.297 OA
ENDROOT
BRANCH  10  22
ATOM     22  O   LIG A   1      -7.243   1.814 122.700  0.00  0.00    -0.429 OA
BRANCH  22  23
ATOM     23  C   LIG A   1      -7.554   3.040 122.203  0.00  0.00    +0.306 C 
ATOM     24  C   LIG A   1      -6.302   3.822 121.972  0.00  0.00    +0.136 C 
ATOM     25  O   LIG A   1      -8.674   3.456 121.930  0.00  0.00    -0.251 OA
ENDBRANCH  22  23
ENDBRANCH  10  22
BRANCH   9  26
ATOM     26  O   LIG A   1      -6.519  -0.625 124.158  0.00  0.00    -0.455 OA
BRANCH  26  27
ATOM     27  C   LIG A   1      -6.586  -1.790 123.474  0.00  0.00    +0.304 C 
ATOM     28  C   LIG A   1      -5.397  -2.638 123.789  0.00  0.00    +0.136 C 
ATOM     29  O   LIG A   1      -7.452  -2.090 122.652  0.00  0.00    -0.251 OA
ENDBRANCH  26  27
ENDBRANCH   9  26
TORSDOF 4
ENDMDL
MODEL 4
REMARK VINA RESULT:      -7.6      3.390      5.815
REMARK  Name = NuBBE_990
REMARK  7 active torsions:
REMARK  status: ('A' for Active; 'I' for Inactive)
REMARK    1  A    between atoms: C_1  and  C_2
REMARK    2  A    between atoms: C_9  and  O_23
REMARK    3  A    between atoms: C_11  and  O_19
REMARK    4  A    between atoms: O_19  and  C_20
REMARK    5  A    between atoms: C_20  and  C_21
REMARK    6  A    between atoms: O_23  and  C_24
REMARK    7  A    between atoms: C_24  and  C_25
REMARK                            x       y       z     vdW  Elec       q    Type
REMARK                         _______ _______ _______ _____ _____    ______ ____
ROOT
ATOM      1  C   LIG A   1      -8.498   0.968 126.632  0.00  0.00    +0.012 C 
ATOM      2  C   LIG A   1      -7.783  -0.228 125.968  0.00  0.00    -0.022 C 
ATOM      3  C   LIG A   1      -8.461  -1.566 126.374  0.00  0.00    +0.006 C 
ATOM      4  C   LIG A   1      -7.792  -2.142 127.628  0.00  0.00    -0.003 C 
ATOM      5  C   LIG A   1      -8.535  -3.333 128.228  0.00  0.00    +0.004 C 
ATOM      6  C   LIG A   1      -7.989  -3.604 129.625  0.00  0.00    +0.004 C 
ATOM      7  C   LIG A   1      -6.464  -3.802 129.643  0.00  0.00    +0.002 C 
ATOM      8  C   LIG A   1      -5.984  -3.990 131.098  0.00  0.00    +0.055 C 
ATOM      9  C   LIG A   1      -5.544  -2.684 131.765  0.00  0.00    +0.248 C 
ATOM     10  C   LIG A   1      -4.615  -1.901 130.785  0.00  0.00    +0.253 C 
ATOM     11  C   LIG A   1      -5.469  -1.418 129.616  0.00  0.00    +0.092 C 
ATOM     12  C   LIG A   1      -5.644  -2.715 128.835  0.00  0.00    +0.006 C 
ATOM     13  C   LIG A   1      -6.293  -2.512 127.434  0.00  0.00    +0.001 C 
ATOM     14  C   LIG A   1      -5.595  -1.522 126.473  0.00  0.00    +0.005 C 
ATOM     15  C   LIG A   1      -6.288  -0.165 126.383  0.00  0.00    +0.007 C 
ATOM     16  C   LIG A   1      -4.168  -3.154 128.846  0.00  0.00    +0.172 C 
ATOM     17  O   LIG A   1      -3.648  -2.764 130.141  0.00  0.00    -0.336 OA
ATOM     18  C   LIG A   1      -8.429  -2.495 125.157  0.00  0.00    +0.078 C 
ATOM     19  C   LIG A   1      -8.141  -1.567 124.015  0.00  0.00    +0.134 C 
ATOM     20  C   LIG A   1      -7.976  -0.139 124.443  0.00  0.00    +0.081 C 
ATOM     21  O   LIG A   1      -8.081  -1.931 122.848  0.00  0.00    -0.297 OA
ENDROOT
BRANCH  10  22
ATOM     22  O   LIG A   1      -4.017  -0.747 131.392  0.00  0.00    -0.429 OA
BRANCH  22  23
ATOM     23  C   LIG A   1      -3.233  -0.968 132.480  0.00  0.00    +0.306 C 
ATOM     24  C   LIG A   1      -3.613  -0.025 133.575  0.00  0.00    +0.136 C 
ATOM     25  O   LIG A   1      -2.368  -1.829 132.596  0.00  0.00    -0.251 OA
ENDBRANCH  22  23
ENDBRANCH  10  22
BRANCH   9  26
ATOM     26  O   LIG A   1      -6.649  -1.813 132.124  0.00  0.00    -0.455 OA
BRANCH  26  27
ATOM     27  C   LIG A   1      -7.065  -1.814 133.411  0.00  0.00    +0.304 C 
ATOM     28  C   LIG A   1      -8.026  -2.934 133.638  0.00  0.00    +0.136 C 
ATOM     29  O   LIG A   1      -6.763  -0.976 134.262  0.00  0.00    -0.251 OA
ENDBRANCH  26  27
ENDBRANCH   9  26
TORSDOF 4
ENDMDL
MODEL 5
REMARK VINA RESULT:      -7.4      3.923      8.914
REMARK  Name = NuBBE_990
REMARK  7 active torsions:
REMARK  status: ('A' for Active; 'I' for Inactive)
REMARK    1  A    between atoms: C_1  and  C_2
REMARK    2  A    between atoms: C_9  and  O_23
REMARK    3  A    between atoms: C_11  and  O_19
REMARK    4  A    between atoms: O_19  and  C_20
REMARK    5  A    between atoms: C_20  and  C_21
REMARK    6  A    between atoms: O_23  and  C_24
REMARK    7  A    between atoms: C_24  and  C_25
REMARK                            x       y       z     vdW  Elec       q    Type
REMARK                         _______ _______ _______ _____ _____    ______ ____
ROOT
ATOM      1  C   LIG A   1      -2.230   6.353 129.207  0.00  0.00    +0.012 C 
ATOM      2  C   LIG A   1      -2.573   6.236 130.708  0.00  0.00    -0.022 C 
ATOM      3  C   LIG A   1      -2.613   4.746 131.147  0.00  0.00    +0.006 C 
ATOM      4  C   LIG A   1      -4.034   4.188 131.003  0.00  0.00    -0.003 C 
ATOM      5  C   LIG A   1      -4.122   2.676 131.195  0.00  0.00    +0.004 C 
ATOM      6  C   LIG A   1      -5.482   2.193 130.706  0.00  0.00    +0.004 C 
ATOM      7  C   LIG A   1      -6.654   2.933 131.372  0.00  0.00    +0.002 C 
ATOM      8  C   LIG A   1      -7.987   2.443 130.765  0.00  0.00    +0.055 C 
ATOM      9  C   LIG A   1      -8.472   3.302 129.594  0.00  0.00    +0.248 C 
ATOM     10  C   LIG A   1      -8.359   4.809 129.990  0.00  0.00    +0.253 C 
ATOM     11  C   LIG A   1      -6.876   5.158 130.080  0.00  0.00    +0.092 C 
ATOM     12  C   LIG A   1      -6.511   4.508 131.409  0.00  0.00    +0.006 C 
ATOM     13  C   LIG A   1      -5.085   4.886 131.912  0.00  0.00    +0.001 C 
ATOM     14  C   LIG A   1      -4.773   6.392 132.069  0.00  0.00    +0.005 C 
ATOM     15  C   LIG A   1      -3.926   6.964 130.935  0.00  0.00    +0.007 C 
ATOM     16  C   LIG A   1      -7.691   5.056 132.230  0.00  0.00    +0.172 C 
ATOM     17  O   LIG A   1      -8.831   5.058 131.335  0.00  0.00    -0.336 OA
ATOM     18  C   LIG A   1      -2.040   4.660 132.565  0.00  0.00    +0.078 C 
ATOM     19  C   LIG A   1      -1.323   5.966 132.733  0.00  0.00    +0.134 C 
ATOM     20  C   LIG A   1      -1.426   6.855 131.529  0.00  0.00    +0.081 C 
ATOM     21  O   LIG A   1      -0.687   6.262 133.736  0.00  0.00    -0.297 OA
ENDROOT
BRANCH  10  22
ATOM     22  O   LIG A   1      -8.953   5.681 129.018  0.00  0.00    -0.429 OA
BRANCH  22  23
ATOM     23  C   LIG A   1     -10.171   6.198 129.327  0.00  0.00    +0.306 C 
ATOM     24  C   LIG A   1     -10.060   7.678 129.503  0.00  0.00    +0.136 C 
ATOM     25  O   LIG A   1     -11.228   5.582 129.413  0.00  0.00    -0.251 OA
ENDBRANCH  22  23
ENDBRANCH  10  22
BRANCH   9  26
ATOM     26  O   LIG A   1      -7.713   3.104 128.373  0.00  0.00    -0.455 OA
BRANCH  26  27
ATOM     27  C   LIG A   1      -7.972   1.998 127.638  0.00  0.00    +0.304 C 
ATOM     28  C   LIG A   1      -6.693   1.358 127.207  0.00  0.00    +0.136 C 
ATOM     29  O   LIG A   1      -9.090   1.607 127.301  0.00  0.00    -0.251 OA
ENDBRANCH  26  27
ENDBRANCH   9  26
TORSDOF 4
ENDMDL
MODEL 6
REMARK VINA RESULT:      -7.3      2.810      6.281
REMARK  Name = NuBBE_990
REMARK  7 active torsions:
REMARK  status: ('A' for Active; 'I' for Inactive)
REMARK    1  A    between atoms: C_1  and  C_2
REMARK    2  A    between atoms: C_9  and  O_23
REMARK    3  A    between atoms: C_11  and  O_19
REMARK    4  A    between atoms: O_19  and  C_20
REMARK    5  A    between atoms: C_20  and  C_21
REMARK    6  A    between atoms: O_23  and  C_24
REMARK    7  A    between atoms: C_24  and  C_25
REMARK                            x       y       z     vdW  Elec       q    Type
REMARK                         _______ _______ _______ _____ _____    ______ ____
ROOT
ATOM      1  C   LIG A   1      -3.985  -1.362 130.422  0.00  0.00    +0.012 C 
ATOM      2  C   LIG A   1      -5.443  -1.010 130.785  0.00  0.00    -0.022 C 
ATOM      3  C   LIG A   1      -6.413  -2.120 130.289  0.00  0.00    +0.006 C 
ATOM      4  C   LIG A   1      -6.916  -1.793 128.878  0.00  0.00    -0.003 C 
ATOM      5  C   LIG A   1      -7.692  -2.933 128.224  0.00  0.00    +0.004 C 
ATOM      6  C   LIG A   1      -7.846  -2.638 126.737  0.00  0.00    +0.004 C 
ATOM      7  C   LIG A   1      -8.486  -1.267 126.462  0.00  0.00    +0.002 C 
ATOM      8  C   LIG A   1      -8.531  -1.013 124.940  0.00  0.00    +0.055 C 
ATOM      9  C   LIG A   1      -7.316  -0.241 124.417  0.00  0.00    +0.248 C 
ATOM     10  C   LIG A   1      -7.049   0.980 125.354  0.00  0.00    +0.253 C 
ATOM     11  C   LIG A   1      -6.562   0.440 126.697  0.00  0.00    +0.092 C 
ATOM     12  C   LIG A   1      -7.870  -0.068 127.291  0.00  0.00    +0.006 C 
ATOM     13  C   LIG A   1      -7.749  -0.482 128.788  0.00  0.00    +0.001 C 
ATOM     14  C   LIG A   1      -7.216   0.585 129.771  0.00  0.00    +0.005 C 
ATOM     15  C   LIG A   1      -5.755   0.379 130.166  0.00  0.00    +0.007 C 
ATOM     16  C   LIG A   1      -8.721   1.179 126.995  0.00  0.00    +0.172 C 
ATOM     17  O   LIG A   1      -8.268   1.673 125.710  0.00  0.00    -0.336 OA
ATOM     18  C   LIG A   1      -7.522  -2.274 131.335  0.00  0.00    +0.078 C 
ATOM     19  C   LIG A   1      -6.957  -1.595 132.547  0.00  0.00    +0.134 C 
ATOM     20  C   LIG A   1      -5.590  -1.020 132.318  0.00  0.00    +0.081 C 
ATOM     21  O   LIG A   1      -7.536  -1.546 133.625  0.00  0.00    -0.297 OA
ENDROOT
BRANCH  10  22
ATOM     22  O   LIG A   1      -6.035   1.857 124.844  0.00  0.00    -0.429 OA
BRANCH  22  23
ATOM     23  C   LIG A   1      -6.449   2.845 124.008  0.00  0.00    +0.306 C 
ATOM     24  C   LIG A   1      -6.098   4.176 124.590  0.00  0.00    +0.136 C 
ATOM     25  O   LIG A   1      -6.989   2.703 122.917  0.00  0.00    -0.251 OA
ENDBRANCH  22  23
ENDBRANCH  10  22
BRANCH   9  26
ATOM     26  O   LIG A   1      -6.102  -1.035 124.362  0.00  0.00    -0.455 OA
BRANCH  26  27
ATOM     27  C   LIG A   1      -6.023  -2.009 123.427  0.00  0.00    +0.304 C 
ATOM     28  C   LIG A   1      -5.357  -3.217 124.000  0.00  0.00    +0.136 C 
ATOM     29  O   LIG A   1      -6.375  -1.904 122.251  0.00  0.00    -0.251 OA
ENDBRANCH  26  27
ENDBRANCH   9  26
TORSDOF 4
ENDMDL
MODEL 7
REMARK VINA RESULT:      -7.3      4.459      8.610
REMARK  Name = NuBBE_990
REMARK  7 active torsions:
REMARK  status: ('A' for Active; 'I' for Inactive)
REMARK    1  A    between atoms: C_1  and  C_2
REMARK    2  A    between atoms: C_9  and  O_23
REMARK    3  A    between atoms: C_11  and  O_19
REMARK    4  A    between atoms: O_19  and  C_20
REMARK    5  A    between atoms: C_20  and  C_21
REMARK    6  A    between atoms: O_23  and  C_24
REMARK    7  A    between atoms: C_24  and  C_25
REMARK                            x       y       z     vdW  Elec       q    Type
REMARK                         _______ _______ _______ _____ _____    ______ ____
ROOT
ATOM      1  C   LIG A   1      -3.765   8.480 130.395  0.00  0.00    +0.012 C 
ATOM      2  C   LIG A   1      -3.544   7.241 131.290  0.00  0.00    -0.022 C 
ATOM      3  C   LIG A   1      -2.880   6.092 130.480  0.00  0.00    +0.006 C 
ATOM      4  C   LIG A   1      -3.955   5.186 129.867  0.00  0.00    -0.003 C 
ATOM      5  C   LIG A   1      -3.404   4.167 128.873  0.00  0.00    +0.004 C 
ATOM      6  C   LIG A   1      -4.563   3.564 128.088  0.00  0.00    +0.004 C 
ATOM      7  C   LIG A   1      -5.650   2.962 128.995  0.00  0.00    +0.002 C 
ATOM      8  C   LIG A   1      -6.820   2.448 128.129  0.00  0.00    +0.055 C 
ATOM      9  C   LIG A   1      -7.936   3.479 127.943  0.00  0.00    +0.248 C 
ATOM     10  C   LIG A   1      -8.277   4.114 129.329  0.00  0.00    +0.253 C 
ATOM     11  C   LIG A   1      -7.087   4.969 129.757  0.00  0.00    +0.092 C 
ATOM     12  C   LIG A   1      -6.103   3.890 130.194  0.00  0.00    +0.006 C 
ATOM     13  C   LIG A   1      -4.844   4.457 130.915  0.00  0.00    +0.001 C 
ATOM     14  C   LIG A   1      -5.086   5.347 132.156  0.00  0.00    +0.005 C 
ATOM     15  C   LIG A   1      -4.923   6.840 131.880  0.00  0.00    +0.007 C 
ATOM     16  C   LIG A   1      -7.076   3.073 131.063  0.00  0.00    +0.172 C 
ATOM     17  O   LIG A   1      -8.354   3.121 130.380  0.00  0.00    -0.336 OA
ATOM     18  C   LIG A   1      -1.899   5.370 131.409  0.00  0.00    +0.078 C 
ATOM     19  C   LIG A   1      -1.710   6.338 132.539  0.00  0.00    +0.134 C 
ATOM     20  C   LIG A   1      -2.516   7.594 132.381  0.00  0.00    +0.081 C 
ATOM     21  O   LIG A   1      -0.948   6.140 133.477  0.00  0.00    -0.297 OA
ENDROOT
BRANCH  10  22
ATOM     22  O   LIG A   1      -9.429   4.966 129.279  0.00  0.00    -0.429 OA
BRANCH  22  23
ATOM     23  C   LIG A   1     -10.399   4.735 130.203  0.00  0.00    +0.306 C 
ATOM     24  C   LIG A   1     -10.294   5.740 131.304  0.00  0.00    +0.136 C 
ATOM     25  O   LIG A   1     -11.269   3.873 130.151  0.00  0.00    -0.251 OA
ENDBRANCH  22  23
ENDBRANCH  10  22
BRANCH   9  26
ATOM     26  O   LIG A   1      -7.588   4.556 127.033  0.00  0.00    -0.455 OA
BRANCH  26  27
ATOM     27  C   LIG A   1      -7.728   4.335 125.706  0.00  0.00    +0.304 C 
ATOM     28  C   LIG A   1      -6.451   4.651 124.997  0.00  0.00    +0.136 C 
ATOM     29  O   LIG A   1      -8.768   3.996 125.141  0.00  0.00    -0.251 OA
ENDBRANCH  26  27
ENDBRANCH   9  26
TORSDOF 4
ENDMDL
MODEL 8
REMARK VINA RESULT:      -7.3      2.927      6.758
REMARK  Name = NuBBE_990
REMARK  7 active torsions:
REMARK  status: ('A' for Active; 'I' for Inactive)
REMARK    1  A    between atoms: C_1  and  C_2
REMARK    2  A    between atoms: C_9  and  O_23
REMARK    3  A    between atoms: C_11  and  O_19
REMARK    4  A    between atoms: O_19  and  C_20
REMARK    5  A    between atoms: C_20  and  C_21
REMARK    6  A    between atoms: O_23  and  C_24
REMARK    7  A    between atoms: C_24  and  C_25
REMARK                            x       y       z     vdW  Elec       q    Type
REMARK                         _______ _______ _______ _____ _____    ______ ____
ROOT
ATOM      1  C   LIG A   1      -8.644  -0.426 131.423  0.00  0.00    +0.012 C 
ATOM      2  C   LIG A   1      -7.322  -1.138 131.067  0.00  0.00    -0.022 C 
ATOM      3  C   LIG A   1      -6.245  -0.107 130.628  0.00  0.00    +0.006 C 
ATOM      4  C   LIG A   1      -6.291   0.096 129.109  0.00  0.00    -0.003 C 
ATOM      5  C   LIG A   1      -5.425   1.253 128.618  0.00  0.00    +0.004 C 
ATOM      6  C   LIG A   1      -5.800   1.575 127.177  0.00  0.00    +0.004 C 
ATOM      7  C   LIG A   1      -5.715   0.351 126.249  0.00  0.00    +0.002 C 
ATOM      8  C   LIG A   1      -6.186   0.742 124.832  0.00  0.00    +0.055 C 
ATOM      9  C   LIG A   1      -7.674   0.473 124.592  0.00  0.00    +0.248 C 
ATOM     10  C   LIG A   1      -8.021  -0.960 125.108  0.00  0.00    +0.253 C 
ATOM     11  C   LIG A   1      -7.915  -0.946 126.630  0.00  0.00    +0.092 C 
ATOM     12  C   LIG A   1      -6.402  -0.958 126.812  0.00  0.00    +0.006 C 
ATOM     13  C   LIG A   1      -5.958  -1.183 128.288  0.00  0.00    +0.001 C 
ATOM     14  C   LIG A   1      -6.487  -2.452 128.995  0.00  0.00    +0.005 C 
ATOM     15  C   LIG A   1      -7.638  -2.181 129.961  0.00  0.00    +0.007 C 
ATOM     16  C   LIG A   1      -6.092  -2.098 125.825  0.00  0.00    +0.172 C 
ATOM     17  O   LIG A   1      -7.022  -1.935 124.725  0.00  0.00    -0.336 OA
ATOM     18  C   LIG A   1      -4.891  -0.588 131.162  0.00  0.00    +0.078 C 
ATOM     19  C   LIG A   1      -5.265  -1.598 132.205  0.00  0.00    +0.134 C 
ATOM     20  C   LIG A   1      -6.747  -1.786 132.340  0.00  0.00    +0.081 C 
ATOM     21  O   LIG A   1      -4.446  -2.184 132.901  0.00  0.00    -0.297 OA
ENDROOT
BRANCH  10  22
ATOM     22  O   LIG A   1      -9.354  -1.362 124.767  0.00  0.00    -0.429 OA
BRANCH  22  23
ATOM     23  C   LIG A   1      -9.556  -1.787 123.492  0.00  0.00    +0.306 C 
ATOM     24  C   LIG A   1      -9.532  -3.280 123.449  0.00  0.00    +0.136 C 
ATOM     25  O   LIG A   1      -9.772  -1.084 122.512  0.00  0.00    -0.251 OA
ENDBRANCH  22  23
ENDBRANCH  10  22
BRANCH   9  26
ATOM     26  O   LIG A   1      -8.552   1.414 125.265  0.00  0.00    -0.455 OA
BRANCH  26  27
ATOM     27  C   LIG A   1      -8.871   2.557 124.617  0.00  0.00    +0.304 C 
ATOM     28  C   LIG A   1      -9.136   2.272 123.175  0.00  0.00    +0.136 C 
ATOM     29  O   LIG A   1      -8.874   3.685 125.112  0.00  0.00    -0.251 OA
ENDBRANCH  26  27
ENDBRANCH   9  26
TORSDOF 4
ENDMDL
MODEL 9
REMARK VINA RESULT:      -7.3      3.200      5.349
REMARK  Name = NuBBE_990
REMARK  7 active torsions:
REMARK  status: ('A' for Active; 'I' for Inactive)
REMARK    1  A    between atoms: C_1  and  C_2
REMARK    2  A    between atoms: C_9  and  O_23
REMARK    3  A    between atoms: C_11  and  O_19
REMARK    4  A    between atoms: O_19  and  C_20
REMARK    5  A    between atoms: C_20  and  C_21
REMARK    6  A    between atoms: O_23  and  C_24
REMARK    7  A    between atoms: C_24  and  C_25
REMARK                            x       y       z     vdW  Elec       q    Type
REMARK                         _______ _______ _______ _____ _____    ______ ____
ROOT
ATOM      1  C   LIG A   1      -9.304  -3.170 125.837  0.00  0.00    +0.012 C 
ATOM      2  C   LIG A   1      -8.268  -2.105 125.421  0.00  0.00    -0.022 C 
ATOM      3  C   LIG A   1      -6.835  -2.542 125.838  0.00  0.00    +0.006 C 
ATOM      4  C   LIG A   1      -6.502  -2.006 127.236  0.00  0.00    -0.003 C 
ATOM      5  C   LIG A   1      -5.210  -2.573 127.818  0.00  0.00    +0.004 C 
ATOM      6  C   LIG A   1      -5.152  -2.247 129.305  0.00  0.00    +0.004 C 
ATOM      7  C   LIG A   1      -5.311  -0.745 129.595  0.00  0.00    +0.002 C 
ATOM      8  C   LIG A   1      -5.323  -0.511 131.121  0.00  0.00    +0.055 C 
ATOM      9  C   LIG A   1      -6.731  -0.494 131.722  0.00  0.00    +0.248 C 
ATOM     10  C   LIG A   1      -7.649   0.410 130.837  0.00  0.00    +0.253 C 
ATOM     11  C   LIG A   1      -7.854  -0.300 129.501  0.00  0.00    +0.092 C 
ATOM     12  C   LIG A   1      -6.508  -0.044 128.833  0.00  0.00    +0.006 C 
ATOM     13  C   LIG A   1      -6.475  -0.454 127.330  0.00  0.00    +0.001 C 
ATOM     14  C   LIG A   1      -7.541   0.179 126.406  0.00  0.00    +0.005 C 
ATOM     15  C   LIG A   1      -8.696  -0.761 126.070  0.00  0.00    +0.007 C 
ATOM     16  C   LIG A   1      -6.420   1.463 129.131  0.00  0.00    +0.172 C 
ATOM     17  O   LIG A   1      -6.994   1.641 130.450  0.00  0.00    -0.336 OA
ATOM     18  C   LIG A   1      -5.869  -2.088 124.739  0.00  0.00    +0.078 C 
ATOM     19  C   LIG A   1      -6.771  -1.801 123.576  0.00  0.00    +0.134 C 
ATOM     20  C   LIG A   1      -8.222  -2.029 123.884  0.00  0.00    +0.081 C 
ATOM     21  O   LIG A   1      -6.363  -1.452 122.476  0.00  0.00    -0.297 OA
ENDROOT
BRANCH  10  22
ATOM     22  O   LIG A   1      -8.942   0.622 131.419  0.00  0.00    -0.429 OA
BRANCH  22  23
ATOM     23  C   LIG A   1      -9.105   1.762 132.141  0.00  0.00    +0.306 C 
ATOM     24  C   LIG A   1     -10.073   2.664 131.447  0.00  0.00    +0.136 C 
ATOM     25  O   LIG A   1      -8.588   2.025 133.222  0.00  0.00    -0.251 OA
ENDBRANCH  22  23
ENDBRANCH  10  22
BRANCH   9  26
ATOM     26  O   LIG A   1      -7.345  -1.807 131.804  0.00  0.00    -0.455 OA
BRANCH  26  27
ATOM     27  C   LIG A   1      -7.273  -2.467 132.983  0.00  0.00    +0.304 C 
ATOM     28  C   LIG A   1      -6.413  -3.680 132.839  0.00  0.00    +0.136 C 
ATOM     29  O   LIG A   1      -7.881  -2.167 134.011  0.00  0.00    -0.251 OA
ENDBRANCH  26  27
ENDBRANCH   9  26
TORSDOF 4
ENDMDL
