MODEL 1
REMARK VINA RESULT:      -7.3      0.000      0.000
REMARK  Name = NuBBE_1844
REMARK  6 active torsions:
REMARK  status: ('A' for Active; 'I' for Inactive)
REMARK    1  A    between atoms: O_1  and  C_2
REMARK    2  A    between atoms: C_3  and  C_4
REMARK    3  A    between atoms: C_4  and  C_5
REMARK    4  A    between atoms: C_5  and  C_6
REMARK    5  A    between atoms: C_6  and  C_7
REMARK    6  A    between atoms: C_18  and  O_19
REMARK                            x       y       z     vdW  Elec       q    Type
REMARK                         _______ _______ _______ _____ _____    ______ ____
ROOT
ATOM      1  C   LIG A   1      -9.130  -0.167 123.487  0.00  0.00    +0.039 C 
ENDROOT
BRANCH   1   3
ATOM      2  C   LIG A   1      -8.521  -2.544 124.189  0.00  0.00    +0.123 A 
ATOM      3  C   LIG A   1      -8.145  -1.304 123.655  0.00  0.00    -0.006 A 
ATOM      4  C   LIG A   1      -6.801  -1.123 123.285  0.00  0.00    +0.011 A 
ATOM      5  C   LIG A   1      -5.874  -2.161 123.404  0.00  0.00    +0.046 A 
ATOM      6  C   LIG A   1      -6.286  -3.386 123.912  0.00  0.00    +0.120 A 
ATOM      7  C   LIG A   1      -7.601  -3.584 124.318  0.00  0.00    +0.091 A 
BRANCH   2   8
ATOM      8  O   LIG A   1      -9.815  -2.733 124.589  0.00  0.00    -0.506 OA
ATOM      9  H   LIG A   1     -10.013  -3.683 124.553  0.00  0.00    +0.292 HD
ENDBRANCH   2   8
BRANCH   6  10
ATOM     10  O   LIG A   1      -5.420  -4.433 124.028  0.00  0.00    -0.507 OA
ATOM     11  H   LIG A   1      -4.582  -4.101 124.392  0.00  0.00    +0.292 HD
ENDBRANCH   6  10
ENDBRANCH   1   3
BRANCH   1  12
ATOM     12  C   LIG A   1      -8.515   1.202 123.812  0.00  0.00    +0.009 C 
BRANCH  12  13
ATOM     13  C   LIG A   1      -9.139   2.310 122.961  0.00  0.00    +0.035 C 
BRANCH  13  14
ATOM     14  C   LIG A   1      -8.106   3.022 122.118  0.00  0.00    -0.044 A 
ATOM     15  C   LIG A   1      -8.460   3.554 120.867  0.00  0.00    +0.053 A 
ATOM     16  C   LIG A   1      -7.478   4.170 120.120  0.00  0.00    +0.167 A 
ATOM     17  O   LIG A   1      -7.647   4.726 118.889  0.00  0.00    -0.453 OA
ATOM     18  C   LIG A   1      -6.297   5.139 118.593  0.00  0.00    +0.466 C 
ATOM     19  O   LIG A   1      -5.374   4.909 119.678  0.00  0.00    -0.453 OA
ATOM     20  C   LIG A   1      -6.184   4.276 120.568  0.00  0.00    +0.166 A 
ATOM     21  C   LIG A   1      -5.798   3.772 121.793  0.00  0.00    +0.050 A 
ATOM     22  C   LIG A   1      -6.771   3.135 122.569  0.00  0.00    +0.007 A 
ENDBRANCH  13  14
ENDBRANCH  12  13
ENDBRANCH   1  12
TORSDOF 6
ENDMDL
MODEL 2
REMARK VINA RESULT:      -7.3      4.816      7.800
REMARK  Name = NuBBE_1844
REMARK  6 active torsions:
REMARK  status: ('A' for Active; 'I' for Inactive)
REMARK    1  A    between atoms: O_1  and  C_2
REMARK    2  A    between atoms: C_3  and  C_4
REMARK    3  A    between atoms: C_4  and  C_5
REMARK    4  A    between atoms: C_5  and  C_6
REMARK    5  A    between atoms: C_6  and  C_7
REMARK    6  A    between atoms: C_18  and  O_19
REMARK                            x       y       z     vdW  Elec       q    Type
REMARK                         _______ _______ _______ _____ _____    ______ ____
ROOT
ATOM      1  C   LIG A   1      -6.477   3.081 122.923  0.00  0.00    +0.039 C 
ENDROOT
BRANCH   1   3
ATOM      2  C   LIG A   1      -7.335   3.905 120.666  0.00  0.00    +0.123 A 
ATOM      3  C   LIG A   1      -6.299   3.798 121.603  0.00  0.00    -0.006 A 
ATOM      4  C   LIG A   1      -5.054   4.369 121.282  0.00  0.00    +0.011 A 
ATOM      5  C   LIG A   1      -4.866   5.060 120.083  0.00  0.00    +0.046 A 
ATOM      6  C   LIG A   1      -5.922   5.171 119.188  0.00  0.00    +0.120 A 
ATOM      7  C   LIG A   1      -7.154   4.589 119.463  0.00  0.00    +0.091 A 
BRANCH   2   8
ATOM      8  O   LIG A   1      -8.544   3.329 120.940  0.00  0.00    -0.506 OA
ATOM      9  H   LIG A   1      -8.389   2.437 121.290  0.00  0.00    +0.292 HD
ENDBRANCH   2   8
BRANCH   6  10
ATOM     10  O   LIG A   1      -5.789   5.852 118.014  0.00  0.00    -0.507 OA
ATOM     11  H   LIG A   1      -6.131   5.297 117.295  0.00  0.00    +0.292 HD
ENDBRANCH   6  10
ENDBRANCH   1   3
BRANCH   1  12
ATOM     12  C   LIG A   1      -5.995   3.914 124.120  0.00  0.00    +0.009 C 
BRANCH  12  13
ATOM     13  C   LIG A   1      -5.483   3.021 125.252  0.00  0.00    +0.035 C 
BRANCH  13  14
ATOM     14  C   LIG A   1      -4.539   3.761 126.171  0.00  0.00    -0.044 A 
ATOM     15  C   LIG A   1      -4.923   4.987 126.739  0.00  0.00    +0.053 A 
ATOM     16  C   LIG A   1      -4.018   5.642 127.548  0.00  0.00    +0.167 A 
ATOM     17  O   LIG A   1      -4.223   6.837 128.165  0.00  0.00    -0.453 OA
ATOM     18  C   LIG A   1      -2.941   7.039 128.794  0.00  0.00    +0.466 C 
ATOM     19  O   LIG A   1      -2.034   5.930 128.620  0.00  0.00    -0.453 OA
ATOM     20  C   LIG A   1      -2.772   5.126 127.809  0.00  0.00    +0.166 A 
ATOM     21  C   LIG A   1      -2.359   3.923 127.275  0.00  0.00    +0.050 A 
ATOM     22  C   LIG A   1      -3.253   3.240 126.444  0.00  0.00    +0.007 A 
ENDBRANCH  13  14
ENDBRANCH  12  13
ENDBRANCH   1  12
TORSDOF 6
ENDMDL
MODEL 3
REMARK VINA RESULT:      -7.1      3.465      7.769
REMARK  Name = NuBBE_1844
REMARK  6 active torsions:
REMARK  status: ('A' for Active; 'I' for Inactive)
REMARK    1  A    between atoms: O_1  and  C_2
REMARK    2  A    between atoms: C_3  and  C_4
REMARK    3  A    between atoms: C_4  and  C_5
REMARK    4  A    between atoms: C_5  and  C_6
REMARK    5  A    between atoms: C_6  and  C_7
REMARK    6  A    between atoms: C_18  and  O_19
REMARK                            x       y       z     vdW  Elec       q    Type
REMARK                         _______ _______ _______ _____ _____    ______ ____
ROOT
ATOM      1  C   LIG A   1      -8.944  -1.771 123.041  0.00  0.00    +0.039 C 
ENDROOT
BRANCH   1   3
ATOM      2  C   LIG A   1      -9.733   0.655 122.965  0.00  0.00    +0.123 A 
ATOM      3  C   LIG A   1      -8.717  -0.283 123.195  0.00  0.00    -0.006 A 
ATOM      4  C   LIG A   1      -7.447   0.194 123.565  0.00  0.00    +0.011 A 
ATOM      5  C   LIG A   1      -7.213   1.559 123.740  0.00  0.00    +0.046 A 
ATOM      6  C   LIG A   1      -8.249   2.460 123.530  0.00  0.00    +0.120 A 
ATOM      7  C   LIG A   1      -9.506   2.021 123.132  0.00  0.00    +0.091 A 
BRANCH   2   8
ATOM      8  O   LIG A   1     -10.967   0.218 122.572  0.00  0.00    -0.506 OA
ATOM      9  H   LIG A   1     -11.330  -0.352 123.269  0.00  0.00    +0.292 HD
ENDBRANCH   2   8
BRANCH   6  10
ATOM     10  O   LIG A   1      -8.070   3.801 123.708  0.00  0.00    -0.507 OA
ATOM     11  H   LIG A   1      -8.002   3.979 124.660  0.00  0.00    +0.292 HD
ENDBRANCH   6  10
ENDBRANCH   1   3
BRANCH   1  12
ATOM     12  C   LIG A   1      -8.085  -2.604 124.003  0.00  0.00    +0.009 C 
BRANCH  12  13
ATOM     13  C   LIG A   1      -8.950  -3.347 125.023  0.00  0.00    +0.035 C 
BRANCH  13  14
ATOM     14  C   LIG A   1      -8.603  -2.965 126.443  0.00  0.00    -0.044 A 
ATOM     15  C   LIG A   1      -7.952  -1.749 126.708  0.00  0.00    +0.053 A 
ATOM     16  C   LIG A   1      -7.627  -1.455 128.015  0.00  0.00    +0.167 A 
ATOM     17  O   LIG A   1      -6.989  -0.332 128.443  0.00  0.00    -0.453 OA
ATOM     18  C   LIG A   1      -6.870  -0.609 129.853  0.00  0.00    +0.466 C 
ATOM     19  O   LIG A   1      -7.515  -1.836 130.254  0.00  0.00    -0.453 OA
ATOM     20  C   LIG A   1      -7.927  -2.310 129.047  0.00  0.00    +0.166 A 
ATOM     21  C   LIG A   1      -8.570  -3.511 128.830  0.00  0.00    +0.050 A 
ATOM     22  C   LIG A   1      -8.905  -3.839 127.512  0.00  0.00    +0.007 A 
ENDBRANCH  13  14
ENDBRANCH  12  13
ENDBRANCH   1  12
TORSDOF 6
ENDMDL
MODEL 4
REMARK VINA RESULT:      -7.1      8.492     10.854
REMARK  Name = NuBBE_1844
REMARK  6 active torsions:
REMARK  status: ('A' for Active; 'I' for Inactive)
REMARK    1  A    between atoms: O_1  and  C_2
REMARK    2  A    between atoms: C_3  and  C_4
REMARK    3  A    between atoms: C_4  and  C_5
REMARK    4  A    between atoms: C_5  and  C_6
REMARK    5  A    between atoms: C_6  and  C_7
REMARK    6  A    between atoms: C_18  and  O_19
REMARK                            x       y       z     vdW  Elec       q    Type
REMARK                         _______ _______ _______ _____ _____    ______ ____
ROOT
ATOM      1  C   LIG A   1     -12.054   7.793 130.800  0.00  0.00    +0.039 C 
ENDROOT
BRANCH   1   3
ATOM      2  C   LIG A   1     -10.977   7.871 128.488  0.00  0.00    +0.123 A 
ATOM      3  C   LIG A   1     -12.099   7.644 129.295  0.00  0.00    -0.006 A 
ATOM      4  C   LIG A   1     -13.304   7.282 128.667  0.00  0.00    +0.011 A 
ATOM      5  C   LIG A   1     -13.372   7.110 127.283  0.00  0.00    +0.046 A 
ATOM      6  C   LIG A   1     -12.234   7.317 126.515  0.00  0.00    +0.120 A 
ATOM      7  C   LIG A   1     -11.037   7.708 127.104  0.00  0.00    +0.091 A 
BRANCH   2   8
ATOM      8  O   LIG A   1      -9.802   8.257 129.072  0.00  0.00    -0.506 OA
ATOM      9  H   LIG A   1      -9.087   8.158 128.423  0.00  0.00    +0.292 HD
ENDBRANCH   2   8
BRANCH   6  10
ATOM     10  O   LIG A   1     -12.249   7.143 125.162  0.00  0.00    -0.507 OA
ATOM     11  H   LIG A   1     -12.884   6.439 124.949  0.00  0.00    +0.292 HD
ENDBRANCH   6  10
ENDBRANCH   1   3
BRANCH   1  12
ATOM     12  C   LIG A   1     -12.041   6.442 131.530  0.00  0.00    +0.009 C 
BRANCH  12  13
ATOM     13  C   LIG A   1     -10.753   6.255 132.334  0.00  0.00    +0.035 C 
BRANCH  13  14
ATOM     14  C   LIG A   1      -9.583   5.894 131.449  0.00  0.00    -0.044 A 
ATOM     15  C   LIG A   1      -9.754   4.992 130.386  0.00  0.00    +0.053 A 
ATOM     16  C   LIG A   1      -8.652   4.669 129.622  0.00  0.00    +0.167 A 
ATOM     17  O   LIG A   1      -8.639   3.808 128.568  0.00  0.00    -0.453 OA
ATOM     18  C   LIG A   1      -7.238   3.821 128.225  0.00  0.00    +0.466 C 
ATOM     19  O   LIG A   1      -6.463   4.749 129.013  0.00  0.00    -0.453 OA
ATOM     20  C   LIG A   1      -7.412   5.204 129.874  0.00  0.00    +0.166 A 
ATOM     21  C   LIG A   1      -7.204   6.097 130.904  0.00  0.00    +0.050 A 
ATOM     22  C   LIG A   1      -8.302   6.438 131.701  0.00  0.00    +0.007 A 
ENDBRANCH  13  14
ENDBRANCH  12  13
ENDBRANCH   1  12
TORSDOF 6
ENDMDL
MODEL 5
REMARK VINA RESULT:      -6.9      1.963      3.267
REMARK  Name = NuBBE_1844
REMARK  6 active torsions:
REMARK  status: ('A' for Active; 'I' for Inactive)
REMARK    1  A    between atoms: O_1  and  C_2
REMARK    2  A    between atoms: C_3  and  C_4
REMARK    3  A    between atoms: C_4  and  C_5
REMARK    4  A    between atoms: C_5  and  C_6
REMARK    5  A    between atoms: C_6  and  C_7
REMARK    6  A    between atoms: C_18  and  O_19
REMARK                            x       y       z     vdW  Elec       q    Type
REMARK                         _______ _______ _______ _____ _____    ______ ____
ROOT
ATOM      1  C   LIG A   1      -5.904  -0.528 125.373  0.00  0.00    +0.039 C 
ENDROOT
BRANCH   1   3
ATOM      2  C   LIG A   1      -7.339  -1.424 123.463  0.00  0.00    +0.123 A 
ATOM      3  C   LIG A   1      -7.056  -1.346 124.833  0.00  0.00    -0.006 A 
ATOM      4  C   LIG A   1      -7.893  -2.044 125.723  0.00  0.00    +0.011 A 
ATOM      5  C   LIG A   1      -8.949  -2.829 125.254  0.00  0.00    +0.046 A 
ATOM      6  C   LIG A   1      -9.184  -2.906 123.887  0.00  0.00    +0.120 A 
ATOM      7  C   LIG A   1      -8.395  -2.200 122.986  0.00  0.00    +0.091 A 
BRANCH   2   8
ATOM      8  O   LIG A   1      -6.561  -0.727 122.581  0.00  0.00    -0.506 OA
ATOM      9  H   LIG A   1      -6.348   0.136 122.972  0.00  0.00    +0.292 HD
ENDBRANCH   2   8
BRANCH   6  10
ATOM     10  O   LIG A   1     -10.193  -3.674 123.383  0.00  0.00    -0.507 OA
ATOM     11  H   LIG A   1     -10.889  -3.748 124.056  0.00  0.00    +0.292 HD
ENDBRANCH   6  10
ENDBRANCH   1   3
BRANCH   1  12
ATOM     12  C   LIG A   1      -6.367   0.627 126.272  0.00  0.00    +0.009 C 
BRANCH  12  13
ATOM     13  C   LIG A   1      -5.999   1.985 125.670  0.00  0.00    +0.035 C 
BRANCH  13  14
ATOM     14  C   LIG A   1      -6.848   2.316 124.465  0.00  0.00    -0.044 A 
ATOM     15  C   LIG A   1      -6.266   2.907 123.331  0.00  0.00    +0.053 A 
ATOM     16  C   LIG A   1      -7.084   3.219 122.266  0.00  0.00    +0.167 A 
ATOM     17  O   LIG A   1      -6.687   3.802 121.103  0.00  0.00    -0.453 OA
ATOM     18  C   LIG A   1      -7.952   3.937 120.423  0.00  0.00    +0.466 C 
ATOM     19  O   LIG A   1      -9.058   3.354 121.145  0.00  0.00    -0.453 OA
ATOM     20  C   LIG A   1      -8.434   2.964 122.289  0.00  0.00    +0.166 A 
ATOM     21  C   LIG A   1      -9.043   2.379 123.380  0.00  0.00    +0.050 A 
ATOM     22  C   LIG A   1      -8.238   2.059 124.478  0.00  0.00    +0.007 A 
ENDBRANCH  13  14
ENDBRANCH  12  13
ENDBRANCH   1  12
TORSDOF 6
ENDMDL
MODEL 6
REMARK VINA RESULT:      -6.9      9.809     11.217
REMARK  Name = NuBBE_1844
REMARK  6 active torsions:
REMARK  status: ('A' for Active; 'I' for Inactive)
REMARK    1  A    between atoms: O_1  and  C_2
REMARK    2  A    between atoms: C_3  and  C_4
REMARK    3  A    between atoms: C_4  and  C_5
REMARK    4  A    between atoms: C_5  and  C_6
REMARK    5  A    between atoms: C_6  and  C_7
REMARK    6  A    between atoms: C_18  and  O_19
REMARK                            x       y       z     vdW  Elec       q    Type
REMARK                         _______ _______ _______ _____ _____    ______ ____
ROOT
ATOM      1  C   LIG A   1      -9.310   6.304 131.399  0.00  0.00    +0.039 C 
ENDROOT
BRANCH   1   3
ATOM      2  C   LIG A   1     -11.770   6.807 130.944  0.00  0.00    +0.123 A 
ATOM      3  C   LIG A   1     -10.420   6.941 130.592  0.00  0.00    -0.006 A 
ATOM      4  C   LIG A   1     -10.107   7.681 129.438  0.00  0.00    +0.011 A 
ATOM      5  C   LIG A   1     -11.108   8.302 128.687  0.00  0.00    +0.046 A 
ATOM      6  C   LIG A   1     -12.434   8.171 129.079  0.00  0.00    +0.120 A 
ATOM      7  C   LIG A   1     -12.776   7.418 130.196  0.00  0.00    +0.091 A 
BRANCH   2   8
ATOM      8  O   LIG A   1     -12.102   6.063 132.042  0.00  0.00    -0.506 OA
ATOM      9  H   LIG A   1     -12.051   6.632 132.827  0.00  0.00    +0.292 HD
ENDBRANCH   2   8
BRANCH   6  10
ATOM     10  O   LIG A   1     -13.441   8.776 128.386  0.00  0.00    -0.507 OA
ATOM     11  H   LIG A   1     -13.928   8.095 127.894  0.00  0.00    +0.292 HD
ENDBRANCH   6  10
ENDBRANCH   1   3
BRANCH   1  12
ATOM     12  C   LIG A   1      -7.943   6.953 131.140  0.00  0.00    +0.009 C 
BRANCH  12  13
ATOM     13  C   LIG A   1      -6.837   6.266 131.944  0.00  0.00    +0.035 C 
BRANCH  13  14
ATOM     14  C   LIG A   1      -5.602   6.019 131.109  0.00  0.00    -0.044 A 
ATOM     15  C   LIG A   1      -5.045   7.060 130.347  0.00  0.00    +0.053 A 
ATOM     16  C   LIG A   1      -3.936   6.782 129.577  0.00  0.00    +0.167 A 
ATOM     17  O   LIG A   1      -3.282   7.667 128.776  0.00  0.00    -0.453 OA
ATOM     18  C   LIG A   1      -2.279   6.811 128.191  0.00  0.00    +0.466 C 
ATOM     19  O   LIG A   1      -2.293   5.467 128.717  0.00  0.00    -0.453 OA
ATOM     20  C   LIG A   1      -3.371   5.531 129.543  0.00  0.00    +0.166 A 
ATOM     21  C   LIG A   1      -3.884   4.484 130.281  0.00  0.00    +0.050 A 
ATOM     22  C   LIG A   1      -5.014   4.735 131.065  0.00  0.00    +0.007 A 
ENDBRANCH  13  14
ENDBRANCH  12  13
ENDBRANCH   1  12
TORSDOF 6
ENDMDL
MODEL 7
REMARK VINA RESULT:      -6.8     10.136     11.188
REMARK  Name = NuBBE_1844
REMARK  6 active torsions:
REMARK  status: ('A' for Active; 'I' for Inactive)
REMARK    1  A    between atoms: O_1  and  C_2
REMARK    2  A    between atoms: C_3  and  C_4
REMARK    3  A    between atoms: C_4  and  C_5
REMARK    4  A    between atoms: C_5  and  C_6
REMARK    5  A    between atoms: C_6  and  C_7
REMARK    6  A    between atoms: C_18  and  O_19
REMARK                            x       y       z     vdW  Elec       q    Type
REMARK                         _______ _______ _______ _____ _____    ______ ____
ROOT
ATOM      1  C   LIG A   1      -5.716   6.270 132.242  0.00  0.00    +0.039 C 
ENDROOT
BRANCH   1   3
ATOM      2  C   LIG A   1      -3.707   5.443 130.903  0.00  0.00    +0.123 A 
ATOM      3  C   LIG A   1      -4.682   6.420 131.147  0.00  0.00    -0.006 A 
ATOM      4  C   LIG A   1      -4.674   7.578 130.349  0.00  0.00    +0.011 A 
ATOM      5  C   LIG A   1      -3.749   7.733 129.314  0.00  0.00    +0.046 A 
ATOM      6  C   LIG A   1      -2.813   6.734 129.082  0.00  0.00    +0.120 A 
ATOM      7  C   LIG A   1      -2.776   5.593 129.876  0.00  0.00    +0.091 A 
BRANCH   2   8
ATOM      8  O   LIG A   1      -3.673   4.324 131.688  0.00  0.00    -0.506 OA
ATOM      9  H   LIG A   1      -4.481   4.300 132.226  0.00  0.00    +0.292 HD
ENDBRANCH   2   8
BRANCH   6  10
ATOM     10  O   LIG A   1      -1.903   6.835 128.071  0.00  0.00    -0.507 OA
ATOM     11  H   LIG A   1      -1.192   6.193 128.231  0.00  0.00    +0.292 HD
ENDBRANCH   6  10
ENDBRANCH   1   3
BRANCH   1  12
ATOM     12  C   LIG A   1      -6.978   5.535 131.768  0.00  0.00    +0.009 C 
BRANCH  12  13
ATOM     13  C   LIG A   1      -8.207   5.960 132.576  0.00  0.00    +0.035 C 
BRANCH  13  14
ATOM     14  C   LIG A   1      -9.331   6.433 131.684  0.00  0.00    -0.044 A 
ATOM     15  C   LIG A   1      -9.045   7.069 130.464  0.00  0.00    +0.053 A 
ATOM     16  C   LIG A   1     -10.102   7.510 129.696  0.00  0.00    +0.167 A 
ATOM     17  O   LIG A   1     -10.003   8.152 128.501  0.00  0.00    -0.453 OA
ATOM     18  C   LIG A   1     -11.393   8.417 128.220  0.00  0.00    +0.466 C 
ATOM     19  O   LIG A   1     -12.293   7.854 129.197  0.00  0.00    -0.453 OA
ATOM     20  C   LIG A   1     -11.407   7.340 130.091  0.00  0.00    +0.166 A 
ATOM     21  C   LIG A   1     -11.729   6.716 131.278  0.00  0.00    +0.050 A 
ATOM     22  C   LIG A   1     -10.677   6.265 132.081  0.00  0.00    +0.007 A 
ENDBRANCH  13  14
ENDBRANCH  12  13
ENDBRANCH   1  12
TORSDOF 6
ENDMDL
MODEL 8
REMARK VINA RESULT:      -6.8      4.841      7.539
REMARK  Name = NuBBE_1844
REMARK  6 active torsions:
REMARK  status: ('A' for Active; 'I' for Inactive)
REMARK    1  A    between atoms: O_1  and  C_2
REMARK    2  A    between atoms: C_3  and  C_4
REMARK    3  A    between atoms: C_4  and  C_5
REMARK    4  A    between atoms: C_5  and  C_6
REMARK    5  A    between atoms: C_6  and  C_7
REMARK    6  A    between atoms: C_18  and  O_19
REMARK                            x       y       z     vdW  Elec       q    Type
REMARK                         _______ _______ _______ _____ _____    ______ ____
ROOT
ATOM      1  C   LIG A   1      -6.790  -2.797 128.424  0.00  0.00    +0.039 C 
ENDROOT
BRANCH   1   3
ATOM      2  C   LIG A   1      -4.571  -2.513 129.651  0.00  0.00    +0.123 A 
ATOM      3  C   LIG A   1      -5.793  -3.181 129.495  0.00  0.00    -0.006 A 
ATOM      4  C   LIG A   1      -6.077  -4.251 130.361  0.00  0.00    +0.011 A 
ATOM      5  C   LIG A   1      -5.189  -4.613 131.376  0.00  0.00    +0.046 A 
ATOM      6  C   LIG A   1      -3.998  -3.912 131.520  0.00  0.00    +0.120 A 
ATOM      7  C   LIG A   1      -3.675  -2.871 130.658  0.00  0.00    +0.091 A 
BRANCH   2   8
ATOM      8  O   LIG A   1      -4.257  -1.490 128.799  0.00  0.00    -0.506 OA
ATOM      9  H   LIG A   1      -4.262  -1.832 127.891  0.00  0.00    +0.292 HD
ENDBRANCH   2   8
BRANCH   6  10
ATOM     10  O   LIG A   1      -3.110  -4.219 132.509  0.00  0.00    -0.507 OA
ATOM     11  H   LIG A   1      -2.467  -3.495 132.581  0.00  0.00    +0.292 HD
ENDBRANCH   6  10
ENDBRANCH   1   3
BRANCH   1  12
ATOM     12  C   LIG A   1      -8.233  -3.162 128.800  0.00  0.00    +0.009 C 
BRANCH  12  13
ATOM     13  C   LIG A   1      -8.914  -3.964 127.689  0.00  0.00    +0.035 C 
BRANCH  13  14
ATOM     14  C   LIG A   1      -8.769  -3.295 126.341  0.00  0.00    -0.044 A 
ATOM     15  C   LIG A   1      -9.240  -1.986 126.148  0.00  0.00    +0.053 A 
ATOM     16  C   LIG A   1      -9.113  -1.427 124.894  0.00  0.00    +0.167 A 
ATOM     17  O   LIG A   1      -9.526  -0.181 124.534  0.00  0.00    -0.453 OA
ATOM     18  C   LIG A   1      -9.199  -0.185 123.129  0.00  0.00    +0.466 C 
ATOM     19  O   LIG A   1      -8.521  -1.384 122.699  0.00  0.00    -0.453 OA
ATOM     20  C   LIG A   1      -8.541  -2.110 123.849  0.00  0.00    +0.166 A 
ATOM     21  C   LIG A   1      -8.060  -3.394 123.999  0.00  0.00    +0.050 A 
ATOM     22  C   LIG A   1      -8.183  -3.990 125.259  0.00  0.00    +0.007 A 
ENDBRANCH  13  14
ENDBRANCH  12  13
ENDBRANCH   1  12
TORSDOF 6
ENDMDL
MODEL 9
REMARK VINA RESULT:      -6.8      1.917      2.665
REMARK  Name = NuBBE_1844
REMARK  6 active torsions:
REMARK  status: ('A' for Active; 'I' for Inactive)
REMARK    1  A    between atoms: O_1  and  C_2
REMARK    2  A    between atoms: C_3  and  C_4
REMARK    3  A    between atoms: C_4  and  C_5
REMARK    4  A    between atoms: C_5  and  C_6
REMARK    5  A    between atoms: C_6  and  C_7
REMARK    6  A    between atoms: C_18  and  O_19
REMARK                            x       y       z     vdW  Elec       q    Type
REMARK                         _______ _______ _______ _____ _____    ______ ____
ROOT
ATOM      1  C   LIG A   1      -5.873  -0.683 125.176  0.00  0.00    +0.039 C 
ENDROOT
BRANCH   1   3
ATOM      2  C   LIG A   1      -7.808  -2.312 125.516  0.00  0.00    +0.123 A 
ATOM      3  C   LIG A   1      -7.045  -1.496 124.670  0.00  0.00    -0.006 A 
ATOM      4  C   LIG A   1      -7.384  -1.457 123.306  0.00  0.00    +0.011 A 
ATOM      5  C   LIG A   1      -8.475  -2.175 122.813  0.00  0.00    +0.046 A 
ATOM      6  C   LIG A   1      -9.227  -2.953 123.685  0.00  0.00    +0.120 A 
ATOM      7  C   LIG A   1      -8.896  -3.038 125.032  0.00  0.00    +0.091 A 
BRANCH   2   8
ATOM      8  O   LIG A   1      -7.477  -2.393 126.841  0.00  0.00    -0.506 OA
ATOM      9  H   LIG A   1      -7.986  -1.724 127.328  0.00  0.00    +0.292 HD
ENDBRANCH   2   8
BRANCH   6  10
ATOM     10  O   LIG A   1     -10.312  -3.657 123.251  0.00  0.00    -0.507 OA
ATOM     11  H   LIG A   1     -10.043  -4.202 122.493  0.00  0.00    +0.292 HD
ENDBRANCH   6  10
ENDBRANCH   1   3
BRANCH   1  12
ATOM     12  C   LIG A   1      -6.311   0.588 125.919  0.00  0.00    +0.009 C 
BRANCH  12  13
ATOM     13  C   LIG A   1      -7.343   1.378 125.112  0.00  0.00    +0.035 C 
BRANCH  13  14
ATOM     14  C   LIG A   1      -6.691   2.396 124.205  0.00  0.00    -0.044 A 
ATOM     15  C   LIG A   1      -6.917   2.354 122.819  0.00  0.00    +0.053 A 
ATOM     16  C   LIG A   1      -6.278   3.284 122.026  0.00  0.00    +0.167 A 
ATOM     17  O   LIG A   1      -6.377   3.377 120.672  0.00  0.00    -0.453 OA
ATOM     18  C   LIG A   1      -5.461   4.460 120.409  0.00  0.00    +0.466 C 
ATOM     19  O   LIG A   1      -4.909   5.049 121.605  0.00  0.00    -0.453 OA
ATOM     20  C   LIG A   1      -5.443   4.237 122.556  0.00  0.00    +0.166 A 
ATOM     21  C   LIG A   1      -5.200   4.315 123.911  0.00  0.00    +0.050 A 
ATOM     22  C   LIG A   1      -5.828   3.380 124.739  0.00  0.00    +0.007 A 
ENDBRANCH  13  14
ENDBRANCH  12  13
ENDBRANCH   1  12
TORSDOF 6
ENDMDL
