MODEL 1
REMARK VINA RESULT:      -9.1      0.000      0.000
REMARK  Name = NuBBE_1440
REMARK  8 active torsions:
REMARK  status: ('A' for Active; 'I' for Inactive)
REMARK    1  A    between atoms: C_6  and  C_7
REMARK    2  A    between atoms: C_8  and  O_17
REMARK    3  A    between atoms: C_9  and  C_16
REMARK    4  A    between atoms: C_12  and  O_14
REMARK    5  A    between atoms: C_19  and  C_20
REMARK    6  A    between atoms: C_19  and  O_39
REMARK    7  A    between atoms: C_23  and  C_28
REMARK    8  A    between atoms: C_32  and  C_34
REMARK                            x       y       z     vdW  Elec       q    Type
REMARK                         _______ _______ _______ _____ _____    ______ ____
ROOT
ATOM      1  O   LIG A   1     -12.015   6.330 132.104  0.00  0.00    -0.293 OA
ATOM      2  C   LIG A   1     -10.974   5.774 131.749  0.00  0.00    +0.182 C 
ATOM      3  C   LIG A   1      -9.839   5.582 132.743  0.00  0.00    +0.111 C 
ATOM      4  C   LIG A   1      -8.596   6.022 132.012  0.00  0.00    +0.135 C 
ATOM      5  C   LIG A   1      -8.237   5.132 130.804  0.00  0.00    +0.038 C 
ATOM      6  C   LIG A   1      -8.167   3.653 131.249  0.00  0.00    +0.017 C 
ATOM      7  C   LIG A   1      -9.371   5.302 129.728  0.00  0.00    +0.156 C 
ATOM      8  C   LIG A   1     -10.816   5.182 130.318  0.00  0.00    +0.200 C 
ATOM      9  O   LIG A   1     -11.641   5.922 129.394  0.00  0.00    -0.446 OA
ATOM     10  C   LIG A   1     -10.911   6.848 128.731  0.00  0.00    +0.340 C 
ATOM     11  C   LIG A   1      -9.434   6.650 128.968  0.00  0.00    +0.259 C 
ATOM     12  O   LIG A   1     -11.383   7.742 128.044  0.00  0.00    -0.248 OA
ATOM     13  C   LIG A   1     -11.453   3.786 130.329  0.00  0.00    +0.067 C 
ATOM     14  C   LIG A   1      -6.797   5.699 130.460  0.00  0.00    +0.064 C 
ATOM     15  C   LIG A   1      -5.569   4.816 130.043  0.00  0.00    +0.101 C 
ATOM     16  C   LIG A   1      -5.243   3.623 130.969  0.00  0.00    +0.044 C 
ATOM     17  C   LIG A   1      -4.322   5.708 129.931  0.00  0.00    +0.130 C 
ATOM     18  O   LIG A   1      -3.682   5.849 128.653  0.00  0.00    -0.361 OA
ATOM     19  C   LIG A   1      -4.147   6.924 130.835  0.00  0.00    +0.011 C 
ATOM     20  C   LIG A   1      -4.999   6.690 132.104  0.00  0.00    +0.042 C 
ATOM     21  C   LIG A   1      -6.471   6.574 131.707  0.00  0.00    +0.126 C 
ATOM     22  O   LIG A   1      -7.367   6.115 132.742  0.00  0.00    -0.372 OA
ATOM     23  C   LIG A   1      -4.594   8.223 130.112  0.00  0.00    +0.015 C 
ATOM     24  C   LIG A   1      -2.993   5.076 129.640  0.00  0.00    +0.155 C 
ATOM     25  C   LIG A   1      -1.974   5.707 130.525  0.00  0.00    +0.043 C 
ATOM     26  C   LIG A   1      -2.587   7.029 131.030  0.00  0.00    +0.034 C 
ENDROOT
BRANCH  26  27
ATOM     27  C   LIG A   1      -2.121   7.467 132.384  0.00  0.00    -0.006 A 
ATOM     28  C   LIG A   1      -1.476   6.675 133.315  0.00  0.00    +0.198 A 
ATOM     29  O   LIG A   1      -1.184   7.378 134.436  0.00  0.00    -0.471 OA
ATOM     30  C   LIG A   1      -1.642   8.638 134.240  0.00  0.00    +0.195 A 
ATOM     31  C   LIG A   1      -2.227   8.747 133.000  0.00  0.00    +0.045 A 
ENDBRANCH  26  27
BRANCH  11  32
ATOM     32  O   LIG A   1      -8.926   7.783 129.649  0.00  0.00    -0.378 OA
ATOM     33  H   LIG A   1      -7.999   7.576 129.888  0.00  0.00    +0.211 HD
ENDBRANCH  11  32
BRANCH   7  34
ATOM     34  O   LIG A   1      -9.161   4.274 128.733  0.00  0.00    -0.380 OA
ATOM     35  H   LIG A   1      -9.144   4.659 127.837  0.00  0.00    +0.210 HD
ENDBRANCH   7  34
BRANCH  15  36
ATOM     36  O   LIG A   1      -5.859   4.263 128.754  0.00  0.00    -0.386 OA
ATOM     37  H   LIG A   1      -6.821   4.100 128.721  0.00  0.00    +0.210 HD
ENDBRANCH  15  36
TORSDOF 4
ENDMDL
MODEL 2
REMARK VINA RESULT:      -8.9      6.939      9.348
REMARK  Name = NuBBE_1440
REMARK  8 active torsions:
REMARK  status: ('A' for Active; 'I' for Inactive)
REMARK    1  A    between atoms: C_6  and  C_7
REMARK    2  A    between atoms: C_8  and  O_17
REMARK    3  A    between atoms: C_9  and  C_16
REMARK    4  A    between atoms: C_12  and  O_14
REMARK    5  A    between atoms: C_19  and  C_20
REMARK    6  A    between atoms: C_19  and  O_39
REMARK    7  A    between atoms: C_23  and  C_28
REMARK    8  A    between atoms: C_32  and  C_34
REMARK                            x       y       z     vdW  Elec       q    Type
REMARK                         _______ _______ _______ _____ _____    ______ ____
ROOT
ATOM      1  O   LIG A   1     -10.009  -2.949 123.377  0.00  0.00    -0.293 OA
ATOM      2  C   LIG A   1      -9.015  -2.687 124.058  0.00  0.00    +0.182 C 
ATOM      3  C   LIG A   1      -8.596  -3.622 125.181  0.00  0.00    +0.111 C 
ATOM      4  C   LIG A   1      -8.324  -2.723 126.361  0.00  0.00    +0.135 C 
ATOM      5  C   LIG A   1      -7.129  -1.770 126.154  0.00  0.00    +0.038 C 
ATOM      6  C   LIG A   1      -5.882  -2.582 125.731  0.00  0.00    +0.017 C 
ATOM      7  C   LIG A   1      -7.510  -0.762 125.010  0.00  0.00    +0.156 C 
ATOM      8  C   LIG A   1      -8.119  -1.453 123.744  0.00  0.00    +0.200 C 
ATOM      9  O   LIG A   1      -8.914  -0.423 123.122  0.00  0.00    -0.446 OA
ATOM     10  C   LIG A   1      -9.297   0.505 124.029  0.00  0.00    +0.340 C 
ATOM     11  C   LIG A   1      -8.570   0.319 125.339  0.00  0.00    +0.259 C 
ATOM     12  O   LIG A   1     -10.135   1.370 123.825  0.00  0.00    -0.248 OA
ATOM     13  C   LIG A   1      -7.141  -1.871 122.637  0.00  0.00    +0.067 C 
ATOM     14  C   LIG A   1      -6.972  -1.199 127.625  0.00  0.00    +0.064 C 
ATOM     15  C   LIG A   1      -5.599  -0.950 128.341  0.00  0.00    +0.101 C 
ATOM     16  C   LIG A   1      -4.605  -2.133 128.337  0.00  0.00    +0.044 C 
ATOM     17  C   LIG A   1      -5.858  -0.530 129.797  0.00  0.00    +0.130 C 
ATOM     18  O   LIG A   1      -5.448   0.780 130.225  0.00  0.00    -0.361 OA
ATOM     19  C   LIG A   1      -7.060  -1.070 130.564  0.00  0.00    +0.011 C 
ATOM     20  C   LIG A   1      -7.472  -2.407 129.906  0.00  0.00    +0.042 C 
ATOM     21  C   LIG A   1      -7.883  -2.149 128.456  0.00  0.00    +0.126 C 
ATOM     22  O   LIG A   1      -8.063  -3.324 127.635  0.00  0.00    -0.372 OA
ATOM     23  C   LIG A   1      -8.241  -0.062 130.530  0.00  0.00    +0.015 C 
ATOM     24  C   LIG A   1      -4.693  -0.329 130.721  0.00  0.00    +0.155 C 
ATOM     25  C   LIG A   1      -5.029  -0.952 132.032  0.00  0.00    +0.043 C 
ATOM     26  C   LIG A   1      -6.560  -1.131 132.057  0.00  0.00    +0.034 C 
ENDROOT
BRANCH  26  27
ATOM     27  C   LIG A   1      -7.050  -2.290 132.868  0.00  0.00    -0.006 A 
ATOM     28  C   LIG A   1      -6.341  -3.445 133.141  0.00  0.00    +0.198 A 
ATOM     29  O   LIG A   1      -7.068  -4.294 133.907  0.00  0.00    -0.471 OA
ATOM     30  C   LIG A   1      -8.261  -3.694 134.137  0.00  0.00    +0.195 A 
ATOM     31  C   LIG A   1      -8.304  -2.465 133.521  0.00  0.00    +0.045 A 
ENDBRANCH  26  27
BRANCH  11  32
ATOM     32  O   LIG A   1      -9.515  -0.008 126.341  0.00  0.00    -0.378 OA
ATOM     33  H   LIG A   1      -9.155   0.330 127.188  0.00  0.00    +0.211 HD
ENDBRANCH  11  32
BRANCH   7  34
ATOM     34  O   LIG A   1      -6.299  -0.059 124.650  0.00  0.00    -0.380 OA
ATOM     35  H   LIG A   1      -6.074   0.608 125.324  0.00  0.00    +0.210 HD
ENDBRANCH   7  34
BRANCH  15  36
ATOM     36  O   LIG A   1      -4.949   0.128 127.657  0.00  0.00    -0.386 OA
ATOM     37  H   LIG A   1      -5.448   0.941 127.863  0.00  0.00    +0.210 HD
ENDBRANCH  15  36
TORSDOF 4
ENDMDL
MODEL 3
REMARK VINA RESULT:      -8.8      1.941      7.594
REMARK  Name = NuBBE_1440
REMARK  8 active torsions:
REMARK  status: ('A' for Active; 'I' for Inactive)
REMARK    1  A    between atoms: C_6  and  C_7
REMARK    2  A    between atoms: C_8  and  O_17
REMARK    3  A    between atoms: C_9  and  C_16
REMARK    4  A    between atoms: C_12  and  O_14
REMARK    5  A    between atoms: C_19  and  C_20
REMARK    6  A    between atoms: C_19  and  O_39
REMARK    7  A    between atoms: C_23  and  C_28
REMARK    8  A    between atoms: C_32  and  C_34
REMARK                            x       y       z     vdW  Elec       q    Type
REMARK                         _______ _______ _______ _____ _____    ______ ____
ROOT
ATOM      1  O   LIG A   1      -2.226   8.235 132.343  0.00  0.00    -0.293 OA
ATOM      2  C   LIG A   1      -2.982   7.383 131.870  0.00  0.00    +0.182 C 
ATOM      3  C   LIG A   1      -3.998   7.775 130.809  0.00  0.00    +0.111 C 
ATOM      4  C   LIG A   1      -5.293   7.142 131.250  0.00  0.00    +0.135 C 
ATOM      5  C   LIG A   1      -5.266   5.599 131.240  0.00  0.00    +0.038 C 
ATOM      6  C   LIG A   1      -4.805   5.095 129.853  0.00  0.00    +0.017 C 
ATOM      7  C   LIG A   1      -4.239   5.130 132.336  0.00  0.00    +0.156 C 
ATOM      8  C   LIG A   1      -2.869   5.884 132.273  0.00  0.00    +0.200 C 
ATOM      9  O   LIG A   1      -2.343   5.781 133.612  0.00  0.00    -0.446 OA
ATOM     10  C   LIG A   1      -3.340   5.603 134.509  0.00  0.00    +0.340 C 
ATOM     11  C   LIG A   1      -4.650   5.311 133.818  0.00  0.00    +0.259 C 
ATOM     12  O   LIG A   1      -3.206   5.685 135.721  0.00  0.00    -0.248 OA
ATOM     13  C   LIG A   1      -1.767   5.260 131.405  0.00  0.00    +0.067 C 
ATOM     14  C   LIG A   1      -6.802   5.293 131.484  0.00  0.00    +0.064 C 
ATOM     15  C   LIG A   1      -7.609   4.161 130.757  0.00  0.00    +0.101 C 
ATOM     16  C   LIG A   1      -7.506   4.133 129.216  0.00  0.00    +0.044 C 
ATOM     17  C   LIG A   1      -9.092   4.269 131.149  0.00  0.00    +0.130 C 
ATOM     18  O   LIG A   1      -9.700   3.184 131.869  0.00  0.00    -0.361 OA
ATOM     19  C   LIG A   1      -9.727   5.624 131.443  0.00  0.00    +0.011 C 
ATOM     20  C   LIG A   1      -8.887   6.701 130.717  0.00  0.00    +0.042 C 
ATOM     21  C   LIG A   1      -7.463   6.687 131.273  0.00  0.00    +0.126 C 
ATOM     22  O   LIG A   1      -6.493   7.464 130.537  0.00  0.00    -0.372 OA
ATOM     23  C   LIG A   1      -9.762   5.902 132.970  0.00  0.00    +0.015 C 
ATOM     24  C   LIG A   1     -10.090   3.353 130.503  0.00  0.00    +0.155 C 
ATOM     25  C   LIG A   1     -11.294   4.154 130.149  0.00  0.00    +0.043 C 
ATOM     26  C   LIG A   1     -11.222   5.450 130.980  0.00  0.00    +0.034 C 
ENDROOT
BRANCH  26  27
ATOM     27  C   LIG A   1     -11.857   6.648 130.343  0.00  0.00    -0.006 A 
ATOM     28  C   LIG A   1     -12.027   6.849 128.986  0.00  0.00    +0.198 A 
ATOM     29  O   LIG A   1     -12.641   8.032 128.741  0.00  0.00    -0.471 OA
ATOM     30  C   LIG A   1     -12.875   8.611 129.944  0.00  0.00    +0.195 A 
ATOM     31  C   LIG A   1     -12.411   7.807 130.959  0.00  0.00    +0.045 A 
ENDBRANCH  26  27
BRANCH  11  32
ATOM     32  O   LIG A   1      -5.557   6.362 134.099  0.00  0.00    -0.378 OA
ATOM     33  H   LIG A   1      -5.550   6.488 135.070  0.00  0.00    +0.211 HD
ENDBRANCH  11  32
BRANCH   7  34
ATOM     34  O   LIG A   1      -4.030   3.713 132.134  0.00  0.00    -0.380 OA
ATOM     35  H   LIG A   1      -4.866   3.223 132.233  0.00  0.00    +0.210 HD
ENDBRANCH   7  34
BRANCH  15  36
ATOM     36  O   LIG A   1      -7.098   2.906 131.222  0.00  0.00    -0.386 OA
ATOM     37  H   LIG A   1      -6.896   3.012 132.170  0.00  0.00    +0.210 HD
ENDBRANCH  15  36
TORSDOF 4
ENDMDL
MODEL 4
REMARK VINA RESULT:      -8.6      5.436      6.985
REMARK  Name = NuBBE_1440
REMARK  8 active torsions:
REMARK  status: ('A' for Active; 'I' for Inactive)
REMARK    1  A    between atoms: C_6  and  C_7
REMARK    2  A    between atoms: C_8  and  O_17
REMARK    3  A    between atoms: C_9  and  C_16
REMARK    4  A    between atoms: C_12  and  O_14
REMARK    5  A    between atoms: C_19  and  C_20
REMARK    6  A    between atoms: C_19  and  O_39
REMARK    7  A    between atoms: C_23  and  C_28
REMARK    8  A    between atoms: C_32  and  C_34
REMARK                            x       y       z     vdW  Elec       q    Type
REMARK                         _______ _______ _______ _____ _____    ______ ____
ROOT
ATOM      1  O   LIG A   1      -9.763  -2.654 125.036  0.00  0.00    -0.293 OA
ATOM      2  C   LIG A   1      -8.810  -1.872 125.084  0.00  0.00    +0.182 C 
ATOM      3  C   LIG A   1      -7.969  -1.776 126.348  0.00  0.00    +0.111 C 
ATOM      4  C   LIG A   1      -7.820  -0.299 126.611  0.00  0.00    +0.135 C 
ATOM      5  C   LIG A   1      -7.016   0.448 125.527  0.00  0.00    +0.038 C 
ATOM      6  C   LIG A   1      -5.655  -0.253 125.311  0.00  0.00    +0.017 C 
ATOM      7  C   LIG A   1      -7.847   0.398 124.193  0.00  0.00    +0.156 C 
ATOM      8  C   LIG A   1      -8.389  -1.028 123.845  0.00  0.00    +0.200 C 
ATOM      9  O   LIG A   1      -9.541  -0.781 123.014  0.00  0.00    -0.446 OA
ATOM     10  C   LIG A   1     -10.056   0.446 123.257  0.00  0.00    +0.340 C 
ATOM     11  C   LIG A   1      -9.129   1.265 124.121  0.00  0.00    +0.259 C 
ATOM     12  O   LIG A   1     -11.139   0.837 122.848  0.00  0.00    -0.248 OA
ATOM     13  C   LIG A   1      -7.498  -1.920 122.969  0.00  0.00    +0.067 C 
ATOM     14  C   LIG A   1      -6.834   1.854 126.236  0.00  0.00    +0.064 C 
ATOM     15  C   LIG A   1      -5.516   2.703 126.202  0.00  0.00    +0.101 C 
ATOM     16  C   LIG A   1      -4.219   1.963 126.598  0.00  0.00    +0.044 C 
ATOM     17  C   LIG A   1      -5.681   3.928 127.117  0.00  0.00    +0.130 C 
ATOM     18  O   LIG A   1      -5.636   5.241 126.535  0.00  0.00    -0.361 OA
ATOM     19  C   LIG A   1      -6.538   3.852 128.376  0.00  0.00    +0.011 C 
ATOM     20  C   LIG A   1      -6.610   2.368 128.805  0.00  0.00    +0.042 C 
ATOM     21  C   LIG A   1      -7.282   1.557 127.697  0.00  0.00    +0.126 C 
ATOM     22  O   LIG A   1      -7.209   0.121 127.837  0.00  0.00    -0.372 OA
ATOM     23  C   LIG A   1      -7.963   4.411 128.115  0.00  0.00    +0.015 C 
ATOM     24  C   LIG A   1      -4.515   4.847 127.331  0.00  0.00    +0.155 C 
ATOM     25  C   LIG A   1      -4.453   5.189 128.780  0.00  0.00    +0.043 C 
ATOM     26  C   LIG A   1      -5.836   4.851 129.372  0.00  0.00    +0.034 C 
ENDROOT
BRANCH  26  27
ATOM     27  C   LIG A   1      -5.827   4.446 130.813  0.00  0.00    -0.006 A 
ATOM     28  C   LIG A   1      -4.734   3.973 131.515  0.00  0.00    +0.198 A 
ATOM     29  O   LIG A   1      -5.060   3.702 132.802  0.00  0.00    -0.471 OA
ATOM     30  C   LIG A   1      -6.374   3.998 132.946  0.00  0.00    +0.195 A 
ATOM     31  C   LIG A   1      -6.894   4.455 131.757  0.00  0.00    +0.045 A 
ENDBRANCH  26  27
BRANCH  11  32
ATOM     32  O   LIG A   1      -9.775   1.540 125.350  0.00  0.00    -0.378 OA
ATOM     33  H   LIG A   1      -9.858   2.514 125.414  0.00  0.00    +0.211 HD
ENDBRANCH  11  32
BRANCH   7  34
ATOM     34  O   LIG A   1      -6.974   0.862 123.138  0.00  0.00    -0.380 OA
ATOM     35  H   LIG A   1      -7.432   1.507 122.568  0.00  0.00    +0.210 HD
ENDBRANCH   7  34
BRANCH  15  36
ATOM     36  O   LIG A   1      -5.332   3.154 124.855  0.00  0.00    -0.386 OA
ATOM     37  H   LIG A   1      -4.591   2.643 124.480  0.00  0.00    +0.210 HD
ENDBRANCH  15  36
TORSDOF 4
ENDMDL
MODEL 5
REMARK VINA RESULT:      -8.4      4.747      7.999
REMARK  Name = NuBBE_1440
REMARK  8 active torsions:
REMARK  status: ('A' for Active; 'I' for Inactive)
REMARK    1  A    between atoms: C_6  and  C_7
REMARK    2  A    between atoms: C_8  and  O_17
REMARK    3  A    between atoms: C_9  and  C_16
REMARK    4  A    between atoms: C_12  and  O_14
REMARK    5  A    between atoms: C_19  and  C_20
REMARK    6  A    between atoms: C_19  and  O_39
REMARK    7  A    between atoms: C_23  and  C_28
REMARK    8  A    between atoms: C_32  and  C_34
REMARK                            x       y       z     vdW  Elec       q    Type
REMARK                         _______ _______ _______ _____ _____    ______ ____
ROOT
ATOM      1  O   LIG A   1      -8.727   3.072 133.040  0.00  0.00    -0.293 OA
ATOM      2  C   LIG A   1      -8.542   3.542 131.915  0.00  0.00    +0.182 C 
ATOM      3  C   LIG A   1      -9.471   3.164 130.772  0.00  0.00    +0.111 C 
ATOM      4  C   LIG A   1      -8.560   2.830 129.618  0.00  0.00    +0.135 C 
ATOM      5  C   LIG A   1      -7.744   4.032 129.101  0.00  0.00    +0.038 C 
ATOM      6  C   LIG A   1      -8.695   5.209 128.781  0.00  0.00    +0.017 C 
ATOM      7  C   LIG A   1      -6.747   4.461 130.239  0.00  0.00    +0.156 C 
ATOM      8  C   LIG A   1      -7.420   4.587 131.646  0.00  0.00    +0.200 C 
ATOM      9  O   LIG A   1      -6.339   4.387 132.580  0.00  0.00    -0.446 OA
ATOM     10  C   LIG A   1      -5.342   3.667 132.015  0.00  0.00    +0.340 C 
ATOM     11  C   LIG A   1      -5.551   3.520 130.528  0.00  0.00    +0.259 C 
ATOM     12  O   LIG A   1      -4.404   3.182 132.630  0.00  0.00    -0.248 OA
ATOM     13  C   LIG A   1      -7.979   5.964 132.033  0.00  0.00    +0.067 C 
ATOM     14  C   LIG A   1      -7.135   3.406 127.778  0.00  0.00    +0.064 C 
ATOM     15  C   LIG A   1      -7.000   4.169 126.414  0.00  0.00    +0.101 C 
ATOM     16  C   LIG A   1      -8.279   4.863 125.894  0.00  0.00    +0.044 C 
ATOM     17  C   LIG A   1      -6.499   3.191 125.338  0.00  0.00    +0.130 C 
ATOM     18  O   LIG A   1      -5.224   3.432 124.722  0.00  0.00    -0.361 OA
ATOM     19  C   LIG A   1      -6.883   1.716 125.382  0.00  0.00    +0.011 C 
ATOM     20  C   LIG A   1      -8.196   1.599 126.191  0.00  0.00    +0.042 C 
ATOM     21  C   LIG A   1      -7.953   2.092 127.617  0.00  0.00    +0.126 C 
ATOM     22  O   LIG A   1      -9.134   2.274 128.429  0.00  0.00    -0.372 OA
ATOM     23  C   LIG A   1      -5.762   0.869 126.041  0.00  0.00    +0.015 C 
ATOM     24  C   LIG A   1      -6.384   3.660 123.917  0.00  0.00    +0.155 C 
ATOM     25  C   LIG A   1      -6.917   2.590 123.030  0.00  0.00    +0.043 C 
ATOM     26  C   LIG A   1      -6.937   1.294 123.865  0.00  0.00    +0.034 C 
ENDROOT
BRANCH  26  27
ATOM     27  C   LIG A   1      -8.008   0.315 123.492  0.00  0.00    -0.006 A 
ATOM     28  C   LIG A   1      -9.273   0.633 123.035  0.00  0.00    +0.198 A 
ATOM     29  O   LIG A   1      -9.996  -0.484 122.782  0.00  0.00    -0.471 OA
ATOM     30  C   LIG A   1      -9.201  -1.542 123.076  0.00  0.00    +0.195 A 
ATOM     31  C   LIG A   1      -7.973  -1.109 123.518  0.00  0.00    +0.045 A 
ENDBRANCH  26  27
BRANCH  11  32
ATOM     32  O   LIG A   1      -5.739   2.149 130.228  0.00  0.00    -0.378 OA
ATOM     33  H   LIG A   1      -6.085   2.105 129.313  0.00  0.00    +0.211 HD
ENDBRANCH  11  32
BRANCH   7  34
ATOM     34  O   LIG A   1      -6.186   5.735 129.847  0.00  0.00    -0.380 OA
ATOM     35  H   LIG A   1      -6.881   6.327 129.505  0.00  0.00    +0.210 HD
ENDBRANCH   7  34
BRANCH  15  36
ATOM     36  O   LIG A   1      -6.022   5.199 126.594  0.00  0.00    -0.386 OA
ATOM     37  H   LIG A   1      -6.052   5.765 125.800  0.00  0.00    +0.210 HD
ENDBRANCH  15  36
TORSDOF 4
ENDMDL
MODEL 6
REMARK VINA RESULT:      -8.1      4.059      7.990
REMARK  Name = NuBBE_1440
REMARK  8 active torsions:
REMARK  status: ('A' for Active; 'I' for Inactive)
REMARK    1  A    between atoms: C_6  and  C_7
REMARK    2  A    between atoms: C_8  and  O_17
REMARK    3  A    between atoms: C_9  and  C_16
REMARK    4  A    between atoms: C_12  and  O_14
REMARK    5  A    between atoms: C_19  and  C_20
REMARK    6  A    between atoms: C_19  and  O_39
REMARK    7  A    between atoms: C_23  and  C_28
REMARK    8  A    between atoms: C_32  and  C_34
REMARK                            x       y       z     vdW  Elec       q    Type
REMARK                         _______ _______ _______ _____ _____    ______ ____
ROOT
ATOM      1  O   LIG A   1      -3.701   8.732 130.520  0.00  0.00    -0.293 OA
ATOM      2  C   LIG A   1      -3.502   7.608 130.055  0.00  0.00    +0.182 C 
ATOM      3  C   LIG A   1      -3.531   7.392 128.550  0.00  0.00    +0.111 C 
ATOM      4  C   LIG A   1      -4.380   6.163 128.344  0.00  0.00    +0.135 C 
ATOM      5  C   LIG A   1      -3.764   4.876 128.930  0.00  0.00    +0.038 C 
ATOM      6  C   LIG A   1      -2.325   4.696 128.393  0.00  0.00    +0.017 C 
ATOM      7  C   LIG A   1      -3.723   5.032 130.495  0.00  0.00    +0.156 C 
ATOM      8  C   LIG A   1      -3.138   6.403 130.972  0.00  0.00    +0.200 C 
ATOM      9  O   LIG A   1      -3.711   6.600 132.281  0.00  0.00    -0.446 OA
ATOM     10  C   LIG A   1      -4.871   5.916 132.406  0.00  0.00    +0.340 C 
ATOM     11  C   LIG A   1      -5.072   4.966 131.251  0.00  0.00    +0.259 C 
ATOM     12  O   LIG A   1      -5.665   6.059 133.325  0.00  0.00    -0.248 OA
ATOM     13  C   LIG A   1      -1.626   6.467 131.228  0.00  0.00    +0.067 C 
ATOM     14  C   LIG A   1      -4.747   3.794 128.318  0.00  0.00    +0.064 C 
ATOM     15  C   LIG A   1      -4.296   2.404 127.746  0.00  0.00    +0.101 C 
ATOM     16  C   LIG A   1      -3.150   2.435 126.710  0.00  0.00    +0.044 C 
ATOM     17  C   LIG A   1      -5.509   1.700 127.117  0.00  0.00    +0.130 C 
ATOM     18  O   LIG A   1      -5.962   0.460 127.683  0.00  0.00    -0.361 OA
ATOM     19  C   LIG A   1      -6.620   2.504 126.450  0.00  0.00    +0.011 C 
ATOM     20  C   LIG A   1      -6.019   3.862 126.018  0.00  0.00    +0.042 C 
ATOM     21  C   LIG A   1      -5.537   4.615 127.258  0.00  0.00    +0.126 C 
ATOM     22  O   LIG A   1      -4.736   5.791 127.007  0.00  0.00    -0.372 OA
ATOM     23  C   LIG A   1      -7.811   2.721 127.421  0.00  0.00    +0.015 C 
ATOM     24  C   LIG A   1      -5.313   0.391 126.411  0.00  0.00    +0.155 C 
ATOM     25  C   LIG A   1      -6.105   0.421 125.150  0.00  0.00    +0.043 C 
ATOM     26  C   LIG A   1      -7.138   1.555 125.304  0.00  0.00    +0.034 C 
ENDROOT
BRANCH  26  27
ATOM     27  C   LIG A   1      -7.540   2.224 124.026  0.00  0.00    -0.006 A 
ATOM     28  C   LIG A   1      -8.811   2.664 123.707  0.00  0.00    +0.198 A 
ATOM     29  O   LIG A   1      -8.837   3.231 122.477  0.00  0.00    -0.471 OA
ATOM     30  C   LIG A   1      -7.576   3.162 121.985  0.00  0.00    +0.195 A 
ATOM     31  C   LIG A   1      -6.742   2.552 122.892  0.00  0.00    +0.045 A 
ENDBRANCH  26  27
BRANCH  11  32
ATOM     32  O   LIG A   1      -6.222   5.367 130.527  0.00  0.00    -0.378 OA
ATOM     33  H   LIG A   1      -6.592   4.558 130.116  0.00  0.00    +0.211 HD
ENDBRANCH  11  32
BRANCH   7  34
ATOM     34  O   LIG A   1      -2.910   3.949 131.002  0.00  0.00    -0.380 OA
ATOM     35  H   LIG A   1      -1.983   4.233 131.107  0.00  0.00    +0.210 HD
ENDBRANCH   7  34
BRANCH  15  36
ATOM     36  O   LIG A   1      -3.826   1.620 128.849  0.00  0.00    -0.386 OA
ATOM     37  H   LIG A   1      -3.558   0.753 128.491  0.00  0.00    +0.210 HD
ENDBRANCH  15  36
TORSDOF 4
ENDMDL
MODEL 7
REMARK VINA RESULT:      -8.1      7.060      9.696
REMARK  Name = NuBBE_1440
REMARK  8 active torsions:
REMARK  status: ('A' for Active; 'I' for Inactive)
REMARK    1  A    between atoms: C_6  and  C_7
REMARK    2  A    between atoms: C_8  and  O_17
REMARK    3  A    between atoms: C_9  and  C_16
REMARK    4  A    between atoms: C_12  and  O_14
REMARK    5  A    between atoms: C_19  and  C_20
REMARK    6  A    between atoms: C_19  and  O_39
REMARK    7  A    between atoms: C_23  and  C_28
REMARK    8  A    between atoms: C_32  and  C_34
REMARK                            x       y       z     vdW  Elec       q    Type
REMARK                         _______ _______ _______ _____ _____    ______ ____
ROOT
ATOM      1  O   LIG A   1      -4.038  -1.063 132.659  0.00  0.00    -0.293 OA
ATOM      2  C   LIG A   1      -4.451  -1.485 131.576  0.00  0.00    +0.182 C 
ATOM      3  C   LIG A   1      -3.915  -0.900 130.279  0.00  0.00    +0.111 C 
ATOM      4  C   LIG A   1      -5.135  -0.638 129.432  0.00  0.00    +0.135 C 
ATOM      5  C   LIG A   1      -5.894  -1.916 129.022  0.00  0.00    +0.038 C 
ATOM      6  C   LIG A   1      -4.917  -2.913 128.356  0.00  0.00    +0.017 C 
ATOM      7  C   LIG A   1      -6.490  -2.561 130.327  0.00  0.00    +0.156 C 
ATOM      8  C   LIG A   1      -5.457  -2.671 131.498  0.00  0.00    +0.200 C 
ATOM      9  O   LIG A   1      -6.269  -2.696 132.690  0.00  0.00    -0.446 OA
ATOM     10  C   LIG A   1      -7.465  -2.102 132.470  0.00  0.00    +0.340 C 
ATOM     11  C   LIG A   1      -7.679  -1.833 131.001  0.00  0.00    +0.259 C 
ATOM     12  O   LIG A   1      -8.262  -1.804 133.347  0.00  0.00    -0.248 OA
ATOM     13  C   LIG A   1      -4.641  -3.967 131.592  0.00  0.00    +0.067 C 
ATOM     14  C   LIG A   1      -6.909  -1.310 127.965  0.00  0.00    +0.064 C 
ATOM     15  C   LIG A   1      -7.299  -1.998 126.610  0.00  0.00    +0.101 C 
ATOM     16  C   LIG A   1      -6.124  -2.457 125.717  0.00  0.00    +0.044 C 
ATOM     17  C   LIG A   1      -8.190  -1.044 125.799  0.00  0.00    +0.130 C 
ATOM     18  O   LIG A   1      -9.541  -1.437 125.505  0.00  0.00    -0.361 OA
ATOM     19  C   LIG A   1      -8.005   0.467 125.891  0.00  0.00    +0.011 C 
ATOM     20  C   LIG A   1      -6.552   0.733 126.349  0.00  0.00    +0.042 C 
ATOM     21  C   LIG A   1      -6.341   0.121 127.734  0.00  0.00    +0.126 C 
ATOM     22  O   LIG A   1      -4.974   0.072 128.198  0.00  0.00    -0.372 OA
ATOM     23  C   LIG A   1      -9.013   1.091 126.894  0.00  0.00    +0.015 C 
ATOM     24  C   LIG A   1      -8.615  -1.436 124.415  0.00  0.00    +0.155 C 
ATOM     25  C   LIG A   1      -8.481  -0.244 123.532  0.00  0.00    +0.043 C 
ATOM     26  C   LIG A   1      -8.410   0.986 124.460  0.00  0.00    +0.034 C 
ENDROOT
BRANCH  26  27
ATOM     27  C   LIG A   1      -7.614   2.137 123.927  0.00  0.00    -0.006 A 
ATOM     28  C   LIG A   1      -7.563   3.406 124.470  0.00  0.00    +0.198 A 
ATOM     29  O   LIG A   1      -6.744   4.212 123.752  0.00  0.00    -0.471 OA
ATOM     30  C   LIG A   1      -6.257   3.468 122.730  0.00  0.00    +0.195 A 
ATOM     31  C   LIG A   1      -6.760   2.189 122.788  0.00  0.00    +0.045 A 
ENDBRANCH  26  27
BRANCH  11  32
ATOM     32  O   LIG A   1      -7.758  -0.434 130.801  0.00  0.00    -0.378 OA
ATOM     33  H   LIG A   1      -7.954  -0.295 129.851  0.00  0.00    +0.211 HD
ENDBRANCH  11  32
BRANCH   7  34
ATOM     34  O   LIG A   1      -6.962  -3.879 129.965  0.00  0.00    -0.380 OA
ATOM     35  H   LIG A   1      -7.936  -3.910 129.968  0.00  0.00    +0.210 HD
ENDBRANCH   7  34
BRANCH  15  36
ATOM     36  O   LIG A   1      -8.051  -3.175 126.929  0.00  0.00    -0.386 OA
ATOM     37  H   LIG A   1      -8.357  -3.557 126.085  0.00  0.00    +0.210 HD
ENDBRANCH  15  36
TORSDOF 4
ENDMDL
MODEL 8
REMARK VINA RESULT:      -8.0      3.913      7.246
REMARK  Name = NuBBE_1440
REMARK  8 active torsions:
REMARK  status: ('A' for Active; 'I' for Inactive)
REMARK    1  A    between atoms: C_6  and  C_7
REMARK    2  A    between atoms: C_8  and  O_17
REMARK    3  A    between atoms: C_9  and  C_16
REMARK    4  A    between atoms: C_12  and  O_14
REMARK    5  A    between atoms: C_19  and  C_20
REMARK    6  A    between atoms: C_19  and  O_39
REMARK    7  A    between atoms: C_23  and  C_28
REMARK    8  A    between atoms: C_32  and  C_34
REMARK                            x       y       z     vdW  Elec       q    Type
REMARK                         _______ _______ _______ _____ _____    ______ ____
ROOT
ATOM      1  O   LIG A   1      -7.768  -3.385 128.859  0.00  0.00    -0.293 OA
ATOM      2  C   LIG A   1      -7.260  -2.379 129.360  0.00  0.00    +0.182 C 
ATOM      3  C   LIG A   1      -8.026  -1.580 130.402  0.00  0.00    +0.111 C 
ATOM      4  C   LIG A   1      -7.882  -0.140 129.978  0.00  0.00    +0.135 C 
ATOM      5  C   LIG A   1      -6.433   0.386 130.044  0.00  0.00    +0.038 C 
ATOM      6  C   LIG A   1      -5.846   0.123 131.450  0.00  0.00    +0.017 C 
ATOM      7  C   LIG A   1      -5.590  -0.395 128.970  0.00  0.00    +0.156 C 
ATOM      8  C   LIG A   1      -5.806  -1.945 129.011  0.00  0.00    +0.200 C 
ATOM      9  O   LIG A   1      -5.475  -2.387 127.678  0.00  0.00    -0.446 OA
ATOM     10  C   LIG A   1      -5.634  -1.384 126.784  0.00  0.00    +0.340 C 
ATOM     11  C   LIG A   1      -5.854  -0.063 127.480  0.00  0.00    +0.259 C 
ATOM     12  O   LIG A   1      -5.620  -1.528 125.571  0.00  0.00    -0.248 OA
ATOM     13  C   LIG A   1      -4.861  -2.759 129.905  0.00  0.00    +0.067 C 
ATOM     14  C   LIG A   1      -6.688   1.932 129.805  0.00  0.00    +0.064 C 
ATOM     15  C   LIG A   1      -5.945   3.084 130.569  0.00  0.00    +0.101 C 
ATOM     16  C   LIG A   1      -5.936   2.983 132.111  0.00  0.00    +0.044 C 
ATOM     17  C   LIG A   1      -6.563   4.434 130.168  0.00  0.00    +0.130 C 
ATOM     18  O   LIG A   1      -5.743   5.396 129.484  0.00  0.00    -0.361 OA
ATOM     19  C   LIG A   1      -8.044   4.545 129.822  0.00  0.00    +0.011 C 
ATOM     20  C   LIG A   1      -8.774   3.369 130.513  0.00  0.00    +0.042 C 
ATOM     21  C   LIG A   1      -8.233   2.049 129.963  0.00  0.00    +0.126 C 
ATOM     22  O   LIG A   1      -8.637   0.859 130.675  0.00  0.00    -0.372 OA
ATOM     23  C   LIG A   1      -8.262   4.492 128.286  0.00  0.00    +0.015 C 
ATOM     24  C   LIG A   1      -6.086   5.687 130.842  0.00  0.00    +0.155 C 
ATOM     25  C   LIG A   1      -7.277   6.522 131.163  0.00  0.00    +0.043 C 
ATOM     26  C   LIG A   1      -8.433   5.999 130.286  0.00  0.00    +0.034 C 
ENDROOT
BRANCH  26  27
ATOM     27  C   LIG A   1      -9.799   6.158 130.877  0.00  0.00    -0.006 A 
ATOM     28  C   LIG A   1     -10.110   6.116 132.223  0.00  0.00    +0.198 A 
ATOM     29  O   LIG A   1     -11.437   6.301 132.424  0.00  0.00    -0.471 OA
ATOM     30  C   LIG A   1     -12.001   6.464 131.203  0.00  0.00    +0.195 A 
ATOM     31  C   LIG A   1     -11.043   6.383 130.219  0.00  0.00    +0.045 A 
ENDBRANCH  26  27
BRANCH  11  32
ATOM     32  O   LIG A   1      -7.149   0.411 127.159  0.00  0.00    -0.378 OA
ATOM     33  H   LIG A   1      -7.431   0.986 127.900  0.00  0.00    +0.211 HD
ENDBRANCH  11  32
BRANCH   7  34
ATOM     34  O   LIG A   1      -4.200  -0.087 129.224  0.00  0.00    -0.380 OA
ATOM     35  H   LIG A   1      -4.118   0.578 129.931  0.00  0.00    +0.210 HD
ENDBRANCH   7  34
BRANCH  15  36
ATOM     36  O   LIG A   1      -4.575   3.060 130.151  0.00  0.00    -0.386 OA
ATOM     37  H   LIG A   1      -4.565   2.776 129.218  0.00  0.00    +0.210 HD
ENDBRANCH  15  36
TORSDOF 4
ENDMDL
MODEL 9
REMARK VINA RESULT:      -8.0      4.485      7.831
REMARK  Name = NuBBE_1440
REMARK  8 active torsions:
REMARK  status: ('A' for Active; 'I' for Inactive)
REMARK    1  A    between atoms: C_6  and  C_7
REMARK    2  A    between atoms: C_8  and  O_17
REMARK    3  A    between atoms: C_9  and  C_16
REMARK    4  A    between atoms: C_12  and  O_14
REMARK    5  A    between atoms: C_19  and  C_20
REMARK    6  A    between atoms: C_19  and  O_39
REMARK    7  A    between atoms: C_23  and  C_28
REMARK    8  A    between atoms: C_32  and  C_34
REMARK                            x       y       z     vdW  Elec       q    Type
REMARK                         _______ _______ _______ _____ _____    ______ ____
ROOT
ATOM      1  O   LIG A   1      -9.977   6.298 130.980  0.00  0.00    -0.293 OA
ATOM      2  C   LIG A   1      -9.005   5.610 130.660  0.00  0.00    +0.182 C 
ATOM      3  C   LIG A   1      -8.941   4.985 129.275  0.00  0.00    +0.111 C 
ATOM      4  C   LIG A   1      -8.531   3.552 129.508  0.00  0.00    +0.135 C 
ATOM      5  C   LIG A   1      -7.112   3.399 130.092  0.00  0.00    +0.038 C 
ATOM      6  C   LIG A   1      -6.099   4.166 129.211  0.00  0.00    +0.017 C 
ATOM      7  C   LIG A   1      -7.119   4.015 131.539  0.00  0.00    +0.156 C 
ATOM      8  C   LIG A   1      -7.789   5.427 131.615  0.00  0.00    +0.200 C 
ATOM      9  O   LIG A   1      -8.228   5.542 132.984  0.00  0.00    -0.446 OA
ATOM     10  C   LIG A   1      -8.418   4.320 133.533  0.00  0.00    +0.340 C 
ATOM     11  C   LIG A   1      -7.872   3.231 132.642  0.00  0.00    +0.259 C 
ATOM     12  O   LIG A   1      -8.974   4.119 134.602  0.00  0.00    -0.248 OA
ATOM     13  C   LIG A   1      -6.876   6.646 131.426  0.00  0.00    +0.067 C 
ATOM     14  C   LIG A   1      -6.923   1.830 129.954  0.00  0.00    +0.064 C 
ATOM     15  C   LIG A   1      -5.594   1.131 129.503  0.00  0.00    +0.101 C 
ATOM     16  C   LIG A   1      -4.957   1.657 128.198  0.00  0.00    +0.044 C 
ATOM     17  C   LIG A   1      -5.844  -0.379 129.354  0.00  0.00    +0.130 C 
ATOM     18  O   LIG A   1      -5.133  -1.288 130.210  0.00  0.00    -0.361 OA
ATOM     19  C   LIG A   1      -7.203  -0.905 128.906  0.00  0.00    +0.011 C 
ATOM     20  C   LIG A   1      -7.906   0.225 128.118  0.00  0.00    +0.042 C 
ATOM     21  C   LIG A   1      -8.117   1.425 129.041  0.00  0.00    +0.126 C 
ATOM     22  O   LIG A   1      -8.541   2.646 128.398  0.00  0.00    -0.372 OA
ATOM     23  C   LIG A   1      -8.064  -1.333 130.124  0.00  0.00    +0.015 C 
ATOM     24  C   LIG A   1      -4.744  -1.257 128.834  0.00  0.00    +0.155 C 
ATOM     25  C   LIG A   1      -5.336  -2.211 127.855  0.00  0.00    +0.043 C 
ATOM     26  C   LIG A   1      -6.856  -2.221 128.112  0.00  0.00    +0.034 C 
ENDROOT
BRANCH  26  27
ATOM     27  C   LIG A   1      -7.701  -2.506 126.909  0.00  0.00    -0.006 A 
ATOM     28  C   LIG A   1      -7.361  -2.233 125.597  0.00  0.00    +0.198 A 
ATOM     29  O   LIG A   1      -8.343  -2.620 124.748  0.00  0.00    -0.471 OA
ATOM     30  C   LIG A   1      -9.334  -3.149 125.506  0.00  0.00    +0.195 A 
ATOM     31  C   LIG A   1      -8.993  -3.102 126.838  0.00  0.00    +0.045 A 
ENDBRANCH  26  27
BRANCH  11  32
ATOM     32  O   LIG A   1      -8.945   2.412 132.214  0.00  0.00    -0.378 OA
ATOM     33  H   LIG A   1      -9.091   1.748 132.918  0.00  0.00    +0.211 HD
ENDBRANCH  11  32
BRANCH   7  34
ATOM     34  O   LIG A   1      -5.739   4.104 131.962  0.00  0.00    -0.380 OA
ATOM     35  H   LIG A   1      -5.568   4.954 132.408  0.00  0.00    +0.210 HD
ENDBRANCH   7  34
BRANCH  15  36
ATOM     36  O   LIG A   1      -4.628   1.339 130.540  0.00  0.00    -0.386 OA
ATOM     37  H   LIG A   1      -4.894   2.144 131.022  0.00  0.00    +0.210 HD
ENDBRANCH  15  36
TORSDOF 4
ENDMDL
