MODEL 1
REMARK VINA RESULT:      -6.5      0.000      0.000
REMARK  Name = NuBBE_1687
REMARK  14 active torsions:
REMARK  status: ('A' for Active; 'I' for Inactive)
REMARK    1  A    between atoms: C_2  and  C_3
REMARK    2  A    between atoms: C_3  and  C_4
REMARK    3  A    between atoms: C_5  and  C_6
REMARK    4  A    between atoms: C_6  and  C_7
REMARK    5  A    between atoms: C_8  and  C_9
REMARK    6  A    between atoms: C_9  and  C_10
REMARK    7  A    between atoms: C_10  and  C_11
REMARK    8  A    between atoms: C_11  and  C_12
REMARK    9  A    between atoms: C_12  and  C_13
REMARK   10  A    between atoms: C_13  and  C_14
REMARK   11  A    between atoms: C_14  and  C_15
REMARK   12  A    between atoms: C_15  and  C_16
REMARK   13  A    between atoms: C_18  and  O_19
REMARK   14  A    between atoms: C_21  and  O_22
REMARK                            x       y       z     vdW  Elec       q    Type
REMARK                         _______ _______ _______ _____ _____    ______ ____
ROOT
ATOM      1  C   LIG A   1      -8.525   1.632 125.911  0.00  0.00    +0.000 C 
ENDROOT
BRANCH   1   2
ATOM      2  C   LIG A   1      -7.091   1.255 126.382  0.00  0.00    +0.000 C 
BRANCH   2   3
ATOM      3  C   LIG A   1      -6.651  -0.238 126.456  0.00  0.00    +0.000 C 
BRANCH   3   4
ATOM      4  C   LIG A   1      -5.447  -0.680 125.644  0.00  0.00    +0.004 C 
BRANCH   4   5
ATOM      5  C   LIG A   1      -5.638  -2.073 125.092  0.00  0.00    +0.027 C 
BRANCH   5   7
ATOM      6  C   LIG A   1      -6.684  -1.715 122.736  0.00  0.00    -0.027 C 
ATOM      7  C   LIG A   1      -5.703  -2.114 123.577  0.00  0.00    -0.031 C 
BRANCH   6   8
ATOM      8  C   LIG A   1      -8.142  -1.517 122.996  0.00  0.00    +0.054 C 
BRANCH   8  10
ATOM      9  C   LIG A   1      -9.453  -3.251 124.269  0.00  0.00    -0.027 C 
ATOM     10  C   LIG A   1      -8.906  -2.769 123.147  0.00  0.00    -0.027 C 
BRANCH   9  11
ATOM     11  C   LIG A   1      -9.335  -2.717 125.706  0.00  0.00    +0.053 C 
BRANCH  11  13
ATOM     12  C   LIG A   1      -8.952  -3.877 128.015  0.00  0.00    +0.004 C 
ATOM     13  C   LIG A   1      -8.614  -3.546 126.717  0.00  0.00    -0.031 C 
ENDBRANCH  11  13
ENDBRANCH   9  11
ENDBRANCH   8  10
ENDBRANCH   6   8
ENDBRANCH   5   7
ENDBRANCH   4   5
ENDBRANCH   3   4
ENDBRANCH   2   3
ENDBRANCH   1   2
BRANCH   1  14
ATOM     14  C   LIG A   1      -8.743   2.023 124.436  0.00  0.00    +0.005 C 
BRANCH  14  15
ATOM     15  C   LIG A   1      -7.390   2.239 123.667  0.00  0.00    +0.035 C 
BRANCH  15  16
ATOM     16  C   LIG A   1      -7.423   2.955 122.324  0.00  0.00    -0.041 A 
ATOM     17  C   LIG A   1      -8.596   3.126 121.579  0.00  0.00    +0.049 A 
ATOM     18  C   LIG A   1      -8.566   3.817 120.361  0.00  0.00    +0.121 A 
ATOM     19  C   LIG A   1      -7.385   4.347 119.852  0.00  0.00    +0.090 A 
ATOM     20  C   LIG A   1      -6.218   4.182 120.583  0.00  0.00    +0.121 A 
ATOM     21  C   LIG A   1      -6.231   3.507 121.807  0.00  0.00    +0.049 A 
BRANCH  18  22
ATOM     22  O   LIG A   1      -9.700   4.000 119.622  0.00  0.00    -0.507 OA
ATOM     23  H   LIG A   1     -10.432   4.207 120.226  0.00  0.00    +0.292 HD
ENDBRANCH  18  22
BRANCH  20  24
ATOM     24  O   LIG A   1      -5.025   4.672 120.132  0.00  0.00    -0.507 OA
ATOM     25  H   LIG A   1      -5.033   4.666 119.160  0.00  0.00    +0.292 HD
ENDBRANCH  20  24
ENDBRANCH  15  16
ENDBRANCH  14  15
ENDBRANCH   1  14
TORSDOF 14
ENDMDL
MODEL 2
REMARK VINA RESULT:      -6.5      2.142      4.983
REMARK  Name = NuBBE_1687
REMARK  14 active torsions:
REMARK  status: ('A' for Active; 'I' for Inactive)
REMARK    1  A    between atoms: C_2  and  C_3
REMARK    2  A    between atoms: C_3  and  C_4
REMARK    3  A    between atoms: C_5  and  C_6
REMARK    4  A    between atoms: C_6  and  C_7
REMARK    5  A    between atoms: C_8  and  C_9
REMARK    6  A    between atoms: C_9  and  C_10
REMARK    7  A    between atoms: C_10  and  C_11
REMARK    8  A    between atoms: C_11  and  C_12
REMARK    9  A    between atoms: C_12  and  C_13
REMARK   10  A    between atoms: C_13  and  C_14
REMARK   11  A    between atoms: C_14  and  C_15
REMARK   12  A    between atoms: C_15  and  C_16
REMARK   13  A    between atoms: C_18  and  O_19
REMARK   14  A    between atoms: C_21  and  O_22
REMARK                            x       y       z     vdW  Elec       q    Type
REMARK                         _______ _______ _______ _____ _____    ______ ____
ROOT
ATOM      1  C   LIG A   1      -5.743  -2.673 125.193  0.00  0.00    +0.000 C 
ENDROOT
BRANCH   1   2
ATOM      2  C   LIG A   1      -6.510  -3.660 124.267  0.00  0.00    +0.000 C 
BRANCH   2   3
ATOM      3  C   LIG A   1      -7.910  -4.206 124.680  0.00  0.00    +0.000 C 
BRANCH   3   4
ATOM      4  C   LIG A   1      -9.091  -3.254 124.672  0.00  0.00    +0.004 C 
BRANCH   4   5
ATOM      5  C   LIG A   1      -9.352  -2.690 126.048  0.00  0.00    +0.027 C 
BRANCH   5   7
ATOM      6  C   LIG A   1      -8.453  -3.582 128.322  0.00  0.00    -0.027 C 
ATOM      7  C   LIG A   1      -9.136  -3.699 127.161  0.00  0.00    -0.031 C 
BRANCH   6   8
ATOM      8  C   LIG A   1      -7.363  -2.631 128.697  0.00  0.00    +0.054 C 
BRANCH   8  10
ATOM      9  C   LIG A   1      -7.778  -0.439 129.866  0.00  0.00    -0.027 C 
ATOM     10  C   LIG A   1      -7.680  -1.773 129.854  0.00  0.00    -0.027 C 
BRANCH   9  11
ATOM     11  C   LIG A   1      -7.472   0.562 128.739  0.00  0.00    +0.053 C 
BRANCH  11  13
ATOM     12  C   LIG A   1      -8.912   1.213 126.660  0.00  0.00    +0.004 C 
ATOM     13  C   LIG A   1      -8.126   0.362 127.412  0.00  0.00    -0.031 C 
ENDBRANCH  11  13
ENDBRANCH   9  11
ENDBRANCH   8  10
ENDBRANCH   6   8
ENDBRANCH   5   7
ENDBRANCH   4   5
ENDBRANCH   3   4
ENDBRANCH   2   3
ENDBRANCH   1   2
BRANCH   1  14
ATOM     14  C   LIG A   1      -5.945  -1.159 124.993  0.00  0.00    +0.005 C 
BRANCH  14  15
ATOM     15  C   LIG A   1      -6.411  -0.804 123.535  0.00  0.00    +0.035 C 
BRANCH  15  16
ATOM     16  C   LIG A   1      -7.486   0.258 123.353  0.00  0.00    -0.041 A 
ATOM     17  C   LIG A   1      -7.216   1.632 123.385  0.00  0.00    +0.049 A 
ATOM     18  C   LIG A   1      -8.246   2.560 123.186  0.00  0.00    +0.121 A 
ATOM     19  C   LIG A   1      -9.557   2.157 122.958  0.00  0.00    +0.090 A 
ATOM     20  C   LIG A   1      -9.835   0.798 122.926  0.00  0.00    +0.121 A 
ATOM     21  C   LIG A   1      -8.817  -0.143 123.109  0.00  0.00    +0.049 A 
BRANCH  18  22
ATOM     22  O   LIG A   1      -8.002   3.903 123.205  0.00  0.00    -0.507 OA
ATOM     23  H   LIG A   1      -8.763   4.349 123.611  0.00  0.00    +0.292 HD
ENDBRANCH  18  22
BRANCH  20  24
ATOM     24  O   LIG A   1     -11.104   0.339 122.715  0.00  0.00    -0.507 OA
ATOM     25  H   LIG A   1     -11.129  -0.612 122.916  0.00  0.00    +0.292 HD
ENDBRANCH  20  24
ENDBRANCH  15  16
ENDBRANCH  14  15
ENDBRANCH   1  14
TORSDOF 14
ENDMDL
MODEL 3
REMARK VINA RESULT:      -6.2      1.793      3.744
REMARK  Name = NuBBE_1687
REMARK  14 active torsions:
REMARK  status: ('A' for Active; 'I' for Inactive)
REMARK    1  A    between atoms: C_2  and  C_3
REMARK    2  A    between atoms: C_3  and  C_4
REMARK    3  A    between atoms: C_5  and  C_6
REMARK    4  A    between atoms: C_6  and  C_7
REMARK    5  A    between atoms: C_8  and  C_9
REMARK    6  A    between atoms: C_9  and  C_10
REMARK    7  A    between atoms: C_10  and  C_11
REMARK    8  A    between atoms: C_11  and  C_12
REMARK    9  A    between atoms: C_12  and  C_13
REMARK   10  A    between atoms: C_13  and  C_14
REMARK   11  A    between atoms: C_14  and  C_15
REMARK   12  A    between atoms: C_15  and  C_16
REMARK   13  A    between atoms: C_18  and  O_19
REMARK   14  A    between atoms: C_21  and  O_22
REMARK                            x       y       z     vdW  Elec       q    Type
REMARK                         _______ _______ _______ _____ _____    ______ ____
ROOT
ATOM      1  C   LIG A   1      -6.387  -0.163 127.430  0.00  0.00    +0.000 C 
ENDROOT
BRANCH   1   2
ATOM      2  C   LIG A   1      -5.646  -1.086 128.440  0.00  0.00    +0.000 C 
BRANCH   2   3
ATOM      3  C   LIG A   1      -5.856  -2.630 128.402  0.00  0.00    +0.000 C 
BRANCH   3   4
ATOM      4  C   LIG A   1      -6.929  -3.239 129.285  0.00  0.00    +0.004 C 
BRANCH   4   5
ATOM      5  C   LIG A   1      -8.312  -2.915 128.774  0.00  0.00    +0.027 C 
BRANCH   5   7
ATOM      6  C   LIG A   1      -8.745  -3.587 126.297  0.00  0.00    -0.027 C 
ATOM      7  C   LIG A   1      -8.754  -3.810 127.631  0.00  0.00    -0.031 C 
BRANCH   6   8
ATOM      8  C   LIG A   1      -8.719  -2.296 125.545  0.00  0.00    +0.054 C 
BRANCH   8  10
ATOM      9  C   LIG A   1      -8.281  -2.164 123.067  0.00  0.00    -0.027 C 
ATOM     10  C   LIG A   1      -9.070  -2.420 124.117  0.00  0.00    -0.027 C 
BRANCH   9  11
ATOM     11  C   LIG A   1      -6.866  -1.563 123.048  0.00  0.00    +0.053 C 
BRANCH  11  13
ATOM     12  C   LIG A   1      -5.341  -3.230 124.358  0.00  0.00    +0.004 C 
ATOM     13  C   LIG A   1      -5.702  -2.473 123.260  0.00  0.00    -0.031 C 
ENDBRANCH  11  13
ENDBRANCH   9  11
ENDBRANCH   8  10
ENDBRANCH   6   8
ENDBRANCH   5   7
ENDBRANCH   4   5
ENDBRANCH   3   4
ENDBRANCH   2   3
ENDBRANCH   1   2
BRANCH   1  14
ATOM     14  C   LIG A   1      -5.717   0.143 126.076  0.00  0.00    +0.005 C 
BRANCH  14  15
ATOM     15  C   LIG A   1      -5.990   1.612 125.592  0.00  0.00    +0.035 C 
BRANCH  15  16
ATOM     16  C   LIG A   1      -7.110   1.851 124.589  0.00  0.00    -0.041 A 
ATOM     17  C   LIG A   1      -8.395   1.315 124.738  0.00  0.00    +0.049 A 
ATOM     18  C   LIG A   1      -9.391   1.592 123.793  0.00  0.00    +0.121 A 
ATOM     19  C   LIG A   1      -9.142   2.396 122.686  0.00  0.00    +0.090 A 
ATOM     20  C   LIG A   1      -7.873   2.931 122.529  0.00  0.00    +0.121 A 
ATOM     21  C   LIG A   1      -6.869   2.676 123.469  0.00  0.00    +0.049 A 
BRANCH  18  22
ATOM     22  O   LIG A   1     -10.652   1.084 123.924  0.00  0.00    -0.507 OA
ATOM     23  H   LIG A   1     -10.776   0.391 123.255  0.00  0.00    +0.292 HD
ENDBRANCH  18  22
BRANCH  20  24
ATOM     24  O   LIG A   1      -7.564   3.721 121.458  0.00  0.00    -0.507 OA
ATOM     25  H   LIG A   1      -6.669   3.494 121.151  0.00  0.00    +0.292 HD
ENDBRANCH  20  24
ENDBRANCH  15  16
ENDBRANCH  14  15
ENDBRANCH   1  14
TORSDOF 14
ENDMDL
MODEL 4
REMARK VINA RESULT:      -6.2      2.506      5.203
REMARK  Name = NuBBE_1687
REMARK  14 active torsions:
REMARK  status: ('A' for Active; 'I' for Inactive)
REMARK    1  A    between atoms: C_2  and  C_3
REMARK    2  A    between atoms: C_3  and  C_4
REMARK    3  A    between atoms: C_5  and  C_6
REMARK    4  A    between atoms: C_6  and  C_7
REMARK    5  A    between atoms: C_8  and  C_9
REMARK    6  A    between atoms: C_9  and  C_10
REMARK    7  A    between atoms: C_10  and  C_11
REMARK    8  A    between atoms: C_11  and  C_12
REMARK    9  A    between atoms: C_12  and  C_13
REMARK   10  A    between atoms: C_13  and  C_14
REMARK   11  A    between atoms: C_14  and  C_15
REMARK   12  A    between atoms: C_15  and  C_16
REMARK   13  A    between atoms: C_18  and  O_19
REMARK   14  A    between atoms: C_21  and  O_22
REMARK                            x       y       z     vdW  Elec       q    Type
REMARK                         _______ _______ _______ _____ _____    ______ ____
ROOT
ATOM      1  C   LIG A   1      -6.863  -3.358 124.487  0.00  0.00    +0.000 C 
ENDROOT
BRANCH   1   2
ATOM      2  C   LIG A   1      -8.393  -3.556 124.284  0.00  0.00    +0.000 C 
BRANCH   2   3
ATOM      3  C   LIG A   1      -9.391  -3.246 125.440  0.00  0.00    +0.000 C 
BRANCH   3   4
ATOM      4  C   LIG A   1      -8.844  -2.681 126.739  0.00  0.00    +0.004 C 
BRANCH   4   5
ATOM      5  C   LIG A   1      -8.723  -3.752 127.796  0.00  0.00    +0.027 C 
BRANCH   5   7
ATOM      6  C   LIG A   1      -7.395  -3.276 129.983  0.00  0.00    -0.027 C 
ATOM      7  C   LIG A   1      -8.485  -3.196 129.188  0.00  0.00    -0.031 C 
BRANCH   6   8
ATOM      8  C   LIG A   1      -6.268  -4.258 129.962  0.00  0.00    +0.054 C 
BRANCH   8  10
ATOM      9  C   LIG A   1      -4.511  -2.760 128.956  0.00  0.00    -0.027 C 
ATOM     10  C   LIG A   1      -4.931  -3.643 129.869  0.00  0.00    -0.027 C 
BRANCH   9  11
ATOM     11  C   LIG A   1      -5.241  -2.246 127.703  0.00  0.00    +0.053 C 
BRANCH  11  13
ATOM     12  C   LIG A   1      -6.552  -0.093 127.019  0.00  0.00    +0.004 C 
ATOM     13  C   LIG A   1      -5.490  -0.780 127.576  0.00  0.00    -0.031 C 
ENDBRANCH  11  13
ENDBRANCH   9  11
ENDBRANCH   8  10
ENDBRANCH   6   8
ENDBRANCH   5   7
ENDBRANCH   4   5
ENDBRANCH   3   4
ENDBRANCH   2   3
ENDBRANCH   1   2
BRANCH   1  14
ATOM     14  C   LIG A   1      -6.208  -2.064 123.967  0.00  0.00    +0.005 C 
BRANCH  14  15
ATOM     15  C   LIG A   1      -7.105  -1.318 122.915  0.00  0.00    +0.035 C 
BRANCH  15  16
ATOM     16  C   LIG A   1      -7.821  -0.044 123.342  0.00  0.00    -0.041 A 
ATOM     17  C   LIG A   1      -9.207   0.029 123.524  0.00  0.00    +0.049 A 
ATOM     18  C   LIG A   1      -9.803   1.225 123.944  0.00  0.00    +0.121 A 
ATOM     19  C   LIG A   1      -9.051   2.369 124.187  0.00  0.00    +0.090 A 
ATOM     20  C   LIG A   1      -7.677   2.307 124.008  0.00  0.00    +0.121 A 
ATOM     21  C   LIG A   1      -7.062   1.118 123.603  0.00  0.00    +0.049 A 
BRANCH  18  22
ATOM     22  O   LIG A   1     -11.153   1.315 124.133  0.00  0.00    -0.507 OA
ATOM     23  H   LIG A   1     -11.317   1.798 124.959  0.00  0.00    +0.292 HD
ENDBRANCH  18  22
BRANCH  20  24
ATOM     24  O   LIG A   1      -6.885   3.399 124.222  0.00  0.00    -0.507 OA
ATOM     25  H   LIG A   1      -7.132   4.093 123.587  0.00  0.00    +0.292 HD
ENDBRANCH  20  24
ENDBRANCH  15  16
ENDBRANCH  14  15
ENDBRANCH   1  14
TORSDOF 14
ENDMDL
MODEL 5
REMARK VINA RESULT:      -6.1      3.909      5.418
REMARK  Name = NuBBE_1687
REMARK  14 active torsions:
REMARK  status: ('A' for Active; 'I' for Inactive)
REMARK    1  A    between atoms: C_2  and  C_3
REMARK    2  A    between atoms: C_3  and  C_4
REMARK    3  A    between atoms: C_5  and  C_6
REMARK    4  A    between atoms: C_6  and  C_7
REMARK    5  A    between atoms: C_8  and  C_9
REMARK    6  A    between atoms: C_9  and  C_10
REMARK    7  A    between atoms: C_10  and  C_11
REMARK    8  A    between atoms: C_11  and  C_12
REMARK    9  A    between atoms: C_12  and  C_13
REMARK   10  A    between atoms: C_13  and  C_14
REMARK   11  A    between atoms: C_14  and  C_15
REMARK   12  A    between atoms: C_15  and  C_16
REMARK   13  A    between atoms: C_18  and  O_19
REMARK   14  A    between atoms: C_21  and  O_22
REMARK                            x       y       z     vdW  Elec       q    Type
REMARK                         _______ _______ _______ _____ _____    ______ ____
ROOT
ATOM      1  C   LIG A   1      -6.576   0.190 126.891  0.00  0.00    +0.000 C 
ENDROOT
BRANCH   1   2
ATOM      2  C   LIG A   1      -5.613  -0.590 127.832  0.00  0.00    +0.000 C 
BRANCH   2   3
ATOM      3  C   LIG A   1      -5.589  -2.148 127.824  0.00  0.00    +0.000 C 
BRANCH   3   4
ATOM      4  C   LIG A   1      -6.180  -2.889 129.010  0.00  0.00    +0.004 C 
BRANCH   4   5
ATOM      5  C   LIG A   1      -7.642  -2.559 129.191  0.00  0.00    +0.027 C 
BRANCH   5   7
ATOM      6  C   LIG A   1      -8.913  -3.699 127.227  0.00  0.00    -0.027 C 
ATOM      7  C   LIG A   1      -8.569  -3.560 128.527  0.00  0.00    -0.031 C 
BRANCH   6   8
ATOM      8  C   LIG A   1      -8.858  -2.704 126.113  0.00  0.00    +0.054 C 
BRANCH   8  10
ATOM      9  C   LIG A   1      -8.143  -3.108 123.731  0.00  0.00    -0.027 C 
ATOM     10  C   LIG A   1      -8.970  -3.296 124.766  0.00  0.00    -0.027 C 
BRANCH   9  11
ATOM     11  C   LIG A   1      -6.946  -2.149 123.614  0.00  0.00    +0.053 C 
BRANCH  11  13
ATOM     12  C   LIG A   1      -5.016  -3.871 123.974  0.00  0.00    +0.004 C 
ATOM     13  C   LIG A   1      -5.605  -2.625 124.065  0.00  0.00    -0.031 C 
ENDBRANCH  11  13
ENDBRANCH   9  11
ENDBRANCH   8  10
ENDBRANCH   6   8
ENDBRANCH   5   7
ENDBRANCH   4   5
ENDBRANCH   3   4
ENDBRANCH   2   3
ENDBRANCH   1   2
BRANCH   1  14
ATOM     14  C   LIG A   1      -6.020   0.770 125.575  0.00  0.00    +0.005 C 
BRANCH  14  15
ATOM     15  C   LIG A   1      -6.064   2.340 125.546  0.00  0.00    +0.035 C 
BRANCH  15  16
ATOM     16  C   LIG A   1      -4.916   3.112 126.183  0.00  0.00    -0.041 A 
ATOM     17  C   LIG A   1      -5.060   4.406 126.698  0.00  0.00    +0.049 A 
ATOM     18  C   LIG A   1      -3.971   5.054 127.295  0.00  0.00    +0.121 A 
ATOM     19  C   LIG A   1      -2.725   4.446 127.393  0.00  0.00    +0.090 A 
ATOM     20  C   LIG A   1      -2.572   3.164 126.885  0.00  0.00    +0.121 A 
ATOM     21  C   LIG A   1      -3.651   2.496 126.297  0.00  0.00    +0.049 A 
BRANCH  18  22
ATOM     22  O   LIG A   1      -4.092   6.313 127.809  0.00  0.00    -0.507 OA
ATOM     23  H   LIG A   1      -4.987   6.414 128.171  0.00  0.00    +0.292 HD
ENDBRANCH  18  22
BRANCH  20  24
ATOM     24  O   LIG A   1      -1.370   2.517 126.942  0.00  0.00    -0.507 OA
ATOM     25  H   LIG A   1      -1.443   1.781 127.574  0.00  0.00    +0.292 HD
ENDBRANCH  20  24
ENDBRANCH  15  16
ENDBRANCH  14  15
ENDBRANCH   1  14
TORSDOF 14
ENDMDL
MODEL 6
REMARK VINA RESULT:      -6.1      2.343      4.687
REMARK  Name = NuBBE_1687
REMARK  14 active torsions:
REMARK  status: ('A' for Active; 'I' for Inactive)
REMARK    1  A    between atoms: C_2  and  C_3
REMARK    2  A    between atoms: C_3  and  C_4
REMARK    3  A    between atoms: C_5  and  C_6
REMARK    4  A    between atoms: C_6  and  C_7
REMARK    5  A    between atoms: C_8  and  C_9
REMARK    6  A    between atoms: C_9  and  C_10
REMARK    7  A    between atoms: C_10  and  C_11
REMARK    8  A    between atoms: C_11  and  C_12
REMARK    9  A    between atoms: C_12  and  C_13
REMARK   10  A    between atoms: C_13  and  C_14
REMARK   11  A    between atoms: C_14  and  C_15
REMARK   12  A    between atoms: C_15  and  C_16
REMARK   13  A    between atoms: C_18  and  O_19
REMARK   14  A    between atoms: C_21  and  O_22
REMARK                            x       y       z     vdW  Elec       q    Type
REMARK                         _______ _______ _______ _____ _____    ______ ____
ROOT
ATOM      1  C   LIG A   1      -6.099  -2.260 127.174  0.00  0.00    +0.000 C 
ENDROOT
BRANCH   1   2
ATOM      2  C   LIG A   1      -7.254  -2.138 128.210  0.00  0.00    +0.000 C 
BRANCH   2   3
ATOM      3  C   LIG A   1      -8.158  -3.365 128.534  0.00  0.00    +0.000 C 
BRANCH   3   4
ATOM      4  C   LIG A   1      -8.974  -3.981 127.411  0.00  0.00    +0.004 C 
BRANCH   4   5
ATOM      5  C   LIG A   1      -9.314  -2.958 126.354  0.00  0.00    +0.027 C 
BRANCH   5   7
ATOM      6  C   LIG A   1      -8.691  -3.064 123.829  0.00  0.00    -0.027 C 
ATOM      7  C   LIG A   1      -9.298  -3.524 124.946  0.00  0.00    -0.031 C 
BRANCH   6   8
ATOM      8  C   LIG A   1      -8.217  -1.686 123.499  0.00  0.00    +0.054 C 
BRANCH   8  10
ATOM      9  C   LIG A   1      -5.987  -2.033 122.379  0.00  0.00    -0.027 C 
ATOM     10  C   LIG A   1      -7.262  -1.626 122.376  0.00  0.00    -0.027 C 
BRANCH   9  11
ATOM     11  C   LIG A   1      -5.140  -2.546 123.556  0.00  0.00    +0.053 C 
BRANCH  11  13
ATOM     12  C   LIG A   1      -4.208  -4.984 123.619  0.00  0.00    +0.004 C 
ATOM     13  C   LIG A   1      -5.154  -4.007 123.860  0.00  0.00    -0.031 C 
ENDBRANCH  11  13
ENDBRANCH   9  11
ENDBRANCH   8  10
ENDBRANCH   6   8
ENDBRANCH   5   7
ENDBRANCH   4   5
ENDBRANCH   3   4
ENDBRANCH   2   3
ENDBRANCH   1   2
BRANCH   1  14
ATOM     14  C   LIG A   1      -5.459  -0.971 126.622  0.00  0.00    +0.005 C 
BRANCH  14  15
ATOM     15  C   LIG A   1      -6.519   0.006 125.998  0.00  0.00    +0.035 C 
BRANCH  15  16
ATOM     16  C   LIG A   1      -6.070   1.401 125.588  0.00  0.00    -0.041 A 
ATOM     17  C   LIG A   1      -5.019   2.080 126.217  0.00  0.00    +0.049 A 
ATOM     18  C   LIG A   1      -4.636   3.353 125.776  0.00  0.00    +0.121 A 
ATOM     19  C   LIG A   1      -5.280   3.982 124.717  0.00  0.00    +0.090 A 
ATOM     20  C   LIG A   1      -6.323   3.319 124.088  0.00  0.00    +0.121 A 
ATOM     21  C   LIG A   1      -6.711   2.041 124.506  0.00  0.00    +0.049 A 
BRANCH  18  22
ATOM     22  O   LIG A   1      -3.609   4.029 126.371  0.00  0.00    -0.507 OA
ATOM     23  H   LIG A   1      -3.043   3.388 126.831  0.00  0.00    +0.292 HD
ENDBRANCH  18  22
BRANCH  20  24
ATOM     24  O   LIG A   1      -7.001   3.888 123.048  0.00  0.00    -0.507 OA
ATOM     25  H   LIG A   1      -7.486   3.191 122.573  0.00  0.00    +0.292 HD
ENDBRANCH  20  24
ENDBRANCH  15  16
ENDBRANCH  14  15
ENDBRANCH   1  14
TORSDOF 14
ENDMDL
MODEL 7
REMARK VINA RESULT:      -6.1      2.459      5.162
REMARK  Name = NuBBE_1687
REMARK  14 active torsions:
REMARK  status: ('A' for Active; 'I' for Inactive)
REMARK    1  A    between atoms: C_2  and  C_3
REMARK    2  A    between atoms: C_3  and  C_4
REMARK    3  A    between atoms: C_5  and  C_6
REMARK    4  A    between atoms: C_6  and  C_7
REMARK    5  A    between atoms: C_8  and  C_9
REMARK    6  A    between atoms: C_9  and  C_10
REMARK    7  A    between atoms: C_10  and  C_11
REMARK    8  A    between atoms: C_11  and  C_12
REMARK    9  A    between atoms: C_12  and  C_13
REMARK   10  A    between atoms: C_13  and  C_14
REMARK   11  A    between atoms: C_14  and  C_15
REMARK   12  A    between atoms: C_15  and  C_16
REMARK   13  A    between atoms: C_18  and  O_19
REMARK   14  A    between atoms: C_21  and  O_22
REMARK                            x       y       z     vdW  Elec       q    Type
REMARK                         _______ _______ _______ _____ _____    ______ ____
ROOT
ATOM      1  C   LIG A   1      -6.451  -3.255 124.226  0.00  0.00    +0.000 C 
ENDROOT
BRANCH   1   2
ATOM      2  C   LIG A   1      -7.949  -3.673 124.247  0.00  0.00    +0.000 C 
BRANCH   2   3
ATOM      3  C   LIG A   1      -8.763  -3.630 125.576  0.00  0.00    +0.000 C 
BRANCH   3   4
ATOM      4  C   LIG A   1      -8.817  -2.326 126.351  0.00  0.00    +0.004 C 
BRANCH   4   5
ATOM      5  C   LIG A   1      -7.743  -2.271 127.410  0.00  0.00    +0.027 C 
BRANCH   5   7
ATOM      6  C   LIG A   1      -7.975  -3.003 129.897  0.00  0.00    -0.027 C 
ATOM      7  C   LIG A   1      -7.988  -3.226 128.564  0.00  0.00    -0.031 C 
BRANCH   6   8
ATOM      8  C   LIG A   1      -7.317  -1.910 130.675  0.00  0.00    +0.054 C 
BRANCH   8  10
ATOM      9  C   LIG A   1      -8.237   0.406 130.312  0.00  0.00    -0.027 C 
ATOM     10  C   LIG A   1      -8.194  -0.760 130.965  0.00  0.00    -0.027 C 
BRANCH   9  11
ATOM     11  C   LIG A   1      -7.322   0.916 129.185  0.00  0.00    +0.053 C 
BRANCH  11  13
ATOM     12  C   LIG A   1      -8.839   1.270 127.089  0.00  0.00    +0.004 C 
ATOM     13  C   LIG A   1      -7.938   1.673 128.055  0.00  0.00    -0.031 C 
ENDBRANCH  11  13
ENDBRANCH   9  11
ENDBRANCH   8  10
ENDBRANCH   6   8
ENDBRANCH   5   7
ENDBRANCH   4   5
ENDBRANCH   3   4
ENDBRANCH   2   3
ENDBRANCH   1   2
BRANCH   1  14
ATOM     14  C   LIG A   1      -6.045  -1.985 123.453  0.00  0.00    +0.005 C 
BRANCH  14  15
ATOM     15  C   LIG A   1      -6.319  -0.672 124.271  0.00  0.00    +0.035 C 
BRANCH  15  16
ATOM     16  C   LIG A   1      -7.428   0.259 123.803  0.00  0.00    -0.041 A 
ATOM     17  C   LIG A   1      -8.676  -0.200 123.364  0.00  0.00    +0.049 A 
ATOM     18  C   LIG A   1      -9.665   0.709 122.969  0.00  0.00    +0.121 A 
ATOM     19  C   LIG A   1      -9.446   2.082 122.994  0.00  0.00    +0.090 A 
ATOM     20  C   LIG A   1      -8.213   2.547 123.427  0.00  0.00    +0.121 A 
ATOM     21  C   LIG A   1      -7.218   1.655 123.838  0.00  0.00    +0.049 A 
BRANCH  18  22
ATOM     22  O   LIG A   1     -10.891   0.282 122.544  0.00  0.00    -0.507 OA
ATOM     23  H   LIG A   1     -11.541   0.980 122.724  0.00  0.00    +0.292 HD
ENDBRANCH  18  22
BRANCH  20  24
ATOM     24  O   LIG A   1      -7.933   3.884 123.466  0.00  0.00    -0.507 OA
ATOM     25  H   LIG A   1      -8.477   4.295 124.160  0.00  0.00    +0.292 HD
ENDBRANCH  20  24
ENDBRANCH  15  16
ENDBRANCH  14  15
ENDBRANCH   1  14
TORSDOF 14
ENDMDL
MODEL 8
REMARK VINA RESULT:      -6.1      4.710      8.100
REMARK  Name = NuBBE_1687
REMARK  14 active torsions:
REMARK  status: ('A' for Active; 'I' for Inactive)
REMARK    1  A    between atoms: C_2  and  C_3
REMARK    2  A    between atoms: C_3  and  C_4
REMARK    3  A    between atoms: C_5  and  C_6
REMARK    4  A    between atoms: C_6  and  C_7
REMARK    5  A    between atoms: C_8  and  C_9
REMARK    6  A    between atoms: C_9  and  C_10
REMARK    7  A    between atoms: C_10  and  C_11
REMARK    8  A    between atoms: C_11  and  C_12
REMARK    9  A    between atoms: C_12  and  C_13
REMARK   10  A    between atoms: C_13  and  C_14
REMARK   11  A    between atoms: C_14  and  C_15
REMARK   12  A    between atoms: C_15  and  C_16
REMARK   13  A    between atoms: C_18  and  O_19
REMARK   14  A    between atoms: C_21  and  O_22
REMARK                            x       y       z     vdW  Elec       q    Type
REMARK                         _______ _______ _______ _____ _____    ______ ____
ROOT
ATOM      1  C   LIG A   1      -9.166  -2.961 126.085  0.00  0.00    +0.000 C 
ENDROOT
BRANCH   1   2
ATOM      2  C   LIG A   1      -8.956  -3.698 124.731  0.00  0.00    +0.000 C 
BRANCH   2   3
ATOM      3  C   LIG A   1      -8.804  -2.890 123.406  0.00  0.00    +0.000 C 
BRANCH   3   4
ATOM      4  C   LIG A   1      -7.898  -1.673 123.399  0.00  0.00    +0.004 C 
BRANCH   4   5
ATOM      5  C   LIG A   1      -6.723  -1.868 122.471  0.00  0.00    +0.027 C 
BRANCH   5   7
ATOM      6  C   LIG A   1      -5.295  -2.880 124.397  0.00  0.00    -0.027 C 
ATOM      7  C   LIG A   1      -5.590  -2.660 123.097  0.00  0.00    -0.031 C 
BRANCH   6   8
ATOM      8  C   LIG A   1      -5.693  -2.103 125.611  0.00  0.00    +0.054 C 
BRANCH   8  10
ATOM      9  C   LIG A   1      -5.900   0.361 126.095  0.00  0.00    -0.027 C 
ATOM     10  C   LIG A   1      -5.245  -0.697 125.604  0.00  0.00    -0.027 C 
BRANCH   9  11
ATOM     11  C   LIG A   1      -7.323   0.431 126.675  0.00  0.00    +0.053 C 
BRANCH  11  13
ATOM     12  C   LIG A   1      -9.727   0.661 125.682  0.00  0.00    +0.004 C 
ATOM     13  C   LIG A   1      -8.404   1.028 125.837  0.00  0.00    -0.031 C 
ENDBRANCH  11  13
ENDBRANCH   9  11
ENDBRANCH   8  10
ENDBRANCH   6   8
ENDBRANCH   5   7
ENDBRANCH   4   5
ENDBRANCH   3   4
ENDBRANCH   2   3
ENDBRANCH   1   2
BRANCH   1  14
ATOM     14  C   LIG A   1      -8.661  -3.628 127.379  0.00  0.00    +0.005 C 
BRANCH  14  15
ATOM     15  C   LIG A   1      -8.119  -2.583 128.420  0.00  0.00    +0.035 C 
BRANCH  15  16
ATOM     16  C   LIG A   1      -6.801  -2.873 129.123  0.00  0.00    -0.041 A 
ATOM     17  C   LIG A   1      -5.699  -2.012 129.065  0.00  0.00    +0.049 A 
ATOM     18  C   LIG A   1      -4.521  -2.324 129.755  0.00  0.00    +0.121 A 
ATOM     19  C   LIG A   1      -4.403  -3.485 130.510  0.00  0.00    +0.090 A 
ATOM     20  C   LIG A   1      -5.489  -4.346 130.574  0.00  0.00    +0.121 A 
ATOM     21  C   LIG A   1      -6.678  -4.044 129.902  0.00  0.00    +0.049 A 
BRANCH  18  22
ATOM     22  O   LIG A   1      -3.437  -1.494 129.716  0.00  0.00    -0.507 OA
ATOM     23  H   LIG A   1      -3.614  -0.727 130.284  0.00  0.00    +0.292 HD
ENDBRANCH  18  22
BRANCH  20  24
ATOM     24  O   LIG A   1      -5.433  -5.507 131.291  0.00  0.00    -0.507 OA
ATOM     25  H   LIG A   1      -5.591  -5.302 132.229  0.00  0.00    +0.292 HD
ENDBRANCH  20  24
ENDBRANCH  15  16
ENDBRANCH  14  15
ENDBRANCH   1  14
TORSDOF 14
ENDMDL
MODEL 9
REMARK VINA RESULT:      -6.0      1.843      4.250
REMARK  Name = NuBBE_1687
REMARK  14 active torsions:
REMARK  status: ('A' for Active; 'I' for Inactive)
REMARK    1  A    between atoms: C_2  and  C_3
REMARK    2  A    between atoms: C_3  and  C_4
REMARK    3  A    between atoms: C_5  and  C_6
REMARK    4  A    between atoms: C_6  and  C_7
REMARK    5  A    between atoms: C_8  and  C_9
REMARK    6  A    between atoms: C_9  and  C_10
REMARK    7  A    between atoms: C_10  and  C_11
REMARK    8  A    between atoms: C_11  and  C_12
REMARK    9  A    between atoms: C_12  and  C_13
REMARK   10  A    between atoms: C_13  and  C_14
REMARK   11  A    between atoms: C_14  and  C_15
REMARK   12  A    between atoms: C_15  and  C_16
REMARK   13  A    between atoms: C_18  and  O_19
REMARK   14  A    between atoms: C_21  and  O_22
REMARK                            x       y       z     vdW  Elec       q    Type
REMARK                         _______ _______ _______ _____ _____    ______ ____
ROOT
ATOM      1  C   LIG A   1      -5.841  -0.974 126.064  0.00  0.00    +0.000 C 
ENDROOT
BRANCH   1   2
ATOM      2  C   LIG A   1      -5.396  -2.157 126.970  0.00  0.00    +0.000 C 
BRANCH   2   3
ATOM      3  C   LIG A   1      -5.299  -1.978 128.515  0.00  0.00    +0.000 C 
BRANCH   3   4
ATOM      4  C   LIG A   1      -6.247  -2.768 129.398  0.00  0.00    +0.004 C 
BRANCH   4   5
ATOM      5  C   LIG A   1      -7.668  -2.280 129.254  0.00  0.00    +0.027 C 
BRANCH   5   7
ATOM      6  C   LIG A   1      -8.908  -4.058 127.813  0.00  0.00    -0.027 C 
ATOM      7  C   LIG A   1      -8.658  -3.393 128.963  0.00  0.00    -0.031 C 
BRANCH   6   8
ATOM      8  C   LIG A   1      -8.634  -3.657 126.400  0.00  0.00    +0.054 C 
BRANCH   8  10
ATOM      9  C   LIG A   1      -9.278  -1.830 124.789  0.00  0.00    -0.027 C 
ATOM     10  C   LIG A   1      -9.206  -2.352 126.019  0.00  0.00    -0.027 C 
BRANCH   9  11
ATOM     11  C   LIG A   1      -8.686  -2.370 123.476  0.00  0.00    +0.053 C 
BRANCH  11  13
ATOM     12  C   LIG A   1      -6.235  -1.962 122.672  0.00  0.00    +0.004 C 
ATOM     13  C   LIG A   1      -7.562  -1.620 122.840  0.00  0.00    -0.031 C 
ENDBRANCH  11  13
ENDBRANCH   9  11
ENDBRANCH   8  10
ENDBRANCH   6   8
ENDBRANCH   5   7
ENDBRANCH   4   5
ENDBRANCH   3   4
ENDBRANCH   2   3
ENDBRANCH   1   2
BRANCH   1  14
ATOM     14  C   LIG A   1      -6.260   0.353 126.728  0.00  0.00    +0.005 C 
BRANCH  14  15
ATOM     15  C   LIG A   1      -5.975   1.597 125.813  0.00  0.00    +0.035 C 
BRANCH  15  16
ATOM     16  C   LIG A   1      -7.007   1.978 124.761  0.00  0.00    -0.041 A 
ATOM     17  C   LIG A   1      -6.690   2.706 123.608  0.00  0.00    +0.049 A 
ATOM     18  C   LIG A   1      -7.681   3.003 122.664  0.00  0.00    +0.121 A 
ATOM     19  C   LIG A   1      -8.999   2.597 122.837  0.00  0.00    +0.090 A 
ATOM     20  C   LIG A   1      -9.324   1.876 123.977  0.00  0.00    +0.121 A 
ATOM     21  C   LIG A   1      -8.345   1.558 124.924  0.00  0.00    +0.049 A 
BRANCH  18  22
ATOM     22  O   LIG A   1      -7.390   3.706 121.529  0.00  0.00    -0.507 OA
ATOM     23  H   LIG A   1      -6.429   3.680 121.388  0.00  0.00    +0.292 HD
ENDBRANCH  18  22
BRANCH  20  24
ATOM     24  O   LIG A   1     -10.603   1.456 124.209  0.00  0.00    -0.507 OA
ATOM     25  H   LIG A   1     -10.725   0.584 123.795  0.00  0.00    +0.292 HD
ENDBRANCH  20  24
ENDBRANCH  15  16
ENDBRANCH  14  15
ENDBRANCH   1  14
TORSDOF 14
ENDMDL
