MODEL 1
REMARK VINA RESULT:      -6.7      0.000      0.000
REMARK  Name = NuBBE_509
REMARK  5 active torsions:
REMARK  status: ('A' for Active; 'I' for Inactive)
REMARK    1  A    between atoms: O_1  and  C_2
REMARK    2  A    between atoms: C_6  and  O_9
REMARK    3  A    between atoms: C_7  and  C_8
REMARK    4  A    between atoms: O_9  and  C_10
REMARK    5  A    between atoms: C_12  and  C_16
REMARK                            x       y       z     vdW  Elec       q    Type
REMARK                         _______ _______ _______ _____ _____    ______ ____
ROOT
ATOM      1  C   LIG A   1     -11.138   6.544 131.182  0.00  0.00    +0.138 A 
ATOM      2  C   LIG A   1      -9.740   6.570 131.295  0.00  0.00    +0.106 A 
ATOM      3  C   LIG A   1      -8.971   7.241 130.348  0.00  0.00    +0.146 A 
ATOM      4  C   LIG A   1      -9.593   7.904 129.293  0.00  0.00    +0.093 A 
ATOM      5  C   LIG A   1     -10.987   7.896 129.196  0.00  0.00    +0.130 A 
ATOM      6  C   LIG A   1     -11.780   7.185 130.111  0.00  0.00    +0.034 A 
ATOM      7  C   LIG A   1     -13.277   7.147 129.986  0.00  0.00    +0.051 C 
ATOM      8  O   LIG A   1      -7.600   7.293 130.394  0.00  0.00    -0.460 OA
ATOM      9  C   LIG A   1      -6.946   6.644 131.430  0.00  0.00    +0.106 A 
ATOM     10  C   LIG A   1      -7.574   5.970 132.405  0.00  0.00    +0.093 A 
ATOM     11  C   LIG A   1      -9.041   5.896 132.398  0.00  0.00    +0.196 A 
ATOM     12  O   LIG A   1      -9.657   5.297 133.273  0.00  0.00    -0.287 OA
ATOM     13  C   LIG A   1      -5.456   6.762 131.365  0.00  0.00    +0.086 C 
ENDROOT
BRANCH   1  14
ATOM     14  O   LIG A   1     -11.924   5.898 132.103  0.00  0.00    -0.505 OA
ATOM     15  H   LIG A   1     -12.795   6.353 132.144  0.00  0.00    +0.292 HD
ENDBRANCH   1  14
BRANCH   5  16
ATOM     16  O   LIG A   1     -11.558   8.542 128.130  0.00  0.00    -0.495 OA
ATOM     17  C   LIG A   1     -11.074   7.991 126.905  0.00  0.00    +0.277 C 
ENDBRANCH   5  16
TORSDOF 2
ENDMDL
MODEL 2
REMARK VINA RESULT:      -6.5      1.159      4.664
REMARK  Name = NuBBE_509
REMARK  5 active torsions:
REMARK  status: ('A' for Active; 'I' for Inactive)
REMARK    1  A    between atoms: O_1  and  C_2
REMARK    2  A    between atoms: C_6  and  O_9
REMARK    3  A    between atoms: C_7  and  C_8
REMARK    4  A    between atoms: O_9  and  C_10
REMARK    5  A    between atoms: C_12  and  C_16
REMARK                            x       y       z     vdW  Elec       q    Type
REMARK                         _______ _______ _______ _____ _____    ______ ____
ROOT
ATOM      1  C   LIG A   1      -9.324   5.759 132.672  0.00  0.00    +0.138 A 
ATOM      2  C   LIG A   1      -9.726   6.432 131.508  0.00  0.00    +0.106 A 
ATOM      3  C   LIG A   1      -8.780   7.032 130.682  0.00  0.00    +0.146 A 
ATOM      4  C   LIG A   1      -7.428   6.951 131.002  0.00  0.00    +0.093 A 
ATOM      5  C   LIG A   1      -7.028   6.260 132.149  0.00  0.00    +0.130 A 
ATOM      6  C   LIG A   1      -7.967   5.689 133.023  0.00  0.00    +0.034 A 
ATOM      7  C   LIG A   1      -7.539   4.976 134.276  0.00  0.00    +0.051 C 
ATOM      8  O   LIG A   1      -9.109   7.717 129.538  0.00  0.00    -0.460 OA
ATOM      9  C   LIG A   1     -10.446   7.819 129.188  0.00  0.00    +0.106 A 
ATOM     10  C   LIG A   1     -11.449   7.279 129.896  0.00  0.00    +0.093 A 
ATOM     11  C   LIG A   1     -11.141   6.532 131.124  0.00  0.00    +0.196 A 
ATOM     12  O   LIG A   1     -12.024   6.016 131.800  0.00  0.00    -0.287 OA
ATOM     13  C   LIG A   1     -10.679   8.596 127.931  0.00  0.00    +0.086 C 
ENDROOT
BRANCH   1  14
ATOM     14  O   LIG A   1     -10.231   5.149 133.503  0.00  0.00    -0.505 OA
ATOM     15  H   LIG A   1      -9.966   4.209 133.618  0.00  0.00    +0.292 HD
ENDBRANCH   1  14
BRANCH   5  16
ATOM     16  O   LIG A   1      -5.689   6.222 132.440  0.00  0.00    -0.495 OA
ATOM     17  C   LIG A   1      -4.934   6.750 131.349  0.00  0.00    +0.277 C 
ENDBRANCH   5  16
TORSDOF 2
ENDMDL
MODEL 3
REMARK VINA RESULT:      -6.3      1.666      4.740
REMARK  Name = NuBBE_509
REMARK  5 active torsions:
REMARK  status: ('A' for Active; 'I' for Inactive)
REMARK    1  A    between atoms: O_1  and  C_2
REMARK    2  A    between atoms: C_6  and  O_9
REMARK    3  A    between atoms: C_7  and  C_8
REMARK    4  A    between atoms: O_9  and  C_10
REMARK    5  A    between atoms: C_12  and  C_16
REMARK                            x       y       z     vdW  Elec       q    Type
REMARK                         _______ _______ _______ _____ _____    ______ ____
ROOT
ATOM      1  C   LIG A   1     -10.099   6.357 131.734  0.00  0.00    +0.138 A 
ATOM      2  C   LIG A   1     -10.969   6.548 130.650  0.00  0.00    +0.106 A 
ATOM      3  C   LIG A   1     -10.519   6.360 129.346  0.00  0.00    +0.146 A 
ATOM      4  C   LIG A   1      -9.204   5.965 129.117  0.00  0.00    +0.093 A 
ATOM      5  C   LIG A   1      -8.346   5.752 130.199  0.00  0.00    +0.130 A 
ATOM      6  C   LIG A   1      -8.763   5.983 131.519  0.00  0.00    +0.034 A 
ATOM      7  C   LIG A   1      -7.829   5.789 132.682  0.00  0.00    +0.051 C 
ATOM      8  O   LIG A   1     -11.316   6.544 128.244  0.00  0.00    -0.460 OA
ATOM      9  C   LIG A   1     -12.631   6.937 128.434  0.00  0.00    +0.106 A 
ATOM     10  C   LIG A   1     -13.183   7.144 129.638  0.00  0.00    +0.093 A 
ATOM     11  C   LIG A   1     -12.368   6.952 130.846  0.00  0.00    +0.196 A 
ATOM     12  O   LIG A   1     -12.833   7.123 131.967  0.00  0.00    -0.287 OA
ATOM     13  C   LIG A   1     -13.394   7.116 127.159  0.00  0.00    +0.086 C 
ENDROOT
BRANCH   1  14
ATOM     14  O   LIG A   1     -10.514   6.526 133.031  0.00  0.00    -0.505 OA
ATOM     15  H   LIG A   1     -11.300   5.955 133.184  0.00  0.00    +0.292 HD
ENDBRANCH   1  14
BRANCH   5  16
ATOM     16  O   LIG A   1      -7.053   5.385 129.928  0.00  0.00    -0.495 OA
ATOM     17  C   LIG A   1      -7.034   4.179 129.164  0.00  0.00    +0.277 C 
ENDBRANCH   5  16
TORSDOF 2
ENDMDL
MODEL 4
REMARK VINA RESULT:      -6.3      2.060      5.320
REMARK  Name = NuBBE_509
REMARK  5 active torsions:
REMARK  status: ('A' for Active; 'I' for Inactive)
REMARK    1  A    between atoms: O_1  and  C_2
REMARK    2  A    between atoms: C_6  and  O_9
REMARK    3  A    between atoms: C_7  and  C_8
REMARK    4  A    between atoms: O_9  and  C_10
REMARK    5  A    between atoms: C_12  and  C_16
REMARK                            x       y       z     vdW  Elec       q    Type
REMARK                         _______ _______ _______ _____ _____    ______ ____
ROOT
ATOM      1  C   LIG A   1      -9.357   5.490 129.216  0.00  0.00    +0.138 A 
ATOM      2  C   LIG A   1     -10.275   6.544 129.095  0.00  0.00    +0.106 A 
ATOM      3  C   LIG A   1     -10.930   7.036 130.221  0.00  0.00    +0.146 A 
ATOM      4  C   LIG A   1     -10.661   6.493 131.473  0.00  0.00    +0.093 A 
ATOM      5  C   LIG A   1      -9.728   5.459 131.594  0.00  0.00    +0.130 A 
ATOM      6  C   LIG A   1      -9.093   4.913 130.468  0.00  0.00    +0.034 A 
ATOM      7  C   LIG A   1      -8.116   3.777 130.593  0.00  0.00    +0.051 C 
ATOM      8  O   LIG A   1     -11.848   8.056 130.168  0.00  0.00    -0.460 OA
ATOM      9  C   LIG A   1     -12.142   8.621 128.938  0.00  0.00    +0.106 A 
ATOM     10  C   LIG A   1     -11.574   8.240 127.784  0.00  0.00    +0.093 A 
ATOM     11  C   LIG A   1     -10.581   7.157 127.795  0.00  0.00    +0.196 A 
ATOM     12  O   LIG A   1     -10.031   6.780 126.766  0.00  0.00    -0.287 OA
ATOM     13  C   LIG A   1     -13.164   9.712 129.007  0.00  0.00    +0.086 C 
ENDROOT
BRANCH   1  14
ATOM     14  O   LIG A   1      -8.689   4.987 128.127  0.00  0.00    -0.505 OA
ATOM     15  H   LIG A   1      -9.317   4.935 127.372  0.00  0.00    +0.292 HD
ENDBRANCH   1  14
BRANCH   5  16
ATOM     16  O   LIG A   1      -9.509   4.937 132.843  0.00  0.00    -0.495 OA
ATOM     17  C   LIG A   1      -8.674   5.813 133.602  0.00  0.00    +0.277 C 
ENDBRANCH   5  16
TORSDOF 2
ENDMDL
MODEL 5
REMARK VINA RESULT:      -6.2      8.000     10.045
REMARK  Name = NuBBE_509
REMARK  5 active torsions:
REMARK  status: ('A' for Active; 'I' for Inactive)
REMARK    1  A    between atoms: O_1  and  C_2
REMARK    2  A    between atoms: C_6  and  O_9
REMARK    3  A    between atoms: C_7  and  C_8
REMARK    4  A    between atoms: O_9  and  C_10
REMARK    5  A    between atoms: C_12  and  C_16
REMARK                            x       y       z     vdW  Elec       q    Type
REMARK                         _______ _______ _______ _____ _____    ______ ____
ROOT
ATOM      1  C   LIG A   1      -6.100   3.579 123.943  0.00  0.00    +0.138 A 
ATOM      2  C   LIG A   1      -6.334   3.812 122.580  0.00  0.00    +0.106 A 
ATOM      3  C   LIG A   1      -7.569   3.501 122.017  0.00  0.00    +0.146 A 
ATOM      4  C   LIG A   1      -8.580   2.971 122.812  0.00  0.00    +0.093 A 
ATOM      5  C   LIG A   1      -8.352   2.761 124.175  0.00  0.00    +0.130 A 
ATOM      6  C   LIG A   1      -7.100   3.021 124.754  0.00  0.00    +0.034 A 
ATOM      7  C   LIG A   1      -6.843   2.762 126.213  0.00  0.00    +0.051 C 
ATOM      8  O   LIG A   1      -7.856   3.693 120.688  0.00  0.00    -0.460 OA
ATOM      9  C   LIG A   1      -6.873   4.218 119.865  0.00  0.00    +0.106 A 
ATOM     10  C   LIG A   1      -5.649   4.564 120.289  0.00  0.00    +0.093 A 
ATOM     11  C   LIG A   1      -5.300   4.382 121.705  0.00  0.00    +0.196 A 
ATOM     12  O   LIG A   1      -4.195   4.690 122.139  0.00  0.00    -0.287 OA
ATOM     13  C   LIG A   1      -7.302   4.369 118.439  0.00  0.00    +0.086 C 
ENDROOT
BRANCH   1  14
ATOM     14  O   LIG A   1      -4.897   3.882 124.531  0.00  0.00    -0.505 OA
ATOM     15  H   LIG A   1      -4.760   4.855 124.477  0.00  0.00    +0.292 HD
ENDBRANCH   1  14
BRANCH   5  16
ATOM     16  O   LIG A   1      -9.367   2.217 124.918  0.00  0.00    -0.495 OA
ATOM     17  C   LIG A   1     -10.185   1.382 124.096  0.00  0.00    +0.277 C 
ENDBRANCH   5  16
TORSDOF 2
ENDMDL
MODEL 6
REMARK VINA RESULT:      -6.1      1.766      3.033
REMARK  Name = NuBBE_509
REMARK  5 active torsions:
REMARK  status: ('A' for Active; 'I' for Inactive)
REMARK    1  A    between atoms: O_1  and  C_2
REMARK    2  A    between atoms: C_6  and  O_9
REMARK    3  A    between atoms: C_7  and  C_8
REMARK    4  A    between atoms: O_9  and  C_10
REMARK    5  A    between atoms: C_12  and  C_16
REMARK                            x       y       z     vdW  Elec       q    Type
REMARK                         _______ _______ _______ _____ _____    ______ ____
ROOT
ATOM      1  C   LIG A   1     -10.097   6.490 128.285  0.00  0.00    +0.138 A 
ATOM      2  C   LIG A   1      -9.675   6.280 129.606  0.00  0.00    +0.106 A 
ATOM      3  C   LIG A   1     -10.421   6.780 130.669  0.00  0.00    +0.146 A 
ATOM      4  C   LIG A   1     -11.600   7.477 130.422  0.00  0.00    +0.093 A 
ATOM      5  C   LIG A   1     -12.031   7.664 129.105  0.00  0.00    +0.130 A 
ATOM      6  C   LIG A   1     -11.270   7.212 128.016  0.00  0.00    +0.034 A 
ATOM      7  C   LIG A   1     -11.715   7.445 126.599  0.00  0.00    +0.051 C 
ATOM      8  O   LIG A   1     -10.056   6.621 131.983  0.00  0.00    -0.460 OA
ATOM      9  C   LIG A   1      -8.887   5.932 132.268  0.00  0.00    +0.106 A 
ATOM     10  C   LIG A   1      -8.086   5.399 131.333  0.00  0.00    +0.093 A 
ATOM     11  C   LIG A   1      -8.443   5.540 129.915  0.00  0.00    +0.196 A 
ATOM     12  O   LIG A   1      -7.745   5.062 129.027  0.00  0.00    -0.287 OA
ATOM     13  C   LIG A   1      -8.590   5.835 133.731  0.00  0.00    +0.086 C 
ENDROOT
BRANCH   1  14
ATOM     14  O   LIG A   1      -9.387   6.003 127.215  0.00  0.00    -0.505 OA
ATOM     15  H   LIG A   1      -8.614   5.500 127.556  0.00  0.00    +0.292 HD
ENDBRANCH   1  14
BRANCH   5  16
ATOM     16  O   LIG A   1     -13.186   8.375 128.904  0.00  0.00    -0.495 OA
ATOM     17  C   LIG A   1     -13.040   9.703 129.409  0.00  0.00    +0.277 C 
ENDBRANCH   5  16
TORSDOF 2
ENDMDL
MODEL 7
REMARK VINA RESULT:      -6.0      8.269     10.139
REMARK  Name = NuBBE_509
REMARK  5 active torsions:
REMARK  status: ('A' for Active; 'I' for Inactive)
REMARK    1  A    between atoms: O_1  and  C_2
REMARK    2  A    between atoms: C_6  and  O_9
REMARK    3  A    between atoms: C_7  and  C_8
REMARK    4  A    between atoms: O_9  and  C_10
REMARK    5  A    between atoms: C_12  and  C_16
REMARK                            x       y       z     vdW  Elec       q    Type
REMARK                         _______ _______ _______ _____ _____    ______ ____
ROOT
ATOM      1  C   LIG A   1      -5.895   4.127 121.821  0.00  0.00    +0.138 A 
ATOM      2  C   LIG A   1      -6.763   3.434 122.678  0.00  0.00    +0.106 A 
ATOM      3  C   LIG A   1      -8.041   3.085 122.250  0.00  0.00    +0.146 A 
ATOM      4  C   LIG A   1      -8.454   3.409 120.961  0.00  0.00    +0.093 A 
ATOM      5  C   LIG A   1      -7.578   4.078 120.101  0.00  0.00    +0.130 A 
ATOM      6  C   LIG A   1      -6.304   4.484 120.527  0.00  0.00    +0.034 A 
ATOM      7  C   LIG A   1      -5.375   5.235 119.614  0.00  0.00    +0.051 C 
ATOM      8  O   LIG A   1      -8.942   2.419 123.044  0.00  0.00    -0.460 OA
ATOM      9  C   LIG A   1      -8.566   2.080 124.334  0.00  0.00    +0.106 A 
ATOM     10  C   LIG A   1      -7.364   2.355 124.860  0.00  0.00    +0.093 A 
ATOM     11  C   LIG A   1      -6.366   3.060 124.042  0.00  0.00    +0.196 A 
ATOM     12  O   LIG A   1      -5.251   3.326 124.479  0.00  0.00    -0.287 OA
ATOM     13  C   LIG A   1      -9.636   1.370 125.103  0.00  0.00    +0.086 C 
ENDROOT
BRANCH   1  14
ATOM     14  O   LIG A   1      -4.626   4.478 122.210  0.00  0.00    -0.505 OA
ATOM     15  H   LIG A   1      -4.309   5.201 121.623  0.00  0.00    +0.292 HD
ENDBRANCH   1  14
BRANCH   5  16
ATOM     16  O   LIG A   1      -8.032   4.399 118.848  0.00  0.00    -0.495 OA
ATOM     17  C   LIG A   1      -9.460   4.388 118.824  0.00  0.00    +0.277 C 
ENDBRANCH   5  16
TORSDOF 2
ENDMDL
MODEL 8
REMARK VINA RESULT:      -6.0      2.167      2.291
REMARK  Name = NuBBE_509
REMARK  5 active torsions:
REMARK  status: ('A' for Active; 'I' for Inactive)
REMARK    1  A    between atoms: O_1  and  C_2
REMARK    2  A    between atoms: C_6  and  O_9
REMARK    3  A    between atoms: C_7  and  C_8
REMARK    4  A    between atoms: O_9  and  C_10
REMARK    5  A    between atoms: C_12  and  C_16
REMARK                            x       y       z     vdW  Elec       q    Type
REMARK                         _______ _______ _______ _____ _____    ______ ____
ROOT
ATOM      1  C   LIG A   1     -11.043   6.230 131.268  0.00  0.00    +0.138 A 
ATOM      2  C   LIG A   1     -10.061   5.634 130.462  0.00  0.00    +0.106 A 
ATOM      3  C   LIG A   1      -9.908   6.028 129.135  0.00  0.00    +0.146 A 
ATOM      4  C   LIG A   1     -10.720   7.029 128.611  0.00  0.00    +0.093 A 
ATOM      5  C   LIG A   1     -11.682   7.638 129.422  0.00  0.00    +0.130 A 
ATOM      6  C   LIG A   1     -11.888   7.223 130.748  0.00  0.00    +0.034 A 
ATOM      7  C   LIG A   1     -12.946   7.853 131.610  0.00  0.00    +0.051 C 
ATOM      8  O   LIG A   1      -8.976   5.476 128.292  0.00  0.00    -0.460 OA
ATOM      9  C   LIG A   1      -8.150   4.476 128.780  0.00  0.00    +0.106 A 
ATOM     10  C   LIG A   1      -8.195   4.015 130.038  0.00  0.00    +0.093 A 
ATOM     11  C   LIG A   1      -9.173   4.583 130.977  0.00  0.00    +0.196 A 
ATOM     12  O   LIG A   1      -9.246   4.198 132.138  0.00  0.00    -0.287 OA
ATOM     13  C   LIG A   1      -7.186   3.946 127.765  0.00  0.00    +0.086 C 
ENDROOT
BRANCH   1  14
ATOM     14  O   LIG A   1     -11.214   5.870 132.581  0.00  0.00    -0.505 OA
ATOM     15  H   LIG A   1     -11.320   4.893 132.626  0.00  0.00    +0.292 HD
ENDBRANCH   1  14
BRANCH   5  16
ATOM     16  O   LIG A   1     -12.476   8.604 128.860  0.00  0.00    -0.495 OA
ATOM     17  C   LIG A   1     -13.418   8.007 127.968  0.00  0.00    +0.277 C 
ENDBRANCH   5  16
TORSDOF 2
ENDMDL
MODEL 9
REMARK VINA RESULT:      -5.8      9.694     10.746
REMARK  Name = NuBBE_509
REMARK  5 active torsions:
REMARK  status: ('A' for Active; 'I' for Inactive)
REMARK    1  A    between atoms: O_1  and  C_2
REMARK    2  A    between atoms: C_6  and  O_9
REMARK    3  A    between atoms: C_7  and  C_8
REMARK    4  A    between atoms: O_9  and  C_10
REMARK    5  A    between atoms: C_12  and  C_16
REMARK                            x       y       z     vdW  Elec       q    Type
REMARK                         _______ _______ _______ _____ _____    ______ ____
ROOT
ATOM      1  C   LIG A   1      -9.030  -0.667 123.225  0.00  0.00    +0.138 A 
ATOM      2  C   LIG A   1      -8.286   0.494 123.480  0.00  0.00    +0.106 A 
ATOM      3  C   LIG A   1      -7.069   0.416 124.151  0.00  0.00    +0.146 A 
ATOM      4  C   LIG A   1      -6.579  -0.822 124.557  0.00  0.00    +0.093 A 
ATOM      5  C   LIG A   1      -7.311  -1.981 124.281  0.00  0.00    +0.130 A 
ATOM      6  C   LIG A   1      -8.564  -1.921 123.650  0.00  0.00    +0.034 A 
ATOM      7  C   LIG A   1      -9.368  -3.163 123.385  0.00  0.00    +0.051 C 
ATOM      8  O   LIG A   1      -6.300   1.516 124.442  0.00  0.00    -0.460 OA
ATOM      9  C   LIG A   1      -6.756   2.765 124.053  0.00  0.00    +0.106 A 
ATOM     10  C   LIG A   1      -7.907   2.971 123.396  0.00  0.00    +0.093 A 
ATOM     11  C   LIG A   1      -8.757   1.821 123.058  0.00  0.00    +0.196 A 
ATOM     12  O   LIG A   1      -9.814   1.961 122.453  0.00  0.00    -0.287 OA
ATOM     13  C   LIG A   1      -5.838   3.884 124.436  0.00  0.00    +0.086 C 
ENDROOT
BRANCH   1  14
ATOM     14  O   LIG A   1     -10.229  -0.624 122.559  0.00  0.00    -0.505 OA
ATOM     15  H   LIG A   1     -10.842  -1.270 122.977  0.00  0.00    +0.292 HD
ENDBRANCH   1  14
BRANCH   5  16
ATOM     16  O   LIG A   1      -6.804  -3.178 124.718  0.00  0.00    -0.495 OA
ATOM     17  C   LIG A   1      -5.554  -3.443 124.081  0.00  0.00    +0.277 C 
ENDBRANCH   5  16
TORSDOF 2
ENDMDL
