MODEL 1
REMARK VINA RESULT:      -8.9      0.000      0.000
REMARK  Name = NuBBE_857
REMARK  10 active torsions:
REMARK  status: ('A' for Active; 'I' for Inactive)
REMARK    1  A    between atoms: C_5  and  C_35
REMARK    2  A    between atoms: C_6  and  O_31
REMARK    3  A    between atoms: C_10  and  C_11
REMARK    4  A    between atoms: C_10  and  C_30
REMARK    5  A    between atoms: C_15  and  C_28
REMARK    6  A    between atoms: C_19  and  C_27
REMARK    7  A    between atoms: C_20  and  C_21
REMARK    8  A    between atoms: C_20  and  O_26
REMARK    9  A    between atoms: O_31  and  C_32
REMARK   10  A    between atoms: C_32  and  C_33
REMARK                            x       y       z     vdW  Elec       q    Type
REMARK                         _______ _______ _______ _____ _____    ______ ____
ROOT
ATOM      1  O   LIG A   1      -8.751   4.568 125.473  0.00  0.00    -0.289 OA
ATOM      2  C   LIG A   1      -8.217   3.478 125.314  0.00  0.00    +0.193 C 
ATOM      3  C   LIG A   1      -7.116   3.011 126.165  0.00  0.00    +0.050 C 
ATOM      4  C   LIG A   1      -6.911   1.708 125.914  0.00  0.00    -0.047 C 
ATOM      5  C   LIG A   1      -6.094   0.738 126.811  0.00  0.00    +0.030 C 
ATOM      6  C   LIG A   1      -5.242   1.483 127.904  0.00  0.00    +0.187 C 
ATOM      7  C   LIG A   1      -4.743   0.558 129.025  0.00  0.00    +0.051 C 
ATOM      8  C   LIG A   1      -5.896  -0.194 129.707  0.00  0.00    +0.016 C 
ATOM      9  C   LIG A   1      -5.487  -0.883 131.054  0.00  0.00    +0.031 C 
ATOM     10  C   LIG A   1      -4.198  -1.717 130.977  0.00  0.00    +0.019 C 
ATOM     11  C   LIG A   1      -6.617  -1.779 131.585  0.00  0.00    +0.162 C 
ATOM     12  C   LIG A   1      -7.816  -2.011 130.752  0.00  0.00    +0.043 C 
ATOM     13  C   LIG A   1      -7.846  -1.707 129.449  0.00  0.00    -0.016 C 
ATOM     14  C   LIG A   1      -6.681  -1.091 128.680  0.00  0.00    -0.006 C 
ATOM     15  C   LIG A   1      -7.203  -0.143 127.523  0.00  0.00    +0.012 C 
ATOM     16  C   LIG A   1      -8.129  -0.826 126.468  0.00  0.00    +0.006 C 
ATOM     17  C   LIG A   1      -8.829   0.200 125.559  0.00  0.00    +0.015 C 
ATOM     18  C   LIG A   1      -7.859   1.161 124.825  0.00  0.00    +0.030 C 
ATOM     19  C   LIG A   1      -8.603   2.447 124.261  0.00  0.00    +0.164 C 
ATOM     20  C   LIG A   1      -7.160   0.397 123.680  0.00  0.00    +0.019 C 
ATOM     21  C   LIG A   1      -5.875  -2.286 128.131  0.00  0.00    +0.016 C 
ATOM     22  O   LIG A   1      -6.572  -2.315 132.689  0.00  0.00    -0.292 OA
ATOM     23  C   LIG A   1      -5.273   0.201 132.139  0.00  0.00    +0.019 C 
ATOM     24  C   LIG A   1      -5.101  -0.073 125.939  0.00  0.00    +0.020 C 
ENDROOT
BRANCH  19  25
ATOM     25  C   LIG A   1      -8.167   2.945 122.900  0.00  0.00    +0.030 A 
ATOM     26  C   LIG A   1      -8.948   3.037 121.762  0.00  0.00    +0.201 A 
ATOM     27  O   LIG A   1      -8.237   3.530 120.717  0.00  0.00    -0.471 OA
ATOM     28  C   LIG A   1      -6.985   3.778 121.174  0.00  0.00    +0.195 A 
ATOM     29  C   LIG A   1      -6.884   3.436 122.501  0.00  0.00    +0.048 A 
ENDBRANCH  19  25
BRANCH  19  30
ATOM     30  O   LIG A   1     -10.026   2.306 124.295  0.00  0.00    -0.375 OA
ATOM     31  H   LIG A   1     -10.203   1.395 123.986  0.00  0.00    +0.211 HD
ENDBRANCH  19  30
BRANCH   6  32
ATOM     32  O   LIG A   1      -4.046   2.041 127.297  0.00  0.00    -0.461 OA
BRANCH  32  33
ATOM     33  C   LIG A   1      -3.667   3.296 127.646  0.00  0.00    +0.304 C 
ATOM     34  C   LIG A   1      -2.263   3.558 127.192  0.00  0.00    +0.136 C 
ATOM     35  O   LIG A   1      -4.366   4.117 128.222  0.00  0.00    -0.251 OA
ENDBRANCH  32  33
ENDBRANCH   6  32
TORSDOF 4
ENDMDL
MODEL 2
REMARK VINA RESULT:      -8.6      2.692      6.412
REMARK  Name = NuBBE_857
REMARK  10 active torsions:
REMARK  status: ('A' for Active; 'I' for Inactive)
REMARK    1  A    between atoms: C_5  and  C_35
REMARK    2  A    between atoms: C_6  and  O_31
REMARK    3  A    between atoms: C_10  and  C_11
REMARK    4  A    between atoms: C_10  and  C_30
REMARK    5  A    between atoms: C_15  and  C_28
REMARK    6  A    between atoms: C_19  and  C_27
REMARK    7  A    between atoms: C_20  and  C_21
REMARK    8  A    between atoms: C_20  and  O_26
REMARK    9  A    between atoms: O_31  and  C_32
REMARK   10  A    between atoms: C_32  and  C_33
REMARK                            x       y       z     vdW  Elec       q    Type
REMARK                         _______ _______ _______ _____ _____    ______ ____
ROOT
ATOM      1  O   LIG A   1      -2.389   3.090 126.948  0.00  0.00    -0.289 OA
ATOM      2  C   LIG A   1      -3.605   3.194 127.042  0.00  0.00    +0.193 C 
ATOM      3  C   LIG A   1      -4.506   2.923 125.916  0.00  0.00    +0.050 C 
ATOM      4  C   LIG A   1      -5.765   2.880 126.382  0.00  0.00    -0.047 C 
ATOM      5  C   LIG A   1      -6.985   2.293 125.620  0.00  0.00    +0.030 C 
ATOM      6  C   LIG A   1      -6.689   2.028 124.098  0.00  0.00    +0.187 C 
ATOM      7  C   LIG A   1      -7.721   1.108 123.426  0.00  0.00    +0.051 C 
ATOM      8  C   LIG A   1      -7.858  -0.235 124.159  0.00  0.00    +0.016 C 
ATOM      9  C   LIG A   1      -8.636  -1.321 123.338  0.00  0.00    +0.031 C 
ATOM     10  C   LIG A   1      -9.965  -0.834 122.736  0.00  0.00    +0.019 C 
ATOM     11  C   LIG A   1      -8.914  -2.568 124.191  0.00  0.00    +0.162 C 
ATOM     12  C   LIG A   1      -8.592  -2.552 125.634  0.00  0.00    +0.043 C 
ATOM     13  C   LIG A   1      -8.328  -1.415 126.290  0.00  0.00    -0.016 C 
ATOM     14  C   LIG A   1      -8.319  -0.031 125.648  0.00  0.00    -0.006 C 
ATOM     15  C   LIG A   1      -7.257   0.912 126.349  0.00  0.00    +0.012 C 
ATOM     16  C   LIG A   1      -7.463   1.125 127.882  0.00  0.00    +0.006 C 
ATOM     17  C   LIG A   1      -6.246   1.797 128.544  0.00  0.00    +0.015 C 
ATOM     18  C   LIG A   1      -5.840   3.148 127.901  0.00  0.00    +0.030 C 
ATOM     19  C   LIG A   1      -4.366   3.584 128.303  0.00  0.00    +0.164 C 
ATOM     20  C   LIG A   1      -6.856   4.232 128.319  0.00  0.00    +0.019 C 
ATOM     21  C   LIG A   1      -9.758   0.502 125.804  0.00  0.00    +0.016 C 
ATOM     22  O   LIG A   1      -9.395  -3.596 123.721  0.00  0.00    -0.292 OA
ATOM     23  C   LIG A   1      -7.749  -1.810 122.165  0.00  0.00    +0.019 C 
ATOM     24  C   LIG A   1      -8.172   3.289 125.684  0.00  0.00    +0.020 C 
ENDROOT
BRANCH  19  25
ATOM     25  C   LIG A   1      -4.142   5.054 128.579  0.00  0.00    +0.030 A 
ATOM     26  C   LIG A   1      -3.938   6.052 127.643  0.00  0.00    +0.201 A 
ATOM     27  O   LIG A   1      -3.776   7.260 128.238  0.00  0.00    -0.471 OA
ATOM     28  C   LIG A   1      -3.890   7.059 129.573  0.00  0.00    +0.195 A 
ATOM     29  C   LIG A   1      -4.111   5.730 129.840  0.00  0.00    +0.048 A 
ENDBRANCH  19  25
BRANCH  19  30
ATOM     30  O   LIG A   1      -3.847   2.802 129.382  0.00  0.00    -0.375 OA
ATOM     31  H   LIG A   1      -4.629   2.387 129.800  0.00  0.00    +0.211 HD
ENDBRANCH  19  30
BRANCH   6  32
ATOM     32  O   LIG A   1      -6.743   3.279 123.363  0.00  0.00    -0.461 OA
BRANCH  32  33
ATOM     33  C   LIG A   1      -5.924   3.438 122.293  0.00  0.00    +0.304 C 
ATOM     34  C   LIG A   1      -4.959   4.558 122.543  0.00  0.00    +0.136 C 
ATOM     35  O   LIG A   1      -5.938   2.760 121.277  0.00  0.00    -0.251 OA
ENDBRANCH  32  33
ENDBRANCH   6  32
TORSDOF 4
ENDMDL
MODEL 3
REMARK VINA RESULT:      -8.6      3.359      4.891
REMARK  Name = NuBBE_857
REMARK  10 active torsions:
REMARK  status: ('A' for Active; 'I' for Inactive)
REMARK    1  A    between atoms: C_5  and  C_35
REMARK    2  A    between atoms: C_6  and  O_31
REMARK    3  A    between atoms: C_10  and  C_11
REMARK    4  A    between atoms: C_10  and  C_30
REMARK    5  A    between atoms: C_15  and  C_28
REMARK    6  A    between atoms: C_19  and  C_27
REMARK    7  A    between atoms: C_20  and  C_21
REMARK    8  A    between atoms: C_20  and  O_26
REMARK    9  A    between atoms: O_31  and  C_32
REMARK   10  A    between atoms: C_32  and  C_33
REMARK                            x       y       z     vdW  Elec       q    Type
REMARK                         _______ _______ _______ _____ _____    ______ ____
ROOT
ATOM      1  O   LIG A   1      -9.586  -1.415 124.335  0.00  0.00    -0.289 OA
ATOM      2  C   LIG A   1      -8.647  -1.182 125.086  0.00  0.00    +0.193 C 
ATOM      3  C   LIG A   1      -8.446   0.133 125.706  0.00  0.00    +0.050 C 
ATOM      4  C   LIG A   1      -7.500   0.014 126.653  0.00  0.00    -0.047 C 
ATOM      5  C   LIG A   1      -7.215   1.051 127.774  0.00  0.00    +0.030 C 
ATOM      6  C   LIG A   1      -7.927   2.432 127.528  0.00  0.00    +0.187 C 
ATOM      7  C   LIG A   1      -7.983   3.322 128.779  0.00  0.00    +0.051 C 
ATOM      8  C   LIG A   1      -8.652   2.609 129.964  0.00  0.00    +0.016 C 
ATOM      9  C   LIG A   1      -9.030   3.570 131.143  0.00  0.00    +0.031 C 
ATOM     10  C   LIG A   1      -7.900   4.516 131.582  0.00  0.00    +0.019 C 
ATOM     11  C   LIG A   1      -9.510   2.781 132.372  0.00  0.00    +0.162 C 
ATOM     12  C   LIG A   1      -9.415   1.305 132.372  0.00  0.00    +0.043 C 
ATOM     13  C   LIG A   1      -8.680   0.640 131.473  0.00  0.00    -0.016 C 
ATOM     14  C   LIG A   1      -7.874   1.301 130.360  0.00  0.00    -0.006 C 
ATOM     15  C   LIG A   1      -7.817   0.375 129.074  0.00  0.00    +0.012 C 
ATOM     16  C   LIG A   1      -7.201  -1.042 129.300  0.00  0.00    +0.006 C 
ATOM     17  C   LIG A   1      -7.446  -1.979 128.103  0.00  0.00    +0.015 C 
ATOM     18  C   LIG A   1      -6.940  -1.422 126.748  0.00  0.00    +0.030 C 
ATOM     19  C   LIG A   1      -7.581  -2.185 125.510  0.00  0.00    +0.164 C 
ATOM     20  C   LIG A   1      -5.400  -1.522 126.704  0.00  0.00    +0.019 C 
ATOM     21  C   LIG A   1      -6.473   1.547 130.957  0.00  0.00    +0.016 C 
ATOM     22  O   LIG A   1      -9.980   3.327 133.366  0.00  0.00    -0.292 OA
ATOM     23  C   LIG A   1     -10.233   4.451 130.721  0.00  0.00    +0.019 C 
ATOM     24  C   LIG A   1      -5.693   1.335 127.852  0.00  0.00    +0.020 C 
ENDROOT
BRANCH  19  25
ATOM     25  C   LIG A   1      -6.670  -2.462 124.335  0.00  0.00    +0.030 A 
ATOM     26  C   LIG A   1      -6.567  -1.718 123.173  0.00  0.00    +0.201 A 
ATOM     27  O   LIG A   1      -5.646  -2.250 122.330  0.00  0.00    -0.471 OA
ATOM     28  C   LIG A   1      -5.130  -3.340 122.947  0.00  0.00    +0.195 A 
ATOM     29  C   LIG A   1      -5.721  -3.520 124.174  0.00  0.00    +0.048 A 
ENDBRANCH  19  25
BRANCH  19  30
ATOM     30  O   LIG A   1      -8.249  -3.386 125.903  0.00  0.00    -0.375 OA
ATOM     31  H   LIG A   1      -7.664  -4.114 125.611  0.00  0.00    +0.211 HD
ENDBRANCH  19  30
BRANCH   6  32
ATOM     32  O   LIG A   1      -7.189   3.196 126.537  0.00  0.00    -0.461 OA
BRANCH  32  33
ATOM     33  C   LIG A   1      -7.865   3.707 125.478  0.00  0.00    +0.304 C 
ATOM     34  C   LIG A   1      -7.196   3.307 124.197  0.00  0.00    +0.136 C 
ATOM     35  O   LIG A   1      -8.886   4.376 125.539  0.00  0.00    -0.251 OA
ENDBRANCH  32  33
ENDBRANCH   6  32
TORSDOF 4
ENDMDL
MODEL 4
REMARK VINA RESULT:      -8.6      4.078      5.843
REMARK  Name = NuBBE_857
REMARK  10 active torsions:
REMARK  status: ('A' for Active; 'I' for Inactive)
REMARK    1  A    between atoms: C_5  and  C_35
REMARK    2  A    between atoms: C_6  and  O_31
REMARK    3  A    between atoms: C_10  and  C_11
REMARK    4  A    between atoms: C_10  and  C_30
REMARK    5  A    between atoms: C_15  and  C_28
REMARK    6  A    between atoms: C_19  and  C_27
REMARK    7  A    between atoms: C_20  and  C_21
REMARK    8  A    between atoms: C_20  and  O_26
REMARK    9  A    between atoms: O_31  and  C_32
REMARK   10  A    between atoms: C_32  and  C_33
REMARK                            x       y       z     vdW  Elec       q    Type
REMARK                         _______ _______ _______ _____ _____    ______ ____
ROOT
ATOM      1  O   LIG A   1      -7.506   5.686 133.162  0.00  0.00    -0.289 OA
ATOM      2  C   LIG A   1      -7.975   4.854 132.395  0.00  0.00    +0.193 C 
ATOM      3  C   LIG A   1      -7.130   3.955 131.601  0.00  0.00    +0.050 C 
ATOM      4  C   LIG A   1      -7.914   3.009 131.058  0.00  0.00    -0.047 C 
ATOM      5  C   LIG A   1      -7.414   1.677 130.435  0.00  0.00    +0.030 C 
ATOM      6  C   LIG A   1      -5.859   1.655 130.200  0.00  0.00    +0.187 C 
ATOM      7  C   LIG A   1      -5.298   0.245 129.957  0.00  0.00    +0.051 C 
ATOM      8  C   LIG A   1      -5.653  -0.721 131.097  0.00  0.00    +0.016 C 
ATOM      9  C   LIG A   1      -4.836  -2.058 131.064  0.00  0.00    +0.031 C 
ATOM     10  C   LIG A   1      -4.800  -2.749 129.691  0.00  0.00    +0.019 C 
ATOM     11  C   LIG A   1      -5.369  -3.060 132.100  0.00  0.00    +0.162 C 
ATOM     12  C   LIG A   1      -6.606  -2.747 132.849  0.00  0.00    +0.043 C 
ATOM     13  C   LIG A   1      -7.434  -1.765 132.473  0.00  0.00    -0.016 C 
ATOM     14  C   LIG A   1      -7.210  -0.864 131.263  0.00  0.00    -0.006 C 
ATOM     15  C   LIG A   1      -7.796   0.586 131.519  0.00  0.00    +0.012 C 
ATOM     16  C   LIG A   1      -9.321   0.641 131.848  0.00  0.00    +0.006 C 
ATOM     17  C   LIG A   1      -9.753   2.023 132.371  0.00  0.00    +0.015 C 
ATOM     18  C   LIG A   1      -9.403   3.197 131.421  0.00  0.00    +0.030 C 
ATOM     19  C   LIG A   1      -9.459   4.603 132.162  0.00  0.00    +0.164 C 
ATOM     20  C   LIG A   1     -10.372   3.182 130.220  0.00  0.00    +0.019 C 
ATOM     21  C   LIG A   1      -7.915  -1.573 130.088  0.00  0.00    +0.016 C 
ATOM     22  O   LIG A   1      -4.804  -4.124 132.343  0.00  0.00    -0.292 OA
ATOM     23  C   LIG A   1      -3.371  -1.775 131.477  0.00  0.00    +0.019 C 
ATOM     24  C   LIG A   1      -8.083   1.460 129.053  0.00  0.00    +0.020 C 
ENDROOT
BRANCH  19  25
ATOM     25  C   LIG A   1     -10.039   5.761 131.380  0.00  0.00    +0.030 A 
ATOM     26  C   LIG A   1     -11.294   6.321 131.537  0.00  0.00    +0.201 A 
ATOM     27  O   LIG A   1     -11.485   7.349 130.672  0.00  0.00    -0.471 OA
ATOM     28  C   LIG A   1     -10.344   7.477 129.954  0.00  0.00    +0.195 A 
ATOM     29  C   LIG A   1      -9.426   6.530 130.341  0.00  0.00    +0.048 A 
ENDBRANCH  19  25
BRANCH  19  30
ATOM     30  O   LIG A   1     -10.090   4.514 133.442  0.00  0.00    -0.375 OA
ATOM     31  H   LIG A   1      -9.720   5.255 133.964  0.00  0.00    +0.211 HD
ENDBRANCH  19  30
BRANCH   6  32
ATOM     32  O   LIG A   1      -5.532   2.417 129.007  0.00  0.00    -0.461 OA
BRANCH  32  33
ATOM     33  C   LIG A   1      -4.259   2.860 128.850  0.00  0.00    +0.304 C 
ATOM     34  C   LIG A   1      -3.843   3.670 130.040  0.00  0.00    +0.136 C 
ATOM     35  O   LIG A   1      -3.534   2.620 127.895  0.00  0.00    -0.251 OA
ENDBRANCH  32  33
ENDBRANCH   6  32
TORSDOF 4
ENDMDL
MODEL 5
REMARK VINA RESULT:      -8.5      3.143      7.257
REMARK  Name = NuBBE_857
REMARK  10 active torsions:
REMARK  status: ('A' for Active; 'I' for Inactive)
REMARK    1  A    between atoms: C_5  and  C_35
REMARK    2  A    between atoms: C_6  and  O_31
REMARK    3  A    between atoms: C_10  and  C_11
REMARK    4  A    between atoms: C_10  and  C_30
REMARK    5  A    between atoms: C_15  and  C_28
REMARK    6  A    between atoms: C_19  and  C_27
REMARK    7  A    between atoms: C_20  and  C_21
REMARK    8  A    between atoms: C_20  and  O_26
REMARK    9  A    between atoms: O_31  and  C_32
REMARK   10  A    between atoms: C_32  and  C_33
REMARK                            x       y       z     vdW  Elec       q    Type
REMARK                         _______ _______ _______ _____ _____    ______ ____
ROOT
ATOM      1  O   LIG A   1      -9.801   0.029 132.147  0.00  0.00    -0.289 OA
ATOM      2  C   LIG A   1      -8.957   0.510 131.402  0.00  0.00    +0.193 C 
ATOM      3  C   LIG A   1      -8.125  -0.316 130.519  0.00  0.00    +0.050 C 
ATOM      4  C   LIG A   1      -7.485   0.495 129.661  0.00  0.00    -0.047 C 
ATOM      5  C   LIG A   1      -6.779   0.042 128.353  0.00  0.00    +0.030 C 
ATOM      6  C   LIG A   1      -6.597  -1.518 128.263  0.00  0.00    +0.187 C 
ATOM      7  C   LIG A   1      -6.266  -2.014 126.847  0.00  0.00    +0.051 C 
ATOM      8  C   LIG A   1      -7.316  -1.565 125.820  0.00  0.00    +0.016 C 
ATOM      9  C   LIG A   1      -7.209  -2.311 124.445  0.00  0.00    +0.031 C 
ATOM     10  C   LIG A   1      -5.789  -2.363 123.858  0.00  0.00    +0.019 C 
ATOM     11  C   LIG A   1      -8.146  -1.687 123.400  0.00  0.00    +0.162 C 
ATOM     12  C   LIG A   1      -8.873  -0.441 123.724  0.00  0.00    +0.043 C 
ATOM     13  C   LIG A   1      -8.546   0.320 124.776  0.00  0.00    -0.016 C 
ATOM     14  C   LIG A   1      -7.416   0.003 125.751  0.00  0.00    -0.006 C 
ATOM     15  C   LIG A   1      -7.763   0.521 127.208  0.00  0.00    +0.012 C 
ATOM     16  C   LIG A   1      -8.042   2.053 127.322  0.00  0.00    +0.006 C 
ATOM     17  C   LIG A   1      -8.655   2.432 128.682  0.00  0.00    +0.015 C 
ATOM     18  C   LIG A   1      -7.810   1.985 129.903  0.00  0.00    +0.030 C 
ATOM     19  C   LIG A   1      -8.654   1.996 131.251  0.00  0.00    +0.164 C 
ATOM     20  C   LIG A   1      -6.579   2.906 130.031  0.00  0.00    +0.019 C 
ATOM     21  C   LIG A   1      -6.167   0.698 125.172  0.00  0.00    +0.016 C 
ATOM     22  O   LIG A   1      -8.326  -2.186 122.292  0.00  0.00    -0.292 OA
ATOM     23  C   LIG A   1      -7.693  -3.772 124.616  0.00  0.00    +0.019 C 
ATOM     24  C   LIG A   1      -5.362   0.668 128.278  0.00  0.00    +0.020 C 
ENDROOT
BRANCH  19  25
ATOM     25  C   LIG A   1      -7.944   2.484 132.494  0.00  0.00    +0.030 A 
ATOM     26  C   LIG A   1      -8.160   3.679 133.157  0.00  0.00    +0.201 A 
ATOM     27  O   LIG A   1      -7.351   3.793 134.240  0.00  0.00    -0.471 OA
ATOM     28  C   LIG A   1      -6.609   2.660 134.300  0.00  0.00    +0.195 A 
ATOM     29  C   LIG A   1      -6.927   1.826 133.256  0.00  0.00    +0.048 A 
ENDBRANCH  19  25
BRANCH  19  30
ATOM     30  O   LIG A   1      -9.901   2.680 131.102  0.00  0.00    -0.375 OA
ATOM     31  H   LIG A   1     -10.539   1.994 130.819  0.00  0.00    +0.211 HD
ENDBRANCH  19  30
BRANCH   6  32
ATOM     32  O   LIG A   1      -5.478  -1.930 129.093  0.00  0.00    -0.461 OA
BRANCH  32  33
ATOM     33  C   LIG A   1      -5.444  -3.209 129.547  0.00  0.00    +0.304 C 
ATOM     34  C   LIG A   1      -6.812  -3.640 129.981  0.00  0.00    +0.136 C 
ATOM     35  O   LIG A   1      -4.455  -3.927 129.578  0.00  0.00    -0.251 OA
ENDBRANCH  32  33
ENDBRANCH   6  32
TORSDOF 4
ENDMDL
MODEL 6
REMARK VINA RESULT:      -8.2      2.231      3.645
REMARK  Name = NuBBE_857
REMARK  10 active torsions:
REMARK  status: ('A' for Active; 'I' for Inactive)
REMARK    1  A    between atoms: C_5  and  C_35
REMARK    2  A    between atoms: C_6  and  O_31
REMARK    3  A    between atoms: C_10  and  C_11
REMARK    4  A    between atoms: C_10  and  C_30
REMARK    5  A    between atoms: C_15  and  C_28
REMARK    6  A    between atoms: C_19  and  C_27
REMARK    7  A    between atoms: C_20  and  C_21
REMARK    8  A    between atoms: C_20  and  O_26
REMARK    9  A    between atoms: O_31  and  C_32
REMARK   10  A    between atoms: C_32  and  C_33
REMARK                            x       y       z     vdW  Elec       q    Type
REMARK                         _______ _______ _______ _____ _____    ______ ____
ROOT
ATOM      1  O   LIG A   1      -9.974   0.029 125.518  0.00  0.00    -0.289 OA
ATOM      2  C   LIG A   1      -8.836   0.144 125.955  0.00  0.00    +0.193 C 
ATOM      3  C   LIG A   1      -8.553   0.251 127.391  0.00  0.00    +0.050 C 
ATOM      4  C   LIG A   1      -7.229   0.116 127.572  0.00  0.00    -0.047 C 
ATOM      5  C   LIG A   1      -6.533  -0.175 128.930  0.00  0.00    +0.030 C 
ATOM      6  C   LIG A   1      -7.491   0.011 130.163  0.00  0.00    +0.187 C 
ATOM      7  C   LIG A   1      -6.958  -0.631 131.453  0.00  0.00    +0.051 C 
ATOM      8  C   LIG A   1      -6.652  -2.125 131.269  0.00  0.00    +0.016 C 
ATOM      9  C   LIG A   1      -6.428  -2.891 132.618  0.00  0.00    +0.031 C 
ATOM     10  C   LIG A   1      -5.455  -2.201 133.589  0.00  0.00    +0.019 C 
ATOM     11  C   LIG A   1      -5.933  -4.324 132.368  0.00  0.00    +0.162 C 
ATOM     12  C   LIG A   1      -5.587  -4.746 130.994  0.00  0.00    +0.043 C 
ATOM     13  C   LIG A   1      -5.419  -3.865 130.001  0.00  0.00    -0.016 C 
ATOM     14  C   LIG A   1      -5.567  -2.354 130.154  0.00  0.00    -0.006 C 
ATOM     15  C   LIG A   1      -6.112  -1.699 128.819  0.00  0.00    +0.012 C 
ATOM     16  C   LIG A   1      -5.234  -1.941 127.550  0.00  0.00    +0.006 C 
ATOM     17  C   LIG A   1      -5.963  -1.539 126.255  0.00  0.00    +0.015 C 
ATOM     18  C   LIG A   1      -6.468  -0.074 126.241  0.00  0.00    +0.030 C 
ATOM     19  C   LIG A   1      -7.565   0.171 125.116  0.00  0.00    +0.164 C 
ATOM     20  C   LIG A   1      -5.268   0.874 126.039  0.00  0.00    +0.019 C 
ATOM     21  C   LIG A   1      -4.159  -1.839 130.518  0.00  0.00    +0.016 C 
ATOM     22  O   LIG A   1      -5.815  -5.150 133.270  0.00  0.00    -0.292 OA
ATOM     23  C   LIG A   1      -7.783  -3.043 133.353  0.00  0.00    +0.019 C 
ATOM     24  C   LIG A   1      -5.343   0.799 129.130  0.00  0.00    +0.020 C 
ENDROOT
BRANCH  19  25
ATOM     25  C   LIG A   1      -7.493   1.485 124.370  0.00  0.00    +0.030 A 
ATOM     26  C   LIG A   1      -7.940   2.716 124.816  0.00  0.00    +0.201 A 
ATOM     27  O   LIG A   1      -7.715   3.684 123.893  0.00  0.00    -0.471 OA
ATOM     28  C   LIG A   1      -7.101   3.090 122.841  0.00  0.00    +0.195 A 
ATOM     29  C   LIG A   1      -6.943   1.746 123.076  0.00  0.00    +0.048 A 
ENDBRANCH  19  25
BRANCH  19  30
ATOM     30  O   LIG A   1      -7.636  -0.914 124.187  0.00  0.00    -0.375 OA
ATOM     31  H   LIG A   1      -6.727  -1.273 124.139  0.00  0.00    +0.211 HD
ENDBRANCH  19  30
BRANCH   6  32
ATOM     32  O   LIG A   1      -7.637   1.425 130.462  0.00  0.00    -0.461 OA
BRANCH  32  33
ATOM     33  C   LIG A   1      -8.884   1.959 130.478  0.00  0.00    +0.304 C 
ATOM     34  C   LIG A   1      -9.590   1.585 131.746  0.00  0.00    +0.136 C 
ATOM     35  O   LIG A   1      -9.369   2.666 129.606  0.00  0.00    -0.251 OA
ENDBRANCH  32  33
ENDBRANCH   6  32
TORSDOF 4
ENDMDL
MODEL 7
REMARK VINA RESULT:      -8.1      1.666      2.143
REMARK  Name = NuBBE_857
REMARK  10 active torsions:
REMARK  status: ('A' for Active; 'I' for Inactive)
REMARK    1  A    between atoms: C_5  and  C_35
REMARK    2  A    between atoms: C_6  and  O_31
REMARK    3  A    between atoms: C_10  and  C_11
REMARK    4  A    between atoms: C_10  and  C_30
REMARK    5  A    between atoms: C_15  and  C_28
REMARK    6  A    between atoms: C_19  and  C_27
REMARK    7  A    between atoms: C_20  and  C_21
REMARK    8  A    between atoms: C_20  and  O_26
REMARK    9  A    between atoms: O_31  and  C_32
REMARK   10  A    between atoms: C_32  and  C_33
REMARK                            x       y       z     vdW  Elec       q    Type
REMARK                         _______ _______ _______ _____ _____    ______ ____
ROOT
ATOM      1  O   LIG A   1      -8.592   5.499 125.515  0.00  0.00    -0.289 OA
ATOM      2  C   LIG A   1      -7.985   4.447 125.667  0.00  0.00    +0.193 C 
ATOM      3  C   LIG A   1      -6.925   4.289 126.670  0.00  0.00    +0.050 C 
ATOM      4  C   LIG A   1      -6.627   2.983 126.768  0.00  0.00    -0.047 C 
ATOM      5  C   LIG A   1      -5.824   2.329 127.926  0.00  0.00    +0.030 C 
ATOM      6  C   LIG A   1      -5.099   3.383 128.842  0.00  0.00    +0.187 C 
ATOM      7  C   LIG A   1      -4.633   2.806 130.187  0.00  0.00    +0.051 C 
ATOM      8  C   LIG A   1      -5.787   2.162 130.969  0.00  0.00    +0.016 C 
ATOM      9  C   LIG A   1      -5.440   1.861 132.467  0.00  0.00    +0.031 C 
ATOM     10  C   LIG A   1      -4.102   1.132 132.677  0.00  0.00    +0.019 C 
ATOM     11  C   LIG A   1      -6.552   1.042 133.142  0.00  0.00    +0.162 C 
ATOM     12  C   LIG A   1      -7.671   0.522 132.327  0.00  0.00    +0.043 C 
ATOM     13  C   LIG A   1      -7.621   0.491 130.989  0.00  0.00    -0.016 C 
ATOM     14  C   LIG A   1      -6.440   0.982 130.159  0.00  0.00    -0.006 C 
ATOM     15  C   LIG A   1      -6.929   1.572 128.771  0.00  0.00    +0.012 C 
ATOM     16  C   LIG A   1      -7.734   0.582 127.872  0.00  0.00    +0.006 C 
ATOM     17  C   LIG A   1      -8.423   1.295 126.695  0.00  0.00    +0.015 C 
ATOM     18  C   LIG A   1      -7.458   2.114 125.799  0.00  0.00    +0.030 C 
ATOM     19  C   LIG A   1      -8.232   3.162 124.887  0.00  0.00    +0.164 C 
ATOM     20  C   LIG A   1      -6.634   1.145 124.926  0.00  0.00    +0.019 C 
ATOM     21  C   LIG A   1      -5.527  -0.248 129.975  0.00  0.00    +0.016 C 
ATOM     22  O   LIG A   1      -6.557   0.801 134.346  0.00  0.00    -0.292 OA
ATOM     23  C   LIG A   1      -5.370   3.193 133.255  0.00  0.00    +0.019 C 
ATOM     24  C   LIG A   1      -4.724   1.404 127.344  0.00  0.00    +0.020 C 
ENDROOT
BRANCH  19  25
ATOM     25  C   LIG A   1      -7.726   3.337 123.473  0.00  0.00    +0.030 A 
ATOM     26  C   LIG A   1      -8.438   3.127 122.305  0.00  0.00    +0.201 A 
ATOM     27  O   LIG A   1      -7.676   3.384 121.212  0.00  0.00    -0.471 OA
ATOM     28  C   LIG A   1      -6.462   3.781 121.662  0.00  0.00    +0.195 A 
ATOM     29  C   LIG A   1      -6.433   3.768 123.036  0.00  0.00    +0.048 A 
ENDBRANCH  19  25
BRANCH  19  30
ATOM     30  O   LIG A   1      -9.643   2.927 124.874  0.00  0.00    -0.375 OA
ATOM     31  H   LIG A   1     -10.020   3.654 124.338  0.00  0.00    +0.211 HD
ENDBRANCH  19  30
BRANCH   6  32
ATOM     32  O   LIG A   1      -3.896   3.862 128.183  0.00  0.00    -0.461 OA
BRANCH  32  33
ATOM     33  C   LIG A   1      -3.677   5.199 128.125  0.00  0.00    +0.304 C 
ATOM     34  C   LIG A   1      -2.435   5.554 128.885  0.00  0.00    +0.136 C 
ATOM     35  O   LIG A   1      -4.367   6.009 127.523  0.00  0.00    -0.251 OA
ENDBRANCH  32  33
ENDBRANCH   6  32
TORSDOF 4
ENDMDL
MODEL 8
REMARK VINA RESULT:      -8.0      2.569      5.937
REMARK  Name = NuBBE_857
REMARK  10 active torsions:
REMARK  status: ('A' for Active; 'I' for Inactive)
REMARK    1  A    between atoms: C_5  and  C_35
REMARK    2  A    between atoms: C_6  and  O_31
REMARK    3  A    between atoms: C_10  and  C_11
REMARK    4  A    between atoms: C_10  and  C_30
REMARK    5  A    between atoms: C_15  and  C_28
REMARK    6  A    between atoms: C_19  and  C_27
REMARK    7  A    between atoms: C_20  and  C_21
REMARK    8  A    between atoms: C_20  and  O_26
REMARK    9  A    between atoms: O_31  and  C_32
REMARK   10  A    between atoms: C_32  and  C_33
REMARK                            x       y       z     vdW  Elec       q    Type
REMARK                         _______ _______ _______ _____ _____    ______ ____
ROOT
ATOM      1  O   LIG A   1      -7.632   4.642 128.668  0.00  0.00    -0.289 OA
ATOM      2  C   LIG A   1      -6.868   3.904 128.058  0.00  0.00    +0.193 C 
ATOM      3  C   LIG A   1      -6.956   2.442 128.140  0.00  0.00    +0.050 C 
ATOM      4  C   LIG A   1      -6.167   1.917 127.188  0.00  0.00    -0.047 C 
ATOM      5  C   LIG A   1      -6.215   0.445 126.693  0.00  0.00    +0.030 C 
ATOM      6  C   LIG A   1      -7.065  -0.490 127.629  0.00  0.00    +0.187 C 
ATOM      7  C   LIG A   1      -7.445  -1.827 126.974  0.00  0.00    +0.051 C 
ATOM      8  C   LIG A   1      -8.189  -1.627 125.645  0.00  0.00    +0.016 C 
ATOM      9  C   LIG A   1      -8.882  -2.927 125.111  0.00  0.00    +0.031 C 
ATOM     10  C   LIG A   1      -7.982  -4.173 125.105  0.00  0.00    +0.019 C 
ATOM     11  C   LIG A   1      -9.437  -2.719 123.693  0.00  0.00    +0.162 C 
ATOM     12  C   LIG A   1      -9.137  -1.465 122.970  0.00  0.00    +0.043 C 
ATOM     13  C   LIG A   1      -8.181  -0.621 123.377  0.00  0.00    -0.016 C 
ATOM     14  C   LIG A   1      -7.308  -0.837 124.609  0.00  0.00    -0.006 C 
ATOM     15  C   LIG A   1      -6.916   0.546 125.276  0.00  0.00    +0.012 C 
ATOM     16  C   LIG A   1      -6.150   1.541 124.348  0.00  0.00    +0.006 C 
ATOM     17  C   LIG A   1      -6.067   2.954 124.954  0.00  0.00    +0.015 C 
ATOM     18  C   LIG A   1      -5.433   3.000 126.368  0.00  0.00    +0.030 C 
ATOM     19  C   LIG A   1      -5.754   4.360 127.124  0.00  0.00    +0.164 C 
ATOM     20  C   LIG A   1      -3.908   2.798 126.245  0.00  0.00    +0.019 C 
ATOM     21  C   LIG A   1      -6.070  -1.607 124.106  0.00  0.00    +0.016 C 
ATOM     22  O   LIG A   1     -10.133  -3.558 123.126  0.00  0.00    -0.292 OA
ATOM     23  C   LIG A   1     -10.113  -3.251 125.994  0.00  0.00    +0.019 C 
ATOM     24  C   LIG A   1      -4.780  -0.141 126.652  0.00  0.00    +0.020 C 
ENDROOT
BRANCH  19  25
ATOM     25  C   LIG A   1      -4.636   4.962 127.947  0.00  0.00    +0.030 A 
ATOM     26  C   LIG A   1      -3.874   6.071 127.625  0.00  0.00    +0.201 A 
ATOM     27  O   LIG A   1      -2.961   6.337 128.592  0.00  0.00    -0.471 OA
ATOM     28  C   LIG A   1      -3.133   5.408 129.563  0.00  0.00    +0.195 A 
ATOM     29  C   LIG A   1      -4.141   4.540 129.221  0.00  0.00    +0.048 A 
ENDBRANCH  19  25
BRANCH  19  30
ATOM     30  O   LIG A   1      -6.300   5.349 126.248  0.00  0.00    -0.375 OA
ATOM     31  H   LIG A   1      -5.913   6.198 126.543  0.00  0.00    +0.211 HD
ENDBRANCH  19  30
BRANCH   6  32
ATOM     32  O   LIG A   1      -6.292  -0.838 128.809  0.00  0.00    -0.461 OA
BRANCH  32  33
ATOM     33  C   LIG A   1      -6.945  -1.345 129.885  0.00  0.00    +0.304 C 
ATOM     34  C   LIG A   1      -7.948  -0.354 130.395  0.00  0.00    +0.136 C 
ATOM     35  O   LIG A   1      -6.771  -2.455 130.367  0.00  0.00    -0.251 OA
ENDBRANCH  32  33
ENDBRANCH   6  32
TORSDOF 4
ENDMDL
MODEL 9
REMARK VINA RESULT:      -8.0      3.606      7.582
REMARK  Name = NuBBE_857
REMARK  10 active torsions:
REMARK  status: ('A' for Active; 'I' for Inactive)
REMARK    1  A    between atoms: C_5  and  C_35
REMARK    2  A    between atoms: C_6  and  O_31
REMARK    3  A    between atoms: C_10  and  C_11
REMARK    4  A    between atoms: C_10  and  C_30
REMARK    5  A    between atoms: C_15  and  C_28
REMARK    6  A    between atoms: C_19  and  C_27
REMARK    7  A    between atoms: C_20  and  C_21
REMARK    8  A    between atoms: C_20  and  O_26
REMARK    9  A    between atoms: O_31  and  C_32
REMARK   10  A    between atoms: C_32  and  C_33
REMARK                            x       y       z     vdW  Elec       q    Type
REMARK                         _______ _______ _______ _____ _____    ______ ____
ROOT
ATOM      1  O   LIG A   1      -6.990   7.386 130.869  0.00  0.00    -0.289 OA
ATOM      2  C   LIG A   1      -6.188   6.527 130.528  0.00  0.00    +0.193 C 
ATOM      3  C   LIG A   1      -6.585   5.137 130.275  0.00  0.00    +0.050 C 
ATOM      4  C   LIG A   1      -5.556   4.504 129.688  0.00  0.00    -0.047 C 
ATOM      5  C   LIG A   1      -5.646   3.142 128.945  0.00  0.00    +0.030 C 
ATOM      6  C   LIG A   1      -7.002   2.389 129.205  0.00  0.00    +0.187 C 
ATOM      7  C   LIG A   1      -7.275   1.258 128.202  0.00  0.00    +0.051 C 
ATOM      8  C   LIG A   1      -7.241   1.755 126.749  0.00  0.00    +0.016 C 
ATOM      9  C   LIG A   1      -7.833   0.731 125.720  0.00  0.00    +0.031 C 
ATOM     10  C   LIG A   1      -7.299  -0.703 125.869  0.00  0.00    +0.019 C 
ATOM     11  C   LIG A   1      -7.593   1.194 124.275  0.00  0.00    +0.162 C 
ATOM     12  C   LIG A   1      -6.749   2.381 124.020  0.00  0.00    +0.043 C 
ATOM     13  C   LIG A   1      -5.959   2.908 124.964  0.00  0.00    -0.016 C 
ATOM     14  C   LIG A   1      -5.839   2.369 126.386  0.00  0.00    -0.006 C 
ATOM     15  C   LIG A   1      -5.553   3.541 127.414  0.00  0.00    +0.012 C 
ATOM     16  C   LIG A   1      -4.262   4.373 127.134  0.00  0.00    +0.006 C 
ATOM     17  C   LIG A   1      -4.206   5.659 127.979  0.00  0.00    +0.015 C 
ATOM     18  C   LIG A   1      -4.326   5.420 129.506  0.00  0.00    +0.030 C 
ATOM     19  C   LIG A   1      -4.699   6.750 130.293  0.00  0.00    +0.164 C 
ATOM     20  C   LIG A   1      -2.999   4.836 130.033  0.00  0.00    +0.019 C 
ATOM     21  C   LIG A   1      -4.686   1.345 126.341  0.00  0.00    +0.016 C 
ATOM     22  O   LIG A   1      -8.082   0.618 123.306  0.00  0.00    -0.292 OA
ATOM     23  C   LIG A   1      -9.372   0.671 125.886  0.00  0.00    +0.019 C 
ATOM     24  C   LIG A   1      -4.509   2.205 129.427  0.00  0.00    +0.020 C 
ENDROOT
BRANCH  19  25
ATOM     25  C   LIG A   1      -4.016   6.967 131.625  0.00  0.00    +0.030 A 
ATOM     26  C   LIG A   1      -2.990   7.854 131.895  0.00  0.00    +0.201 A 
ATOM     27  O   LIG A   1      -2.616   7.792 133.198  0.00  0.00    -0.471 OA
ATOM     28  C   LIG A   1      -3.412   6.870 133.792  0.00  0.00    +0.195 A 
ATOM     29  C   LIG A   1      -4.284   6.331 132.878  0.00  0.00    +0.048 A 
ENDBRANCH  19  25
BRANCH  19  30
ATOM     30  O   LIG A   1      -4.559   7.916 129.478  0.00  0.00    -0.375 OA
ATOM     31  H   LIG A   1      -5.374   7.953 128.937  0.00  0.00    +0.211 HD
ENDBRANCH  19  30
BRANCH   6  32
ATOM     32  O   LIG A   1      -6.968   1.754 130.511  0.00  0.00    -0.461 OA
BRANCH  32  33
ATOM     33  C   LIG A   1      -8.011   1.953 131.355  0.00  0.00    +0.304 C 
ATOM     34  C   LIG A   1      -7.510   2.321 132.719  0.00  0.00    +0.136 C 
ATOM     35  O   LIG A   1      -9.194   1.873 131.058  0.00  0.00    -0.251 OA
ENDBRANCH  32  33
ENDBRANCH   6  32
TORSDOF 4
ENDMDL
