MODEL 1
REMARK VINA RESULT:      -9.1      0.000      0.000
REMARK  Name = NuBBE_162
REMARK  12 active torsions:
REMARK  status: ('A' for Active; 'I' for Inactive)
REMARK    1  A    between atoms: O_1  and  C_2
REMARK    2  A    between atoms: C_4  and  O_5
REMARK    3  A    between atoms: C_8  and  O_9
REMARK    4  A    between atoms: O_9  and  C_10
REMARK    5  A    between atoms: C_12  and  O_24
REMARK    6  A    between atoms: C_14  and  O_23
REMARK    7  A    between atoms: C_16  and  O_22
REMARK    8  A    between atoms: C_18  and  C_21
REMARK    9  A    between atoms: C_25  and  C_29
REMARK   10  A    between atoms: C_31  and  O_32
REMARK   11  A    between atoms: C_33  and  O_37
REMARK   12  A    between atoms: C_34  and  O_35
REMARK                            x       y       z     vdW  Elec       q    Type
REMARK                         _______ _______ _______ _____ _____    ______ ____
ROOT
ATOM      1  C   LIG A   1      -7.618   4.123 128.177  0.00  0.00    +0.124 A 
ATOM      2  C   LIG A   1      -7.949   2.818 128.543  0.00  0.00    +0.091 A 
ATOM      3  C   LIG A   1      -7.982   1.859 127.560  0.00  0.00    +0.135 A 
ATOM      4  C   LIG A   1      -7.724   2.183 126.215  0.00  0.00    +0.109 A 
ATOM      5  C   LIG A   1      -8.001   1.308 125.123  0.00  0.00    +0.238 A 
ATOM      6  C   LIG A   1      -7.380   1.582 123.760  0.00  0.00    +0.214 A 
ATOM      7  C   LIG A   1      -7.009   2.893 123.553  0.00  0.00    +0.181 A 
ATOM      8  O   LIG A   1      -7.081   3.839 124.587  0.00  0.00    -0.451 OA
ATOM      9  C   LIG A   1      -7.347   3.479 125.875  0.00  0.00    +0.146 A 
ATOM     10  C   LIG A   1      -7.296   4.447 126.859  0.00  0.00    +0.092 A 
ATOM     11  O   LIG A   1      -8.804   0.382 125.366  0.00  0.00    -0.283 OA
ENDROOT
BRANCH   7  12
ATOM     12  C   LIG A   1      -6.545   3.612 122.282  0.00  0.00    +0.028 A 
ATOM     13  C   LIG A   1      -5.356   4.428 122.341  0.00  0.00    +0.061 A 
ATOM     14  C   LIG A   1      -4.878   5.137 121.229  0.00  0.00    +0.163 A 
ATOM     15  C   LIG A   1      -5.575   5.083 120.043  0.00  0.00    +0.201 A 
ATOM     16  C   LIG A   1      -6.685   4.256 119.930  0.00  0.00    +0.163 A 
ATOM     17  C   LIG A   1      -7.167   3.513 121.024  0.00  0.00    +0.061 A 
BRANCH  14  18
ATOM     18  O   LIG A   1      -3.749   5.916 121.212  0.00  0.00    -0.503 OA
ATOM     19  H   LIG A   1      -3.241   5.761 120.399  0.00  0.00    +0.292 HD
ENDBRANCH  14  18
BRANCH  16  20
ATOM     20  O   LIG A   1      -7.306   4.194 118.713  0.00  0.00    -0.503 OA
ATOM     21  H   LIG A   1      -6.885   3.425 118.270  0.00  0.00    +0.292 HD
ENDBRANCH  16  20
BRANCH  15  22
ATOM     22  O   LIG A   1      -5.200   5.872 118.986  0.00  0.00    -0.501 OA
ATOM     23  H   LIG A   1      -5.666   6.721 119.148  0.00  0.00    +0.292 HD
ENDBRANCH  15  22
ENDBRANCH   7  12
BRANCH   1  24
ATOM     24  O   LIG A   1      -7.604   5.126 129.097  0.00  0.00    -0.506 OA
ATOM     25  H   LIG A   1      -6.702   5.222 129.445  0.00  0.00    +0.292 HD
ENDBRANCH   1  24
BRANCH   3  26
ATOM     26  O   LIG A   1      -8.263   0.554 127.913  0.00  0.00    -0.506 OA
ATOM     27  H   LIG A   1      -9.190   0.347 127.707  0.00  0.00    +0.292 HD
ENDBRANCH   3  26
BRANCH   6  28
ATOM     28  O   LIG A   1      -7.278   0.546 122.802  0.00  0.00    -0.453 OA
BRANCH  28  29
ATOM     29  C   LIG A   1      -7.462  -0.802 123.351  0.00  0.00    +0.340 C 
ATOM     30  C   LIG A   1      -8.681  -1.528 122.699  0.00  0.00    +0.214 C 
ATOM     31  C   LIG A   1      -8.791  -2.982 123.225  0.00  0.00    +0.180 C 
ATOM     32  C   LIG A   1      -7.938  -3.187 124.492  0.00  0.00    +0.174 C 
ATOM     33  C   LIG A   1      -6.457  -2.816 124.154  0.00  0.00    +0.150 C 
ATOM     34  O   LIG A   1      -6.329  -1.697 123.223  0.00  0.00    -0.334 OA
ATOM     35  C   LIG A   1      -5.633  -2.550 125.418  0.00  0.00    +0.040 C 
BRANCH  32  36
ATOM     36  O   LIG A   1      -8.053  -4.527 124.987  0.00  0.00    -0.387 OA
ATOM     37  H   LIG A   1      -8.012  -5.144 124.236  0.00  0.00    +0.210 HD
ENDBRANCH  32  36
BRANCH  31  38
ATOM     38  O   LIG A   1     -10.177  -3.337 123.385  0.00  0.00    -0.386 OA
ATOM     39  H   LIG A   1     -10.573  -2.756 124.063  0.00  0.00    +0.210 HD
ENDBRANCH  31  38
BRANCH  30  40
ATOM     40  O   LIG A   1      -9.937  -0.840 122.811  0.00  0.00    -0.383 OA
ATOM     41  H   LIG A   1     -10.605  -1.430 122.409  0.00  0.00    +0.210 HD
ENDBRANCH  30  40
ENDBRANCH  28  29
ENDBRANCH   6  28
TORSDOF 11
ENDMDL
MODEL 2
REMARK VINA RESULT:      -8.8      2.085      2.609
REMARK  Name = NuBBE_162
REMARK  12 active torsions:
REMARK  status: ('A' for Active; 'I' for Inactive)
REMARK    1  A    between atoms: O_1  and  C_2
REMARK    2  A    between atoms: C_4  and  O_5
REMARK    3  A    between atoms: C_8  and  O_9
REMARK    4  A    between atoms: O_9  and  C_10
REMARK    5  A    between atoms: C_12  and  O_24
REMARK    6  A    between atoms: C_14  and  O_23
REMARK    7  A    between atoms: C_16  and  O_22
REMARK    8  A    between atoms: C_18  and  C_21
REMARK    9  A    between atoms: C_25  and  C_29
REMARK   10  A    between atoms: C_31  and  O_32
REMARK   11  A    between atoms: C_33  and  O_37
REMARK   12  A    between atoms: C_34  and  O_35
REMARK                            x       y       z     vdW  Elec       q    Type
REMARK                         _______ _______ _______ _____ _____    ______ ____
ROOT
ATOM      1  C   LIG A   1      -3.168   3.829 127.333  0.00  0.00    +0.124 A 
ATOM      2  C   LIG A   1      -3.730   2.876 128.183  0.00  0.00    +0.091 A 
ATOM      3  C   LIG A   1      -4.844   2.199 127.751  0.00  0.00    +0.135 A 
ATOM      4  C   LIG A   1      -5.430   2.480 126.501  0.00  0.00    +0.109 A 
ATOM      5  C   LIG A   1      -6.721   2.018 126.110  0.00  0.00    +0.238 A 
ATOM      6  C   LIG A   1      -7.126   2.063 124.644  0.00  0.00    +0.214 A 
ATOM      7  C   LIG A   1      -6.434   2.982 123.886  0.00  0.00    +0.181 A 
ATOM      8  O   LIG A   1      -5.354   3.698 124.424  0.00  0.00    -0.451 OA
ATOM      9  C   LIG A   1      -4.827   3.398 125.645  0.00  0.00    +0.146 A 
ATOM     10  C   LIG A   1      -3.698   4.072 126.065  0.00  0.00    +0.092 A 
ATOM     11  O   LIG A   1      -7.465   1.648 127.043  0.00  0.00    -0.283 OA
ENDROOT
BRANCH   7  12
ATOM     12  C   LIG A   1      -6.665   3.474 122.453  0.00  0.00    +0.028 A 
ATOM     13  C   LIG A   1      -7.983   3.349 121.879  0.00  0.00    +0.061 A 
ATOM     14  C   LIG A   1      -8.272   3.753 120.568  0.00  0.00    +0.163 A 
ATOM     15  C   LIG A   1      -7.261   4.261 119.781  0.00  0.00    +0.201 A 
ATOM     16  C   LIG A   1      -5.997   4.457 120.319  0.00  0.00    +0.163 A 
ATOM     17  C   LIG A   1      -5.691   4.086 121.643  0.00  0.00    +0.061 A 
BRANCH  14  18
ATOM     18  O   LIG A   1      -9.502   3.678 119.968  0.00  0.00    -0.503 OA
ATOM     19  H   LIG A   1     -10.087   4.378 120.301  0.00  0.00    +0.292 HD
ENDBRANCH  14  18
BRANCH  16  20
ATOM     20  O   LIG A   1      -5.046   5.020 119.512  0.00  0.00    -0.503 OA
ATOM     21  H   LIG A   1      -4.675   5.750 120.055  0.00  0.00    +0.292 HD
ENDBRANCH  16  20
BRANCH  15  22
ATOM     22  O   LIG A   1      -7.492   4.537 118.458  0.00  0.00    -0.501 OA
ATOM     23  H   LIG A   1      -8.183   5.233 118.478  0.00  0.00    +0.292 HD
ENDBRANCH  15  22
ENDBRANCH   7  12
BRANCH   1  24
ATOM     24  O   LIG A   1      -2.086   4.559 127.717  0.00  0.00    -0.506 OA
ATOM     25  H   LIG A   1      -1.843   5.165 126.997  0.00  0.00    +0.292 HD
ENDBRANCH   1  24
BRANCH   3  26
ATOM     26  O   LIG A   1      -5.385   1.221 128.560  0.00  0.00    -0.506 OA
ATOM     27  H   LIG A   1      -6.231   0.915 128.193  0.00  0.00    +0.292 HD
ENDBRANCH   3  26
BRANCH   6  28
ATOM     28  O   LIG A   1      -8.182   1.247 124.171  0.00  0.00    -0.453 OA
BRANCH  28  29
ATOM     29  C   LIG A   1      -7.899  -0.191 124.219  0.00  0.00    +0.340 C 
ATOM     30  C   LIG A   1      -8.639  -0.962 123.080  0.00  0.00    +0.214 C 
ATOM     31  C   LIG A   1      -8.244  -2.461 123.094  0.00  0.00    +0.180 C 
ATOM     32  C   LIG A   1      -7.557  -2.849 124.418  0.00  0.00    +0.174 C 
ATOM     33  C   LIG A   1      -6.306  -1.930 124.612  0.00  0.00    +0.150 C 
ATOM     34  O   LIG A   1      -6.500  -0.564 124.131  0.00  0.00    -0.334 OA
ATOM     35  C   LIG A   1      -5.829  -1.916 126.068  0.00  0.00    +0.040 C 
BRANCH  32  36
ATOM     36  O   LIG A   1      -7.207  -4.238 124.437  0.00  0.00    -0.387 OA
ATOM     37  H   LIG A   1      -7.663  -4.667 125.182  0.00  0.00    +0.210 HD
ENDBRANCH  32  36
BRANCH  31  38
ATOM     38  O   LIG A   1      -9.390  -3.269 122.768  0.00  0.00    -0.386 OA
ATOM     39  H   LIG A   1      -9.100  -4.011 122.204  0.00  0.00    +0.210 HD
ENDBRANCH  31  38
BRANCH  30  40
ATOM     40  O   LIG A   1     -10.066  -0.803 123.059  0.00  0.00    -0.383 OA
ATOM     41  H   LIG A   1     -10.296  -0.543 122.144  0.00  0.00    +0.210 HD
ENDBRANCH  30  40
ENDBRANCH  28  29
ENDBRANCH   6  28
TORSDOF 11
ENDMDL
MODEL 3
REMARK VINA RESULT:      -8.6      2.457      5.794
REMARK  Name = NuBBE_162
REMARK  12 active torsions:
REMARK  status: ('A' for Active; 'I' for Inactive)
REMARK    1  A    between atoms: O_1  and  C_2
REMARK    2  A    between atoms: C_4  and  O_5
REMARK    3  A    between atoms: C_8  and  O_9
REMARK    4  A    between atoms: O_9  and  C_10
REMARK    5  A    between atoms: C_12  and  O_24
REMARK    6  A    between atoms: C_14  and  O_23
REMARK    7  A    between atoms: C_16  and  O_22
REMARK    8  A    between atoms: C_18  and  C_21
REMARK    9  A    between atoms: C_25  and  C_29
REMARK   10  A    between atoms: C_31  and  O_32
REMARK   11  A    between atoms: C_33  and  O_37
REMARK   12  A    between atoms: C_34  and  O_35
REMARK                            x       y       z     vdW  Elec       q    Type
REMARK                         _______ _______ _______ _____ _____    ______ ____
ROOT
ATOM      1  C   LIG A   1      -5.823   4.810 119.867  0.00  0.00    +0.124 A 
ATOM      2  C   LIG A   1      -7.115   4.362 119.593  0.00  0.00    +0.091 A 
ATOM      3  C   LIG A   1      -7.832   3.791 120.616  0.00  0.00    +0.135 A 
ATOM      4  C   LIG A   1      -7.273   3.626 121.897  0.00  0.00    +0.109 A 
ATOM      5  C   LIG A   1      -7.850   2.811 122.915  0.00  0.00    +0.238 A 
ATOM      6  C   LIG A   1      -7.386   2.962 124.357  0.00  0.00    +0.214 A 
ATOM      7  C   LIG A   1      -6.127   3.502 124.501  0.00  0.00    +0.181 A 
ATOM      8  O   LIG A   1      -5.418   3.993 123.392  0.00  0.00    -0.451 OA
ATOM      9  C   LIG A   1      -6.000   4.123 122.166  0.00  0.00    +0.146 A 
ATOM     10  C   LIG A   1      -5.277   4.713 121.148  0.00  0.00    +0.092 A 
ATOM     11  O   LIG A   1      -8.684   1.969 122.521  0.00  0.00    -0.283 OA
ENDROOT
BRANCH   7  12
ATOM     12  C   LIG A   1      -5.229   3.635 125.735  0.00  0.00    +0.028 A 
ATOM     13  C   LIG A   1      -5.636   4.524 126.797  0.00  0.00    +0.061 A 
ATOM     14  C   LIG A   1      -4.860   4.719 127.949  0.00  0.00    +0.163 A 
ATOM     15  C   LIG A   1      -3.653   4.066 128.068  0.00  0.00    +0.201 A 
ATOM     16  C   LIG A   1      -3.262   3.154 127.100  0.00  0.00    +0.163 A 
ATOM     17  C   LIG A   1      -4.037   2.919 125.948  0.00  0.00    +0.061 A 
BRANCH  14  18
ATOM     18  O   LIG A   1      -5.194   5.535 128.999  0.00  0.00    -0.503 OA
ATOM     19  H   LIG A   1      -5.973   5.190 129.466  0.00  0.00    +0.292 HD
ENDBRANCH  14  18
BRANCH  16  20
ATOM     20  O   LIG A   1      -2.082   2.489 127.296  0.00  0.00    -0.503 OA
ATOM     21  H   LIG A   1      -1.493   3.164 127.701  0.00  0.00    +0.292 HD
ENDBRANCH  16  20
BRANCH  15  22
ATOM     22  O   LIG A   1      -2.821   4.345 129.122  0.00  0.00    -0.501 OA
ATOM     23  H   LIG A   1      -2.049   3.757 128.976  0.00  0.00    +0.292 HD
ENDBRANCH  15  22
ENDBRANCH   7  12
BRANCH   1  24
ATOM     24  O   LIG A   1      -5.047   5.351 118.888  0.00  0.00    -0.506 OA
ATOM     25  H   LIG A   1      -4.660   4.633 118.360  0.00  0.00    +0.292 HD
ENDBRANCH   1  24
BRANCH   3  26
ATOM     26  O   LIG A   1      -9.129   3.384 120.374  0.00  0.00    -0.506 OA
ATOM     27  H   LIG A   1      -9.754   4.041 120.722  0.00  0.00    +0.292 HD
ENDBRANCH   3  26
BRANCH   6  28
ATOM     28  O   LIG A   1      -8.202   2.506 125.420  0.00  0.00    -0.453 OA
BRANCH  28  29
ATOM     29  C   LIG A   1      -7.965   1.110 125.804  0.00  0.00    +0.340 C 
ATOM     30  C   LIG A   1      -9.028   0.152 125.179  0.00  0.00    +0.214 C 
ATOM     31  C   LIG A   1      -8.695  -1.323 125.519  0.00  0.00    +0.180 C 
ATOM     32  C   LIG A   1      -7.667  -1.418 126.665  0.00  0.00    +0.174 C 
ATOM     33  C   LIG A   1      -6.385  -0.629 126.242  0.00  0.00    +0.150 C 
ATOM     34  O   LIG A   1      -6.664   0.571 125.456  0.00  0.00    -0.334 OA
ATOM     35  C   LIG A   1      -5.507  -0.280 127.448  0.00  0.00    +0.040 C 
BRANCH  32  36
ATOM     36  O   LIG A   1      -7.373  -2.782 126.990  0.00  0.00    -0.387 OA
ATOM     37  H   LIG A   1      -6.489  -3.003 126.648  0.00  0.00    +0.210 HD
ENDBRANCH  32  36
BRANCH  31  38
ATOM     38  O   LIG A   1      -9.913  -2.052 125.760  0.00  0.00    -0.386 OA
ATOM     39  H   LIG A   1     -10.664  -1.528 125.423  0.00  0.00    +0.210 HD
ENDBRANCH  31  38
BRANCH  30  40
ATOM     40  O   LIG A   1     -10.394   0.462 125.496  0.00  0.00    -0.383 OA
ATOM     41  H   LIG A   1     -10.790   0.812 124.672  0.00  0.00    +0.210 HD
ENDBRANCH  30  40
ENDBRANCH  28  29
ENDBRANCH   6  28
TORSDOF 11
ENDMDL
MODEL 4
REMARK VINA RESULT:      -8.1      3.656      7.346
REMARK  Name = NuBBE_162
REMARK  12 active torsions:
REMARK  status: ('A' for Active; 'I' for Inactive)
REMARK    1  A    between atoms: O_1  and  C_2
REMARK    2  A    between atoms: C_4  and  O_5
REMARK    3  A    between atoms: C_8  and  O_9
REMARK    4  A    between atoms: O_9  and  C_10
REMARK    5  A    between atoms: C_12  and  O_24
REMARK    6  A    between atoms: C_14  and  O_23
REMARK    7  A    between atoms: C_16  and  O_22
REMARK    8  A    between atoms: C_18  and  C_21
REMARK    9  A    between atoms: C_25  and  C_29
REMARK   10  A    between atoms: C_31  and  O_32
REMARK   11  A    between atoms: C_33  and  O_37
REMARK   12  A    between atoms: C_34  and  O_35
REMARK                            x       y       z     vdW  Elec       q    Type
REMARK                         _______ _______ _______ _____ _____    ______ ____
ROOT
ATOM      1  C   LIG A   1      -2.802   5.679 128.051  0.00  0.00    +0.124 A 
ATOM      2  C   LIG A   1      -2.444   4.460 127.476  0.00  0.00    +0.091 A 
ATOM      3  C   LIG A   1      -3.352   3.431 127.521  0.00  0.00    +0.135 A 
ATOM      4  C   LIG A   1      -4.597   3.583 128.160  0.00  0.00    +0.109 A 
ATOM      5  C   LIG A   1      -5.463   2.495 128.477  0.00  0.00    +0.238 A 
ATOM      6  C   LIG A   1      -6.917   2.768 128.838  0.00  0.00    +0.214 A 
ATOM      7  C   LIG A   1      -7.161   4.040 129.309  0.00  0.00    +0.181 A 
ATOM      8  O   LIG A   1      -6.156   5.019 129.308  0.00  0.00    -0.451 OA
ATOM      9  C   LIG A   1      -4.958   4.821 128.685  0.00  0.00    +0.146 A 
ATOM     10  C   LIG A   1      -4.058   5.866 128.630  0.00  0.00    +0.092 A 
ATOM     11  O   LIG A   1      -4.928   1.367 128.485  0.00  0.00    -0.283 OA
ENDROOT
BRANCH   7  12
ATOM     12  C   LIG A   1      -8.413   4.644 129.954  0.00  0.00    +0.028 A 
ATOM     13  C   LIG A   1      -8.648   4.419 131.360  0.00  0.00    +0.061 A 
ATOM     14  C   LIG A   1      -9.780   4.918 132.020  0.00  0.00    +0.163 A 
ATOM     15  C   LIG A   1     -10.722   5.624 131.304  0.00  0.00    +0.201 A 
ATOM     16  C   LIG A   1     -10.498   5.917 129.966  0.00  0.00    +0.163 A 
ATOM     17  C   LIG A   1      -9.354   5.451 129.289  0.00  0.00    +0.061 A 
BRANCH  14  18
ATOM     18  O   LIG A   1     -10.056   4.754 133.353  0.00  0.00    -0.503 OA
ATOM     19  H   LIG A   1      -9.812   3.861 133.644  0.00  0.00    +0.292 HD
ENDBRANCH  14  18
BRANCH  16  20
ATOM     20  O   LIG A   1     -11.437   6.672 129.318  0.00  0.00    -0.503 OA
ATOM     21  H   LIG A   1     -11.407   6.344 128.392  0.00  0.00    +0.292 HD
ENDBRANCH  16  20
BRANCH  15  22
ATOM     22  O   LIG A   1     -11.897   6.004 131.900  0.00  0.00    -0.501 OA
ATOM     23  H   LIG A   1     -11.798   6.973 132.022  0.00  0.00    +0.292 HD
ENDBRANCH  15  22
ENDBRANCH   7  12
BRANCH   1  24
ATOM     24  O   LIG A   1      -1.934   6.726 128.072  0.00  0.00    -0.506 OA
ATOM     25  H   LIG A   1      -1.634   6.869 128.986  0.00  0.00    +0.292 HD
ENDBRANCH   1  24
BRANCH   3  26
ATOM     26  O   LIG A   1      -3.030   2.232 126.917  0.00  0.00    -0.506 OA
ATOM     27  H   LIG A   1      -3.382   2.211 126.011  0.00  0.00    +0.292 HD
ENDBRANCH   3  26
BRANCH   6  28
ATOM     28  O   LIG A   1      -7.882   1.738 128.737  0.00  0.00    -0.453 OA
BRANCH  28  29
ATOM     29  C   LIG A   1      -8.044   1.196 127.384  0.00  0.00    +0.340 C 
ATOM     30  C   LIG A   1      -7.909  -0.360 127.367  0.00  0.00    +0.214 C 
ATOM     31  C   LIG A   1      -8.183  -0.913 125.945  0.00  0.00    +0.180 C 
ATOM     32  C   LIG A   1      -8.132   0.207 124.887  0.00  0.00    +0.174 C 
ATOM     33  C   LIG A   1      -9.174   1.304 125.280  0.00  0.00    +0.150 C 
ATOM     34  O   LIG A   1      -9.295   1.511 126.722  0.00  0.00    -0.334 OA
ATOM     35  C   LIG A   1      -8.893   2.636 124.576  0.00  0.00    +0.040 C 
BRANCH  32  36
ATOM     36  O   LIG A   1      -8.368  -0.307 123.571  0.00  0.00    -0.387 OA
ATOM     37  H   LIG A   1      -8.656   0.423 122.995  0.00  0.00    +0.210 HD
ENDBRANCH  32  36
BRANCH  31  38
ATOM     38  O   LIG A   1      -7.300  -2.018 125.675  0.00  0.00    -0.386 OA
ATOM     39  H   LIG A   1      -6.772  -1.810 124.881  0.00  0.00    +0.210 HD
ENDBRANCH  31  38
BRANCH  30  40
ATOM     40  O   LIG A   1      -6.676  -0.874 127.894  0.00  0.00    -0.383 OA
ATOM     41  H   LIG A   1      -6.918  -1.649 128.441  0.00  0.00    +0.210 HD
ENDBRANCH  30  40
ENDBRANCH  28  29
ENDBRANCH   6  28
TORSDOF 11
ENDMDL
MODEL 5
REMARK VINA RESULT:      -8.1      3.582      7.690
REMARK  Name = NuBBE_162
REMARK  12 active torsions:
REMARK  status: ('A' for Active; 'I' for Inactive)
REMARK    1  A    between atoms: O_1  and  C_2
REMARK    2  A    between atoms: C_4  and  O_5
REMARK    3  A    between atoms: C_8  and  O_9
REMARK    4  A    between atoms: O_9  and  C_10
REMARK    5  A    between atoms: C_12  and  O_24
REMARK    6  A    between atoms: C_14  and  O_23
REMARK    7  A    between atoms: C_16  and  O_22
REMARK    8  A    between atoms: C_18  and  C_21
REMARK    9  A    between atoms: C_25  and  C_29
REMARK   10  A    between atoms: C_31  and  O_32
REMARK   11  A    between atoms: C_33  and  O_37
REMARK   12  A    between atoms: C_34  and  O_35
REMARK                            x       y       z     vdW  Elec       q    Type
REMARK                         _______ _______ _______ _____ _____    ______ ____
ROOT
ATOM      1  C   LIG A   1     -11.112   6.011 131.475  0.00  0.00    +0.124 A 
ATOM      2  C   LIG A   1     -10.236   6.127 132.554  0.00  0.00    +0.091 A 
ATOM      3  C   LIG A   1      -9.004   5.528 132.455  0.00  0.00    +0.135 A 
ATOM      4  C   LIG A   1      -8.642   4.786 131.315  0.00  0.00    +0.109 A 
ATOM      5  C   LIG A   1      -7.506   3.926 131.258  0.00  0.00    +0.238 A 
ATOM      6  C   LIG A   1      -6.991   3.444 129.908  0.00  0.00    +0.214 A 
ATOM      7  C   LIG A   1      -7.928   3.462 128.898  0.00  0.00    +0.181 A 
ATOM      8  O   LIG A   1      -9.200   4.019 129.100  0.00  0.00    -0.451 OA
ATOM      9  C   LIG A   1      -9.509   4.721 130.227  0.00  0.00    +0.146 A 
ATOM     10  C   LIG A   1     -10.743   5.334 130.311  0.00  0.00    +0.092 A 
ATOM     11  O   LIG A   1      -7.037   3.580 132.363  0.00  0.00    -0.283 OA
ENDROOT
BRANCH   7  12
ATOM     12  C   LIG A   1      -7.880   2.887 127.479  0.00  0.00    +0.028 A 
ATOM     13  C   LIG A   1      -7.938   3.795 126.359  0.00  0.00    +0.061 A 
ATOM     14  C   LIG A   1      -7.923   3.348 125.030  0.00  0.00    +0.163 A 
ATOM     15  C   LIG A   1      -7.880   1.996 124.773  0.00  0.00    +0.201 A 
ATOM     16  C   LIG A   1      -7.757   1.096 125.822  0.00  0.00    +0.163 A 
ATOM     17  C   LIG A   1      -7.741   1.522 127.164  0.00  0.00    +0.061 A 
BRANCH  14  18
ATOM     18  O   LIG A   1      -7.960   4.156 123.922  0.00  0.00    -0.503 OA
ATOM     19  H   LIG A   1      -8.083   3.625 123.118  0.00  0.00    +0.292 HD
ENDBRANCH  14  18
BRANCH  16  20
ATOM     20  O   LIG A   1      -7.659  -0.232 125.509  0.00  0.00    -0.503 OA
ATOM     21  H   LIG A   1      -8.268  -0.672 126.142  0.00  0.00    +0.292 HD
ENDBRANCH  16  20
BRANCH  15  22
ATOM     22  O   LIG A   1      -7.999   1.535 123.488  0.00  0.00    -0.501 OA
ATOM     23  H   LIG A   1      -7.119   1.146 123.293  0.00  0.00    +0.292 HD
ENDBRANCH  15  22
ENDBRANCH   7  12
BRANCH   1  24
ATOM     24  O   LIG A   1     -12.360   6.550 131.524  0.00  0.00    -0.506 OA
ATOM     25  H   LIG A   1     -12.472   7.155 130.773  0.00  0.00    +0.292 HD
ENDBRANCH   1  24
BRANCH   3  26
ATOM     26  O   LIG A   1      -8.108   5.673 133.495  0.00  0.00    -0.506 OA
ATOM     27  H   LIG A   1      -8.490   6.238 134.187  0.00  0.00    +0.292 HD
ENDBRANCH   3  26
BRANCH   6  28
ATOM     28  O   LIG A   1      -5.665   2.966 129.781  0.00  0.00    -0.453 OA
BRANCH  28  29
ATOM     29  C   LIG A   1      -4.707   3.970 129.306  0.00  0.00    +0.340 C 
ATOM     30  C   LIG A   1      -3.971   3.497 128.013  0.00  0.00    +0.214 C 
ATOM     31  C   LIG A   1      -3.040   4.616 127.479  0.00  0.00    +0.180 C 
ATOM     32  C   LIG A   1      -2.803   5.706 128.543  0.00  0.00    +0.174 C 
ATOM     33  C   LIG A   1      -4.191   6.281 128.976  0.00  0.00    +0.150 C 
ATOM     34  O   LIG A   1      -5.256   5.281 129.015  0.00  0.00    -0.334 OA
ATOM     35  C   LIG A   1      -4.110   7.020 130.316  0.00  0.00    +0.040 C 
BRANCH  32  36
ATOM     36  O   LIG A   1      -1.930   6.731 128.054  0.00  0.00    -0.387 OA
ATOM     37  H   LIG A   1      -1.314   6.339 127.410  0.00  0.00    +0.210 HD
ENDBRANCH  32  36
BRANCH  31  38
ATOM     38  O   LIG A   1      -1.832   4.034 126.954  0.00  0.00    -0.386 OA
ATOM     39  H   LIG A   1      -1.981   3.080 126.811  0.00  0.00    +0.210 HD
ENDBRANCH  31  38
BRANCH  30  40
ATOM     40  O   LIG A   1      -3.268   2.250 128.128  0.00  0.00    -0.383 OA
ATOM     41  H   LIG A   1      -2.519   2.302 127.501  0.00  0.00    +0.210 HD
ENDBRANCH  30  40
ENDBRANCH  28  29
ENDBRANCH   6  28
TORSDOF 11
ENDMDL
MODEL 6
REMARK VINA RESULT:      -8.0      3.568      8.442
REMARK  Name = NuBBE_162
REMARK  12 active torsions:
REMARK  status: ('A' for Active; 'I' for Inactive)
REMARK    1  A    between atoms: O_1  and  C_2
REMARK    2  A    between atoms: C_4  and  O_5
REMARK    3  A    between atoms: C_8  and  O_9
REMARK    4  A    between atoms: O_9  and  C_10
REMARK    5  A    between atoms: C_12  and  O_24
REMARK    6  A    between atoms: C_14  and  O_23
REMARK    7  A    between atoms: C_16  and  O_22
REMARK    8  A    between atoms: C_18  and  C_21
REMARK    9  A    between atoms: C_25  and  C_29
REMARK   10  A    between atoms: C_31  and  O_32
REMARK   11  A    between atoms: C_33  and  O_37
REMARK   12  A    between atoms: C_34  and  O_35
REMARK                            x       y       z     vdW  Elec       q    Type
REMARK                         _______ _______ _______ _____ _____    ______ ____
ROOT
ATOM      1  C   LIG A   1      -6.769   3.237 123.059  0.00  0.00    +0.124 A 
ATOM      2  C   LIG A   1      -8.067   2.762 123.248  0.00  0.00    +0.091 A 
ATOM      3  C   LIG A   1      -8.576   2.762 124.524  0.00  0.00    +0.135 A 
ATOM      4  C   LIG A   1      -7.803   3.193 125.619  0.00  0.00    +0.109 A 
ATOM      5  C   LIG A   1      -8.164   2.970 126.980  0.00  0.00    +0.238 A 
ATOM      6  C   LIG A   1      -7.474   3.760 128.084  0.00  0.00    +0.214 A 
ATOM      7  C   LIG A   1      -6.235   4.257 127.743  0.00  0.00    +0.181 A 
ATOM      8  O   LIG A   1      -5.745   4.146 126.432  0.00  0.00    -0.451 OA
ATOM      9  C   LIG A   1      -6.528   3.710 125.405  0.00  0.00    +0.146 A 
ATOM     10  C   LIG A   1      -6.014   3.729 124.124  0.00  0.00    +0.092 A 
ATOM     11  O   LIG A   1      -9.013   2.073 127.172  0.00  0.00    -0.283 OA
ENDROOT
BRANCH   7  12
ATOM     12  C   LIG A   1      -5.151   4.917 128.602  0.00  0.00    +0.028 A 
ATOM     13  C   LIG A   1      -4.023   5.532 127.944  0.00  0.00    +0.061 A 
ATOM     14  C   LIG A   1      -2.978   6.137 128.658  0.00  0.00    +0.163 A 
ATOM     15  C   LIG A   1      -3.005   6.123 130.035  0.00  0.00    +0.201 A 
ATOM     16  C   LIG A   1      -4.104   5.600 130.700  0.00  0.00    +0.163 A 
ATOM     17  C   LIG A   1      -5.179   5.013 130.005  0.00  0.00    +0.061 A 
BRANCH  14  18
ATOM     18  O   LIG A   1      -1.888   6.751 128.097  0.00  0.00    -0.503 OA
ATOM     19  H   LIG A   1      -2.146   7.244 127.301  0.00  0.00    +0.292 HD
ENDBRANCH  14  18
BRANCH  16  20
ATOM     20  O   LIG A   1      -4.106   5.664 132.067  0.00  0.00    -0.503 OA
ATOM     21  H   LIG A   1      -4.961   6.097 132.284  0.00  0.00    +0.292 HD
ENDBRANCH  16  20
BRANCH  15  22
ATOM     22  O   LIG A   1      -1.931   6.588 130.749  0.00  0.00    -0.501 OA
ATOM     23  H   LIG A   1      -2.321   6.878 131.602  0.00  0.00    +0.292 HD
ENDBRANCH  15  22
ENDBRANCH   7  12
BRANCH   1  24
ATOM     24  O   LIG A   1      -6.194   3.229 121.825  0.00  0.00    -0.506 OA
ATOM     25  H   LIG A   1      -6.635   3.892 121.268  0.00  0.00    +0.292 HD
ENDBRANCH   1  24
BRANCH   3  26
ATOM     26  O   LIG A   1      -9.874   2.338 124.723  0.00  0.00    -0.506 OA
ATOM     27  H   LIG A   1      -9.935   1.377 124.587  0.00  0.00    +0.292 HD
ENDBRANCH   3  26
BRANCH   6  28
ATOM     28  O   LIG A   1      -8.079   3.884 129.357  0.00  0.00    -0.453 OA
BRANCH  28  29
ATOM     29  C   LIG A   1      -9.183   4.848 129.408  0.00  0.00    +0.340 C 
ATOM     30  C   LIG A   1      -9.741   5.008 130.857  0.00  0.00    +0.214 C 
ATOM     31  C   LIG A   1     -10.837   6.103 130.899  0.00  0.00    +0.180 C 
ATOM     32  C   LIG A   1     -11.338   6.451 129.482  0.00  0.00    +0.174 C 
ATOM     33  C   LIG A   1     -10.112   6.907 128.625  0.00  0.00    +0.150 C 
ATOM     34  O   LIG A   1      -8.879   6.183 128.930  0.00  0.00    -0.334 OA
ATOM     35  C   LIG A   1     -10.409   6.837 127.124  0.00  0.00    +0.040 C 
BRANCH  32  36
ATOM     36  O   LIG A   1     -12.363   7.451 129.523  0.00  0.00    -0.387 OA
ATOM     37  H   LIG A   1     -12.937   7.344 128.744  0.00  0.00    +0.210 HD
ENDBRANCH  32  36
BRANCH  31  38
ATOM     38  O   LIG A   1     -11.880   5.713 131.811  0.00  0.00    -0.386 OA
ATOM     39  H   LIG A   1     -11.888   6.335 132.563  0.00  0.00    +0.210 HD
ENDBRANCH  31  38
BRANCH  30  40
ATOM     40  O   LIG A   1     -10.197   3.794 131.476  0.00  0.00    -0.383 OA
ATOM     41  H   LIG A   1     -10.414   3.183 130.744  0.00  0.00    +0.210 HD
ENDBRANCH  30  40
ENDBRANCH  28  29
ENDBRANCH   6  28
TORSDOF 11
ENDMDL
MODEL 7
REMARK VINA RESULT:      -8.0      3.874      7.880
REMARK  Name = NuBBE_162
REMARK  12 active torsions:
REMARK  status: ('A' for Active; 'I' for Inactive)
REMARK    1  A    between atoms: O_1  and  C_2
REMARK    2  A    between atoms: C_4  and  O_5
REMARK    3  A    between atoms: C_8  and  O_9
REMARK    4  A    between atoms: O_9  and  C_10
REMARK    5  A    between atoms: C_12  and  O_24
REMARK    6  A    between atoms: C_14  and  O_23
REMARK    7  A    between atoms: C_16  and  O_22
REMARK    8  A    between atoms: C_18  and  C_21
REMARK    9  A    between atoms: C_25  and  C_29
REMARK   10  A    between atoms: C_31  and  O_32
REMARK   11  A    between atoms: C_33  and  O_37
REMARK   12  A    between atoms: C_34  and  O_35
REMARK                            x       y       z     vdW  Elec       q    Type
REMARK                         _______ _______ _______ _____ _____    ______ ____
ROOT
ATOM      1  C   LIG A   1      -2.824   3.616 126.950  0.00  0.00    +0.124 A 
ATOM      2  C   LIG A   1      -3.214   4.659 127.790  0.00  0.00    +0.091 A 
ATOM      3  C   LIG A   1      -4.512   4.678 128.239  0.00  0.00    +0.135 A 
ATOM      4  C   LIG A   1      -5.438   3.696 127.838  0.00  0.00    +0.109 A 
ATOM      5  C   LIG A   1      -6.845   3.803 128.043  0.00  0.00    +0.238 A 
ATOM      6  C   LIG A   1      -7.724   2.567 127.905  0.00  0.00    +0.214 A 
ATOM      7  C   LIG A   1      -7.187   1.567 127.125  0.00  0.00    +0.181 A 
ATOM      8  O   LIG A   1      -5.876   1.656 126.631  0.00  0.00    -0.451 OA
ATOM      9  C   LIG A   1      -5.018   2.634 127.040  0.00  0.00    +0.146 A 
ATOM     10  C   LIG A   1      -3.711   2.599 126.597  0.00  0.00    +0.092 A 
ATOM     11  O   LIG A   1      -7.268   4.955 128.276  0.00  0.00    -0.283 OA
ENDROOT
BRANCH   7  12
ATOM     12  C   LIG A   1      -7.813   0.277 126.582  0.00  0.00    +0.028 A 
ATOM     13  C   LIG A   1      -8.414   0.296 125.270  0.00  0.00    +0.061 A 
ATOM     14  C   LIG A   1      -9.027  -0.834 124.710  0.00  0.00    +0.163 A 
ATOM     15  C   LIG A   1      -9.088  -2.000 125.441  0.00  0.00    +0.201 A 
ATOM     16  C   LIG A   1      -8.463  -2.075 126.678  0.00  0.00    +0.163 A 
ATOM     17  C   LIG A   1      -7.817  -0.962 127.248  0.00  0.00    +0.061 A 
BRANCH  14  18
ATOM     18  O   LIG A   1      -9.602  -0.889 123.467  0.00  0.00    -0.503 OA
ATOM     19  H   LIG A   1     -10.315  -1.549 123.450  0.00  0.00    +0.292 HD
ENDBRANCH  14  18
BRANCH  16  20
ATOM     20  O   LIG A   1      -8.504  -3.274 127.336  0.00  0.00    -0.503 OA
ATOM     21  H   LIG A   1      -7.827  -3.819 126.878  0.00  0.00    +0.292 HD
ENDBRANCH  16  20
BRANCH  15  22
ATOM     22  O   LIG A   1      -9.798  -3.073 124.968  0.00  0.00    -0.501 OA
ATOM     23  H   LIG A   1     -10.735  -2.791 125.047  0.00  0.00    +0.292 HD
ENDBRANCH  15  22
ENDBRANCH   7  12
BRANCH   1  24
ATOM     24  O   LIG A   1      -1.563   3.560 126.442  0.00  0.00    -0.506 OA
ATOM     25  H   LIG A   1      -1.241   4.466 126.299  0.00  0.00    +0.292 HD
ENDBRANCH   1  24
BRANCH   3  26
ATOM     26  O   LIG A   1      -4.902   5.678 129.106  0.00  0.00    -0.506 OA
ATOM     27  H   LIG A   1      -5.835   5.561 129.352  0.00  0.00    +0.292 HD
ENDBRANCH   3  26
BRANCH   6  28
ATOM     28  O   LIG A   1      -9.007   2.535 128.501  0.00  0.00    -0.453 OA
BRANCH  28  29
ATOM     29  C   LIG A   1      -9.006   2.793 129.945  0.00  0.00    +0.340 C 
ATOM     30  C   LIG A   1     -10.099   3.835 130.344  0.00  0.00    +0.214 C 
ATOM     31  C   LIG A   1     -10.141   4.013 131.884  0.00  0.00    +0.180 C 
ATOM     32  C   LIG A   1      -8.881   3.430 132.552  0.00  0.00    +0.174 C 
ATOM     33  C   LIG A   1      -8.767   1.922 132.158  0.00  0.00    +0.150 C 
ATOM     34  O   LIG A   1      -9.208   1.635 130.794  0.00  0.00    -0.334 OA
ATOM     35  C   LIG A   1      -7.351   1.379 132.382  0.00  0.00    +0.040 C 
BRANCH  32  36
ATOM     36  O   LIG A   1      -8.913   3.610 133.973  0.00  0.00    -0.387 OA
ATOM     37  H   LIG A   1      -9.688   4.153 134.204  0.00  0.00    +0.210 HD
ENDBRANCH  32  36
BRANCH  31  38
ATOM     38  O   LIG A   1     -10.394   5.393 132.207  0.00  0.00    -0.386 OA
ATOM     39  H   LIG A   1     -10.557   5.884 131.379  0.00  0.00    +0.210 HD
ENDBRANCH  31  38
BRANCH  30  40
ATOM     40  O   LIG A   1     -10.008   5.105 129.678  0.00  0.00    -0.383 OA
ATOM     41  H   LIG A   1      -9.079   5.187 129.380  0.00  0.00    +0.210 HD
ENDBRANCH  30  40
ENDBRANCH  28  29
ENDBRANCH   6  28
TORSDOF 11
ENDMDL
MODEL 8
REMARK VINA RESULT:      -7.9      3.645      8.589
REMARK  Name = NuBBE_162
REMARK  12 active torsions:
REMARK  status: ('A' for Active; 'I' for Inactive)
REMARK    1  A    between atoms: O_1  and  C_2
REMARK    2  A    between atoms: C_4  and  O_5
REMARK    3  A    between atoms: C_8  and  O_9
REMARK    4  A    between atoms: O_9  and  C_10
REMARK    5  A    between atoms: C_12  and  O_24
REMARK    6  A    between atoms: C_14  and  O_23
REMARK    7  A    between atoms: C_16  and  O_22
REMARK    8  A    between atoms: C_18  and  C_21
REMARK    9  A    between atoms: C_25  and  C_29
REMARK   10  A    between atoms: C_31  and  O_32
REMARK   11  A    between atoms: C_33  and  O_37
REMARK   12  A    between atoms: C_34  and  O_35
REMARK                            x       y       z     vdW  Elec       q    Type
REMARK                         _______ _______ _______ _____ _____    ______ ____
ROOT
ATOM      1  C   LIG A   1      -8.966  -2.899 124.469  0.00  0.00    +0.124 A 
ATOM      2  C   LIG A   1      -7.667  -3.151 124.027  0.00  0.00    +0.091 A 
ATOM      3  C   LIG A   1      -6.633  -2.488 124.642  0.00  0.00    +0.135 A 
ATOM      4  C   LIG A   1      -6.873  -1.552 125.666  0.00  0.00    +0.109 A 
ATOM      5  C   LIG A   1      -5.889  -0.643 126.155  0.00  0.00    +0.238 A 
ATOM      6  C   LIG A   1      -6.117   0.077 127.477  0.00  0.00    +0.214 A 
ATOM      7  C   LIG A   1      -7.438   0.182 127.852  0.00  0.00    +0.181 A 
ATOM      8  O   LIG A   1      -8.452  -0.459 127.122  0.00  0.00    -0.451 OA
ATOM      9  C   LIG A   1      -8.171  -1.350 126.129  0.00  0.00    +0.146 A 
ATOM     10  C   LIG A   1      -9.215  -2.024 125.527  0.00  0.00    +0.092 A 
ATOM     11  O   LIG A   1      -4.905  -0.463 125.406  0.00  0.00    -0.283 OA
ENDROOT
BRANCH   7  12
ATOM     12  C   LIG A   1      -8.098   0.985 128.978  0.00  0.00    +0.028 A 
ATOM     13  C   LIG A   1      -8.050   0.462 130.323  0.00  0.00    +0.061 A 
ATOM     14  C   LIG A   1      -8.648   1.123 131.405  0.00  0.00    +0.163 A 
ATOM     15  C   LIG A   1      -9.333   2.298 131.184  0.00  0.00    +0.201 A 
ATOM     16  C   LIG A   1      -9.344   2.864 129.917  0.00  0.00    +0.163 A 
ATOM     17  C   LIG A   1      -8.726   2.234 128.820  0.00  0.00    +0.061 A 
BRANCH  14  18
ATOM     18  O   LIG A   1      -8.627   0.692 132.707  0.00  0.00    -0.503 OA
ATOM     19  H   LIG A   1      -8.838  -0.255 132.756  0.00  0.00    +0.292 HD
ENDBRANCH  14  18
BRANCH  16  20
ATOM     20  O   LIG A   1      -9.989   4.061 129.764  0.00  0.00    -0.503 OA
ATOM     21  H   LIG A   1     -10.886   3.897 130.131  0.00  0.00    +0.292 HD
ENDBRANCH  16  20
BRANCH  15  22
ATOM     22  O   LIG A   1     -10.036   2.887 132.202  0.00  0.00    -0.501 OA
ATOM     23  H   LIG A   1     -10.691   2.205 132.464  0.00  0.00    +0.292 HD
ENDBRANCH  15  22
ENDBRANCH   7  12
BRANCH   1  24
ATOM     24  O   LIG A   1     -10.036  -3.496 123.876  0.00  0.00    -0.506 OA
ATOM     25  H   LIG A   1     -10.276  -4.288 124.385  0.00  0.00    +0.292 HD
ENDBRANCH   1  24
BRANCH   3  26
ATOM     26  O   LIG A   1      -5.339  -2.760 124.248  0.00  0.00    -0.506 OA
ATOM     27  H   LIG A   1      -5.002  -3.536 124.725  0.00  0.00    +0.292 HD
ENDBRANCH   3  26
BRANCH   6  28
ATOM     28  O   LIG A   1      -5.023   0.630 128.185  0.00  0.00    -0.453 OA
BRANCH  28  29
ATOM     29  C   LIG A   1      -4.830   2.068 127.968  0.00  0.00    +0.340 C 
ATOM     30  C   LIG A   1      -4.387   2.793 129.278  0.00  0.00    +0.214 C 
ATOM     31  C   LIG A   1      -4.095   4.289 128.997  0.00  0.00    +0.180 C 
ATOM     32  C   LIG A   1      -4.674   4.729 127.637  0.00  0.00    +0.174 C 
ATOM     33  C   LIG A   1      -4.067   3.813 126.524  0.00  0.00    +0.150 C 
ATOM     34  O   LIG A   1      -3.866   2.429 126.947  0.00  0.00    -0.334 OA
ATOM     35  C   LIG A   1      -4.895   3.858 125.235  0.00  0.00    +0.040 C 
BRANCH  32  36
ATOM     36  O   LIG A   1      -4.418   6.116 127.386  0.00  0.00    -0.387 OA
ATOM     37  H   LIG A   1      -5.014   6.651 127.938  0.00  0.00    +0.210 HD
ENDBRANCH  32  36
BRANCH  31  38
ATOM     38  O   LIG A   1      -4.536   5.088 130.110  0.00  0.00    -0.386 OA
ATOM     39  H   LIG A   1      -5.191   4.577 130.622  0.00  0.00    +0.210 HD
ENDBRANCH  31  38
BRANCH  30  40
ATOM     40  O   LIG A   1      -5.277   2.640 130.395  0.00  0.00    -0.383 OA
ATOM     41  H   LIG A   1      -5.729   1.781 130.264  0.00  0.00    +0.210 HD
ENDBRANCH  30  40
ENDBRANCH  28  29
ENDBRANCH   6  28
TORSDOF 11
ENDMDL
MODEL 9
REMARK VINA RESULT:      -7.9      4.002      8.174
REMARK  Name = NuBBE_162
REMARK  12 active torsions:
REMARK  status: ('A' for Active; 'I' for Inactive)
REMARK    1  A    between atoms: O_1  and  C_2
REMARK    2  A    between atoms: C_4  and  O_5
REMARK    3  A    between atoms: C_8  and  O_9
REMARK    4  A    between atoms: O_9  and  C_10
REMARK    5  A    between atoms: C_12  and  O_24
REMARK    6  A    between atoms: C_14  and  O_23
REMARK    7  A    between atoms: C_16  and  O_22
REMARK    8  A    between atoms: C_18  and  C_21
REMARK    9  A    between atoms: C_25  and  C_29
REMARK   10  A    between atoms: C_31  and  O_32
REMARK   11  A    between atoms: C_33  and  O_37
REMARK   12  A    between atoms: C_34  and  O_35
REMARK                            x       y       z     vdW  Elec       q    Type
REMARK                         _______ _______ _______ _____ _____    ______ ____
ROOT
ATOM      1  C   LIG A   1      -8.169  -3.106 128.462  0.00  0.00    +0.124 A 
ATOM      2  C   LIG A   1      -8.019  -3.313 129.833  0.00  0.00    +0.091 A 
ATOM      3  C   LIG A   1      -7.601  -2.257 130.606  0.00  0.00    +0.135 A 
ATOM      4  C   LIG A   1      -7.296  -1.008 130.032  0.00  0.00    +0.109 A 
ATOM      5  C   LIG A   1      -6.610   0.034 130.722  0.00  0.00    +0.238 A 
ATOM      6  C   LIG A   1      -6.632   1.451 130.164  0.00  0.00    +0.214 A 
ATOM      7  C   LIG A   1      -6.882   1.530 128.812  0.00  0.00    +0.181 A 
ATOM      8  O   LIG A   1      -7.224   0.389 128.070  0.00  0.00    -0.451 OA
ATOM      9  C   LIG A   1      -7.499  -0.805 128.669  0.00  0.00    +0.146 A 
ATOM     10  C   LIG A   1      -7.934  -1.856 127.887  0.00  0.00    +0.092 A 
ATOM     11  O   LIG A   1      -5.977  -0.320 131.739  0.00  0.00    -0.283 OA
ENDROOT
BRANCH   7  12
ATOM     12  C   LIG A   1      -6.794   2.717 127.846  0.00  0.00    +0.028 A 
ATOM     13  C   LIG A   1      -7.843   2.898 126.872  0.00  0.00    +0.061 A 
ATOM     14  C   LIG A   1      -7.826   3.944 125.938  0.00  0.00    +0.163 A 
ATOM     15  C   LIG A   1      -6.761   4.818 125.923  0.00  0.00    +0.201 A 
ATOM     16  C   LIG A   1      -5.768   4.715 126.887  0.00  0.00    +0.163 A 
ATOM     17  C   LIG A   1      -5.778   3.690 127.853  0.00  0.00    +0.061 A 
BRANCH  14  18
ATOM     18  O   LIG A   1      -8.795   4.183 124.998  0.00  0.00    -0.503 OA
ATOM     19  H   LIG A   1      -8.793   5.118 124.736  0.00  0.00    +0.292 HD
ENDBRANCH  14  18
BRANCH  16  20
ATOM     20  O   LIG A   1      -4.764   5.644 126.862  0.00  0.00    -0.503 OA
ATOM     21  H   LIG A   1      -5.051   6.286 126.177  0.00  0.00    +0.292 HD
ENDBRANCH  16  20
BRANCH  15  22
ATOM     22  O   LIG A   1      -6.661   5.763 124.936  0.00  0.00    -0.501 OA
ATOM     23  H   LIG A   1      -7.207   6.509 125.265  0.00  0.00    +0.292 HD
ENDBRANCH  15  22
ENDBRANCH   7  12
BRANCH   1  24
ATOM     24  O   LIG A   1      -8.544  -4.121 127.637  0.00  0.00    -0.506 OA
ATOM     25  H   LIG A   1      -9.462  -3.975 127.355  0.00  0.00    +0.292 HD
ENDBRANCH   1  24
BRANCH   3  26
ATOM     26  O   LIG A   1      -7.491  -2.433 131.970  0.00  0.00    -0.506 OA
ATOM     27  H   LIG A   1      -6.622  -2.124 132.277  0.00  0.00    +0.292 HD
ENDBRANCH   3  26
BRANCH   6  28
ATOM     28  O   LIG A   1      -6.347   2.552 131.006  0.00  0.00    -0.453 OA
BRANCH  28  29
ATOM     29  C   LIG A   1      -7.506   3.403 131.297  0.00  0.00    +0.340 C 
ATOM     30  C   LIG A   1      -7.854   3.400 132.820  0.00  0.00    +0.214 C 
ATOM     31  C   LIG A   1      -9.017   4.382 133.112  0.00  0.00    +0.180 C 
ATOM     32  C   LIG A   1      -9.749   4.787 131.818  0.00  0.00    +0.174 C 
ATOM     33  C   LIG A   1      -8.706   5.418 130.839  0.00  0.00    +0.150 C 
ATOM     34  O   LIG A   1      -7.387   4.792 130.901  0.00  0.00    -0.334 OA
ATOM     35  C   LIG A   1      -9.217   5.434 129.394  0.00  0.00    +0.040 C 
BRANCH  32  36
ATOM     36  O   LIG A   1     -10.835   5.681 132.090  0.00  0.00    -0.387 OA
ATOM     37  H   LIG A   1     -10.942   6.286 131.335  0.00  0.00    +0.210 HD
ENDBRANCH  32  36
BRANCH  31  38
ATOM     38  O   LIG A   1      -9.877   3.829 134.126  0.00  0.00    -0.386 OA
ATOM     39  H   LIG A   1     -10.658   4.405 134.222  0.00  0.00    +0.210 HD
ENDBRANCH  31  38
BRANCH  30  40
ATOM     40  O   LIG A   1      -8.112   2.107 133.388  0.00  0.00    -0.383 OA
ATOM     41  H   LIG A   1      -7.294   1.852 133.862  0.00  0.00    +0.210 HD
ENDBRANCH  30  40
ENDBRANCH  28  29
ENDBRANCH   6  28
TORSDOF 11
ENDMDL
