MODEL 1
REMARK VINA RESULT:      -7.4      0.000      0.000
REMARK  Name = NuBBE_2190
REMARK  6 active torsions:
REMARK  status: ('A' for Active; 'I' for Inactive)
REMARK    1  A    between atoms: C_1  and  C_2
REMARK    2  A    between atoms: C_8  and  O_10
REMARK    3  A    between atoms: C_12  and  C_13
REMARK    4  A    between atoms: C_12  and  C_15
REMARK    5  A    between atoms: C_19  and  C_20
REMARK    6  A    between atoms: C_19  and  C_21
REMARK                            x       y       z     vdW  Elec       q    Type
REMARK                         _______ _______ _______ _____ _____    ______ ____
ROOT
ATOM      1  C   LIG A   1      -7.751  -0.007 126.906  0.00  0.00    +0.016 C 
ATOM      2  C   LIG A   1      -6.842  -1.221 126.572  0.00  0.00    -0.004 C 
ATOM      3  C   LIG A   1      -7.617  -2.461 125.981  0.00  0.00    +0.012 C 
ATOM      4  C   LIG A   1      -8.803  -2.816 126.879  0.00  0.00    +0.084 C 
ATOM      5  C   LIG A   1      -8.317  -3.082 128.289  0.00  0.00    +0.160 C 
ATOM      6  C   LIG A   1      -6.962  -2.580 128.708  0.00  0.00    -0.002 C 
ATOM      7  C   LIG A   1      -6.278  -1.694 127.943  0.00  0.00    -0.029 C 
ATOM      8  C   LIG A   1      -4.960  -1.128 128.441  0.00  0.00    +0.142 C 
ATOM      9  C   LIG A   1      -4.631  -1.446 129.907  0.00  0.00    +0.047 C 
ATOM     10  C   LIG A   1      -4.971  -2.888 130.318  0.00  0.00    -0.008 C 
ATOM     11  C   LIG A   1      -4.746  -3.028 131.840  0.00  0.00    +0.016 C 
ATOM     12  C   LIG A   1      -6.478  -3.121 130.034  0.00  0.00    +0.049 C 
ATOM     13  O   LIG A   1      -9.027  -3.687 129.093  0.00  0.00    -0.292 OA
ATOM     14  C   LIG A   1      -7.899  -2.423 124.442  0.00  0.00    -0.031 C 
ATOM     15  C   LIG A   1      -8.571  -3.741 123.980  0.00  0.00    +0.011 C 
ATOM     16  C   LIG A   1      -8.842  -1.284 124.013  0.00  0.00    +0.011 C 
ATOM     17  C   LIG A   1      -6.547  -2.293 123.677  0.00  0.00    +0.007 C 
ATOM     18  C   LIG A   1      -5.372  -1.832 124.542  0.00  0.00    +0.001 C 
ATOM     19  C   LIG A   1      -5.789  -0.746 125.523  0.00  0.00    +0.011 C 
ENDROOT
BRANCH   8  20
ATOM     20  O   LIG A   1      -4.985   0.292 128.325  0.00  0.00    -0.387 OA
ATOM     21  H   LIG A   1      -5.804   0.530 127.860  0.00  0.00    +0.210 HD
ENDBRANCH   8  20
BRANCH  10  22
ATOM     22  C   LIG A   1      -4.124  -3.879 129.515  0.00  0.00    -0.028 C 
ATOM     23  C   LIG A   1      -2.851  -3.738 129.121  0.00  0.00    +0.004 C 
ENDBRANCH  10  22
TORSDOF 2
ENDMDL
MODEL 2
REMARK VINA RESULT:      -7.4      3.420      6.110
REMARK  Name = NuBBE_2190
REMARK  6 active torsions:
REMARK  status: ('A' for Active; 'I' for Inactive)
REMARK    1  A    between atoms: C_1  and  C_2
REMARK    2  A    between atoms: C_8  and  O_10
REMARK    3  A    between atoms: C_12  and  C_13
REMARK    4  A    between atoms: C_12  and  C_15
REMARK    5  A    between atoms: C_19  and  C_20
REMARK    6  A    between atoms: C_19  and  C_21
REMARK                            x       y       z     vdW  Elec       q    Type
REMARK                         _______ _______ _______ _____ _____    ______ ____
ROOT
ATOM      1  C   LIG A   1      -9.034  -0.381 126.168  0.00  0.00    +0.016 C 
ATOM      2  C   LIG A   1      -8.315  -0.276 124.796  0.00  0.00    -0.004 C 
ATOM      3  C   LIG A   1      -7.087  -1.253 124.637  0.00  0.00    +0.012 C 
ATOM      4  C   LIG A   1      -6.143  -1.108 125.833  0.00  0.00    +0.084 C 
ATOM      5  C   LIG A   1      -5.697   0.333 125.962  0.00  0.00    +0.160 C 
ATOM      6  C   LIG A   1      -6.488   1.414 125.279  0.00  0.00    -0.002 C 
ATOM      7  C   LIG A   1      -7.716   1.159 124.761  0.00  0.00    -0.029 C 
ATOM      8  C   LIG A   1      -8.533   2.293 124.168  0.00  0.00    +0.142 C 
ATOM      9  C   LIG A   1      -7.973   3.700 124.426  0.00  0.00    +0.047 C 
ATOM     10  C   LIG A   1      -6.445   3.793 124.283  0.00  0.00    -0.008 C 
ATOM     11  C   LIG A   1      -5.999   5.205 124.722  0.00  0.00    +0.016 C 
ATOM     12  C   LIG A   1      -5.813   2.766 125.259  0.00  0.00    +0.049 C 
ATOM     13  O   LIG A   1      -4.706   0.624 126.633  0.00  0.00    -0.292 OA
ATOM     14  C   LIG A   1      -7.425  -2.715 124.194  0.00  0.00    -0.031 C 
ATOM     15  C   LIG A   1      -6.128  -3.533 123.978  0.00  0.00    +0.011 C 
ATOM     16  C   LIG A   1      -8.263  -3.496 125.223  0.00  0.00    +0.011 C 
ATOM     17  C   LIG A   1      -8.185  -2.674 122.832  0.00  0.00    +0.007 C 
ATOM     18  C   LIG A   1      -8.766  -1.304 122.473  0.00  0.00    +0.001 C 
ATOM     19  C   LIG A   1      -9.363  -0.610 123.689  0.00  0.00    +0.011 C 
ENDROOT
BRANCH   8  20
ATOM     20  O   LIG A   1      -9.846   2.266 124.723  0.00  0.00    -0.387 OA
ATOM     21  H   LIG A   1     -10.024   1.352 124.998  0.00  0.00    +0.210 HD
ENDBRANCH   8  20
BRANCH  10  22
ATOM     22  C   LIG A   1      -6.030   3.477 122.844  0.00  0.00    -0.028 C 
ATOM     23  C   LIG A   1      -5.262   4.215 122.031  0.00  0.00    +0.004 C 
ENDBRANCH  10  22
TORSDOF 2
ENDMDL
MODEL 3
REMARK VINA RESULT:      -7.2      1.482      5.733
REMARK  Name = NuBBE_2190
REMARK  6 active torsions:
REMARK  status: ('A' for Active; 'I' for Inactive)
REMARK    1  A    between atoms: C_1  and  C_2
REMARK    2  A    between atoms: C_8  and  O_10
REMARK    3  A    between atoms: C_12  and  C_13
REMARK    4  A    between atoms: C_12  and  C_15
REMARK    5  A    between atoms: C_19  and  C_20
REMARK    6  A    between atoms: C_19  and  C_21
REMARK                            x       y       z     vdW  Elec       q    Type
REMARK                         _______ _______ _______ _____ _____    ______ ____
ROOT
ATOM      1  C   LIG A   1      -8.186  -0.810 128.706  0.00  0.00    +0.016 C 
ATOM      2  C   LIG A   1      -7.051  -1.840 128.456  0.00  0.00    -0.004 C 
ATOM      3  C   LIG A   1      -5.639  -1.384 128.990  0.00  0.00    +0.012 C 
ATOM      4  C   LIG A   1      -5.312   0.019 128.477  0.00  0.00    +0.084 C 
ATOM      5  C   LIG A   1      -5.369   0.038 126.964  0.00  0.00    +0.160 C 
ATOM      6  C   LIG A   1      -6.100  -1.059 126.240  0.00  0.00    -0.002 C 
ATOM      7  C   LIG A   1      -6.909  -1.918 126.908  0.00  0.00    -0.029 C 
ATOM      8  C   LIG A   1      -7.712  -2.951 126.138  0.00  0.00    +0.142 C 
ATOM      9  C   LIG A   1      -7.709  -2.768 124.613  0.00  0.00    +0.047 C 
ATOM     10  C   LIG A   1      -6.336  -2.382 124.039  0.00  0.00    -0.008 C 
ATOM     11  C   LIG A   1      -6.504  -2.073 122.535  0.00  0.00    +0.016 C 
ATOM     12  C   LIG A   1      -5.873  -1.081 124.746  0.00  0.00    +0.049 C 
ATOM     13  O   LIG A   1      -4.838   0.950 126.329  0.00  0.00    -0.292 OA
ATOM     14  C   LIG A   1      -5.361  -1.651 130.507  0.00  0.00    -0.031 C 
ATOM     15  C   LIG A   1      -3.909  -1.251 130.872  0.00  0.00    +0.011 C 
ATOM     16  C   LIG A   1      -6.279  -0.857 131.454  0.00  0.00    +0.011 C 
ATOM     17  C   LIG A   1      -5.513  -3.176 130.795  0.00  0.00    +0.007 C 
ATOM     18  C   LIG A   1      -6.264  -3.953 129.711  0.00  0.00    +0.001 C 
ATOM     19  C   LIG A   1      -7.452  -3.165 129.176  0.00  0.00    +0.011 C 
ENDROOT
BRANCH   8  20
ATOM     20  O   LIG A   1      -9.074  -2.894 126.555  0.00  0.00    -0.387 OA
ATOM     21  H   LIG A   1      -9.126  -3.314 127.429  0.00  0.00    +0.210 HD
ENDBRANCH   8  20
BRANCH  10  22
ATOM     22  C   LIG A   1      -5.326  -3.506 124.289  0.00  0.00    -0.028 C 
ATOM     23  C   LIG A   1      -4.316  -3.892 123.497  0.00  0.00    +0.004 C 
ENDBRANCH  10  22
TORSDOF 2
ENDMDL
MODEL 4
REMARK VINA RESULT:      -7.1      3.104      5.453
REMARK  Name = NuBBE_2190
REMARK  6 active torsions:
REMARK  status: ('A' for Active; 'I' for Inactive)
REMARK    1  A    between atoms: C_1  and  C_2
REMARK    2  A    between atoms: C_8  and  O_10
REMARK    3  A    between atoms: C_12  and  C_13
REMARK    4  A    between atoms: C_12  and  C_15
REMARK    5  A    between atoms: C_19  and  C_20
REMARK    6  A    between atoms: C_19  and  C_21
REMARK                            x       y       z     vdW  Elec       q    Type
REMARK                         _______ _______ _______ _____ _____    ______ ____
ROOT
ATOM      1  C   LIG A   1      -8.215   1.929 126.944  0.00  0.00    +0.016 C 
ATOM      2  C   LIG A   1      -6.931   1.492 126.186  0.00  0.00    -0.004 C 
ATOM      3  C   LIG A   1      -6.687   2.266 124.834  0.00  0.00    +0.012 C 
ATOM      4  C   LIG A   1      -7.949   2.225 123.970  0.00  0.00    +0.084 C 
ATOM      5  C   LIG A   1      -8.355   0.787 123.725  0.00  0.00    +0.160 C 
ATOM      6  C   LIG A   1      -7.819  -0.294 124.621  0.00  0.00    -0.002 C 
ATOM      7  C   LIG A   1      -7.185   0.011 125.781  0.00  0.00    -0.029 C 
ATOM      8  C   LIG A   1      -6.745  -1.102 126.715  0.00  0.00    +0.142 C 
ATOM      9  C   LIG A   1      -7.279  -2.497 126.358  0.00  0.00    +0.047 C 
ATOM     10  C   LIG A   1      -7.256  -2.800 124.850  0.00  0.00    -0.008 C 
ATOM     11  C   LIG A   1      -7.961  -4.154 124.614  0.00  0.00    +0.016 C 
ATOM     12  C   LIG A   1      -8.079  -1.700 124.131  0.00  0.00    +0.049 C 
ATOM     13  O   LIG A   1      -9.130   0.502 122.811  0.00  0.00    -0.292 OA
ATOM     14  C   LIG A   1      -5.976   3.655 124.957  0.00  0.00    -0.031 C 
ATOM     15  C   LIG A   1      -5.708   4.255 123.555  0.00  0.00    +0.011 C 
ATOM     16  C   LIG A   1      -6.797   4.705 125.728  0.00  0.00    +0.011 C 
ATOM     17  C   LIG A   1      -4.595   3.462 125.656  0.00  0.00    +0.007 C 
ATOM     18  C   LIG A   1      -4.441   2.132 126.397  0.00  0.00    +0.001 C 
ATOM     19  C   LIG A   1      -5.717   1.747 127.132  0.00  0.00    +0.011 C 
ENDROOT
BRANCH   8  20
ATOM     20  O   LIG A   1      -7.199  -0.815 128.035  0.00  0.00    -0.387 OA
ATOM     21  H   LIG A   1      -8.167  -0.898 128.032  0.00  0.00    +0.210 HD
ENDBRANCH   8  20
BRANCH  10  22
ATOM     22  C   LIG A   1      -5.814  -2.802 124.336  0.00  0.00    -0.028 C 
ATOM     23  C   LIG A   1      -5.075  -3.859 123.968  0.00  0.00    +0.004 C 
ENDBRANCH  10  22
TORSDOF 2
ENDMDL
MODEL 5
REMARK VINA RESULT:      -7.1      2.637      4.384
REMARK  Name = NuBBE_2190
REMARK  6 active torsions:
REMARK  status: ('A' for Active; 'I' for Inactive)
REMARK    1  A    between atoms: C_1  and  C_2
REMARK    2  A    between atoms: C_8  and  O_10
REMARK    3  A    between atoms: C_12  and  C_13
REMARK    4  A    between atoms: C_12  and  C_15
REMARK    5  A    between atoms: C_19  and  C_20
REMARK    6  A    between atoms: C_19  and  C_21
REMARK                            x       y       z     vdW  Elec       q    Type
REMARK                         _______ _______ _______ _____ _____    ______ ____
ROOT
ATOM      1  C   LIG A   1      -8.589  -1.116 126.197  0.00  0.00    +0.016 C 
ATOM      2  C   LIG A   1      -7.349  -0.611 125.411  0.00  0.00    -0.004 C 
ATOM      3  C   LIG A   1      -6.181  -1.665 125.305  0.00  0.00    +0.012 C 
ATOM      4  C   LIG A   1      -5.842  -2.215 126.692  0.00  0.00    +0.084 C 
ATOM      5  C   LIG A   1      -5.481  -1.074 127.621  0.00  0.00    +0.160 C 
ATOM      6  C   LIG A   1      -5.891   0.327 127.262  0.00  0.00    -0.002 C 
ATOM      7  C   LIG A   1      -6.779   0.560 126.263  0.00  0.00    -0.029 C 
ATOM      8  C   LIG A   1      -7.251   1.977 125.991  0.00  0.00    +0.142 C 
ATOM      9  C   LIG A   1      -6.843   3.012 127.050  0.00  0.00    +0.047 C 
ATOM     10  C   LIG A   1      -5.402   2.842 127.557  0.00  0.00    -0.008 C 
ATOM     11  C   LIG A   1      -5.174   3.830 128.722  0.00  0.00    +0.016 C 
ATOM     12  C   LIG A   1      -5.260   1.402 128.117  0.00  0.00    +0.049 C 
ATOM     13  O   LIG A   1      -4.872  -1.289 128.670  0.00  0.00    -0.292 OA
ATOM     14  C   LIG A   1      -6.310  -2.719 124.155  0.00  0.00    -0.031 C 
ATOM     15  C   LIG A   1      -5.054  -3.623 124.101  0.00  0.00    +0.011 C 
ATOM     16  C   LIG A   1      -7.516  -3.663 124.312  0.00  0.00    +0.011 C 
ATOM     17  C   LIG A   1      -6.410  -1.973 122.788  0.00  0.00    +0.007 C 
ATOM     18  C   LIG A   1      -6.767  -0.489 122.901  0.00  0.00    +0.001 C 
ATOM     19  C   LIG A   1      -7.822  -0.245 123.970  0.00  0.00    +0.011 C 
ENDROOT
BRANCH   8  20
ATOM     20  O   LIG A   1      -8.675   1.994 125.928  0.00  0.00    -0.387 OA
ATOM     21  H   LIG A   1      -8.952   2.925 125.900  0.00  0.00    +0.210 HD
ENDBRANCH   8  20
BRANCH  10  22
ATOM     22  C   LIG A   1      -4.411   3.062 126.410  0.00  0.00    -0.028 C 
ATOM     23  C   LIG A   1      -3.097   3.312 126.498  0.00  0.00    +0.004 C 
ENDBRANCH  10  22
TORSDOF 2
ENDMDL
MODEL 6
REMARK VINA RESULT:      -7.0      7.241     10.261
REMARK  Name = NuBBE_2190
REMARK  6 active torsions:
REMARK  status: ('A' for Active; 'I' for Inactive)
REMARK    1  A    between atoms: C_1  and  C_2
REMARK    2  A    between atoms: C_8  and  O_10
REMARK    3  A    between atoms: C_12  and  C_13
REMARK    4  A    between atoms: C_12  and  C_15
REMARK    5  A    between atoms: C_19  and  C_20
REMARK    6  A    between atoms: C_19  and  C_21
REMARK                            x       y       z     vdW  Elec       q    Type
REMARK                         _______ _______ _______ _____ _____    ______ ____
ROOT
ATOM      1  C   LIG A   1      -5.291   5.707 132.018  0.00  0.00    +0.016 C 
ATOM      2  C   LIG A   1      -3.849   5.327 131.587  0.00  0.00    -0.004 C 
ATOM      3  C   LIG A   1      -2.838   6.537 131.588  0.00  0.00    +0.012 C 
ATOM      4  C   LIG A   1      -3.421   7.711 130.799  0.00  0.00    +0.084 C 
ATOM      5  C   LIG A   1      -3.756   7.265 129.391  0.00  0.00    +0.160 C 
ATOM      6  C   LIG A   1      -3.897   5.797 129.096  0.00  0.00    -0.002 C 
ATOM      7  C   LIG A   1      -3.974   4.887 130.099  0.00  0.00    -0.029 C 
ATOM      8  C   LIG A   1      -4.217   3.425 129.773  0.00  0.00    +0.142 C 
ATOM      9  C   LIG A   1      -4.594   3.141 128.311  0.00  0.00    +0.047 C 
ATOM     10  C   LIG A   1      -3.779   3.956 127.294  0.00  0.00    -0.008 C 
ATOM     11  C   LIG A   1      -4.361   3.700 125.885  0.00  0.00    +0.016 C 
ATOM     12  C   LIG A   1      -3.973   5.459 127.624  0.00  0.00    +0.049 C 
ATOM     13  O   LIG A   1      -3.929   8.094 128.496  0.00  0.00    -0.292 OA
ATOM     14  C   LIG A   1      -2.186   6.885 132.968  0.00  0.00    -0.031 C 
ATOM     15  C   LIG A   1      -1.143   8.019 132.807  0.00  0.00    +0.011 C 
ATOM     16  C   LIG A   1      -3.195   7.372 134.024  0.00  0.00    +0.011 C 
ATOM     17  C   LIG A   1      -1.435   5.631 133.510  0.00  0.00    +0.007 C 
ATOM     18  C   LIG A   1      -1.831   4.315 132.836  0.00  0.00    +0.001 C 
ATOM     19  C   LIG A   1      -3.330   4.243 132.582  0.00  0.00    +0.011 C 
ENDROOT
BRANCH   8  20
ATOM     20  O   LIG A   1      -5.290   2.937 130.575  0.00  0.00    -0.387 OA
ATOM     21  H   LIG A   1      -5.397   3.552 131.319  0.00  0.00    +0.210 HD
ENDBRANCH   8  20
BRANCH  10  22
ATOM     22  C   LIG A   1      -2.297   3.582 127.384  0.00  0.00    -0.028 C 
ATOM     23  C   LIG A   1      -1.533   3.024 126.435  0.00  0.00    +0.004 C 
ENDBRANCH  10  22
TORSDOF 2
ENDMDL
MODEL 7
REMARK VINA RESULT:      -6.8      1.783      5.562
REMARK  Name = NuBBE_2190
REMARK  6 active torsions:
REMARK  status: ('A' for Active; 'I' for Inactive)
REMARK    1  A    between atoms: C_1  and  C_2
REMARK    2  A    between atoms: C_8  and  O_10
REMARK    3  A    between atoms: C_12  and  C_13
REMARK    4  A    between atoms: C_12  and  C_15
REMARK    5  A    between atoms: C_19  and  C_20
REMARK    6  A    between atoms: C_19  and  C_21
REMARK                            x       y       z     vdW  Elec       q    Type
REMARK                         _______ _______ _______ _____ _____    ______ ____
ROOT
ATOM      1  C   LIG A   1      -5.263  -2.539 128.493  0.00  0.00    +0.016 C 
ATOM      2  C   LIG A   1      -6.316  -1.427 128.242  0.00  0.00    -0.004 C 
ATOM      3  C   LIG A   1      -7.467  -1.376 129.319  0.00  0.00    +0.012 C 
ATOM      4  C   LIG A   1      -8.079  -2.766 129.500  0.00  0.00    +0.084 C 
ATOM      5  C   LIG A   1      -8.584  -3.280 128.168  0.00  0.00    +0.160 C 
ATOM      6  C   LIG A   1      -8.079  -2.656 126.897  0.00  0.00    -0.002 C 
ATOM      7  C   LIG A   1      -7.010  -1.820 126.906  0.00  0.00    -0.029 C 
ATOM      8  C   LIG A   1      -6.460  -1.285 125.596  0.00  0.00    +0.142 C 
ATOM      9  C   LIG A   1      -7.039  -1.942 124.334  0.00  0.00    +0.047 C 
ATOM     10  C   LIG A   1      -8.555  -2.189 124.405  0.00  0.00    -0.008 C 
ATOM     11  C   LIG A   1      -8.978  -2.992 123.155  0.00  0.00    +0.016 C 
ATOM     12  C   LIG A   1      -8.836  -3.065 125.654  0.00  0.00    +0.049 C 
ATOM     13  O   LIG A   1      -9.388  -4.212 128.120  0.00  0.00    -0.292 OA
ATOM     14  C   LIG A   1      -7.145  -0.585 130.631  0.00  0.00    -0.031 C 
ATOM     15  C   LIG A   1      -8.389  -0.527 131.552  0.00  0.00    +0.011 C 
ATOM     16  C   LIG A   1      -6.014  -1.209 131.469  0.00  0.00    +0.011 C 
ATOM     17  C   LIG A   1      -6.766   0.883 130.263  0.00  0.00    +0.007 C 
ATOM     18  C   LIG A   1      -6.402   1.093 128.791  0.00  0.00    +0.001 C 
ATOM     19  C   LIG A   1      -5.566  -0.059 128.250  0.00  0.00    +0.011 C 
ENDROOT
BRANCH   8  20
ATOM     20  O   LIG A   1      -5.051  -1.494 125.558  0.00  0.00    -0.387 OA
ATOM     21  H   LIG A   1      -4.629  -0.675 125.865  0.00  0.00    +0.210 HD
ENDBRANCH   8  20
BRANCH  10  22
ATOM     22  C   LIG A   1      -9.301  -0.857 124.517  0.00  0.00    -0.028 C 
ATOM     23  C   LIG A   1      -9.295   0.162 123.646  0.00  0.00    +0.004 C 
ENDBRANCH  10  22
TORSDOF 2
ENDMDL
MODEL 8
REMARK VINA RESULT:      -6.7      3.805      7.105
REMARK  Name = NuBBE_2190
REMARK  6 active torsions:
REMARK  status: ('A' for Active; 'I' for Inactive)
REMARK    1  A    between atoms: C_1  and  C_2
REMARK    2  A    between atoms: C_8  and  O_10
REMARK    3  A    between atoms: C_12  and  C_13
REMARK    4  A    between atoms: C_12  and  C_15
REMARK    5  A    between atoms: C_19  and  C_20
REMARK    6  A    between atoms: C_19  and  C_21
REMARK                            x       y       z     vdW  Elec       q    Type
REMARK                         _______ _______ _______ _____ _____    ______ ____
ROOT
ATOM      1  C   LIG A   1      -7.295   4.176 126.975  0.00  0.00    +0.016 C 
ATOM      2  C   LIG A   1      -6.431   2.896 126.810  0.00  0.00    -0.004 C 
ATOM      3  C   LIG A   1      -5.015   3.154 126.165  0.00  0.00    +0.012 C 
ATOM      4  C   LIG A   1      -5.165   3.959 124.873  0.00  0.00    +0.084 C 
ATOM      5  C   LIG A   1      -6.088   3.230 123.919  0.00  0.00    +0.160 C 
ATOM      6  C   LIG A   1      -7.007   2.165 124.452  0.00  0.00    -0.002 C 
ATOM      7  C   LIG A   1      -7.204   2.015 125.785  0.00  0.00    -0.029 C 
ATOM      8  C   LIG A   1      -8.214   1.000 126.289  0.00  0.00    +0.142 C 
ATOM      9  C   LIG A   1      -9.109   0.383 125.204  0.00  0.00    +0.047 C 
ATOM     10  C   LIG A   1      -8.358   0.037 123.907  0.00  0.00    -0.008 C 
ATOM     11  C   LIG A   1      -9.391  -0.420 122.853  0.00  0.00    +0.016 C 
ATOM     12  C   LIG A   1      -7.685   1.334 123.387  0.00  0.00    +0.049 C 
ATOM     13  O   LIG A   1      -6.102   3.514 122.721  0.00  0.00    -0.292 OA
ATOM     14  C   LIG A   1      -3.890   3.622 127.147  0.00  0.00    -0.031 C 
ATOM     15  C   LIG A   1      -2.535   3.738 126.406  0.00  0.00    +0.011 C 
ATOM     16  C   LIG A   1      -4.155   4.999 127.782  0.00  0.00    +0.011 C 
ATOM     17  C   LIG A   1      -3.718   2.557 128.273  0.00  0.00    +0.007 C 
ATOM     18  C   LIG A   1      -4.888   1.579 128.404  0.00  0.00    +0.001 C 
ATOM     19  C   LIG A   1      -6.228   2.280 128.229  0.00  0.00    +0.011 C 
ENDROOT
BRANCH   8  20
ATOM     20  O   LIG A   1      -9.082   1.627 127.229  0.00  0.00    -0.387 OA
ATOM     21  H   LIG A   1      -9.989   1.355 127.011  0.00  0.00    +0.210 HD
ENDBRANCH   8  20
BRANCH  10  22
ATOM     22  C   LIG A   1      -7.299  -1.034 124.181  0.00  0.00    -0.028 C 
ATOM     23  C   LIG A   1      -6.621  -1.765 123.285  0.00  0.00    +0.004 C 
ENDBRANCH  10  22
TORSDOF 2
ENDMDL
MODEL 9
REMARK VINA RESULT:      -6.7      6.405      8.914
REMARK  Name = NuBBE_2190
REMARK  6 active torsions:
REMARK  status: ('A' for Active; 'I' for Inactive)
REMARK    1  A    between atoms: C_1  and  C_2
REMARK    2  A    between atoms: C_8  and  O_10
REMARK    3  A    between atoms: C_12  and  C_13
REMARK    4  A    between atoms: C_12  and  C_15
REMARK    5  A    between atoms: C_19  and  C_20
REMARK    6  A    between atoms: C_19  and  C_21
REMARK                            x       y       z     vdW  Elec       q    Type
REMARK                         _______ _______ _______ _____ _____    ______ ____
ROOT
ATOM      1  C   LIG A   1      -3.656   5.364 132.474  0.00  0.00    +0.016 C 
ATOM      2  C   LIG A   1      -4.757   5.384 131.379  0.00  0.00    -0.004 C 
ATOM      3  C   LIG A   1      -5.943   4.377 131.642  0.00  0.00    +0.012 C 
ATOM      4  C   LIG A   1      -5.392   2.979 131.928  0.00  0.00    +0.084 C 
ATOM      5  C   LIG A   1      -4.521   2.526 130.774  0.00  0.00    +0.160 C 
ATOM      6  C   LIG A   1      -3.984   3.548 129.811  0.00  0.00    -0.002 C 
ATOM      7  C   LIG A   1      -4.054   4.874 130.088  0.00  0.00    -0.029 C 
ATOM      8  C   LIG A   1      -3.413   5.876 129.145  0.00  0.00    +0.142 C 
ATOM      9  C   LIG A   1      -2.520   5.262 128.056  0.00  0.00    +0.047 C 
ATOM     10  C   LIG A   1      -3.102   3.986 127.427  0.00  0.00    -0.008 C 
ATOM     11  C   LIG A   1      -2.045   3.386 126.474  0.00  0.00    +0.016 C 
ATOM     12  C   LIG A   1      -3.352   2.965 128.567  0.00  0.00    +0.049 C 
ATOM     13  O   LIG A   1      -4.240   1.336 130.632  0.00  0.00    -0.292 OA
ATOM     14  C   LIG A   1      -7.075   4.885 132.597  0.00  0.00    -0.031 C 
ATOM     15  C   LIG A   1      -8.219   3.845 132.685  0.00  0.00    +0.011 C 
ATOM     16  C   LIG A   1      -6.602   5.132 134.041  0.00  0.00    +0.011 C 
ATOM     17  C   LIG A   1      -7.680   6.200 132.018  0.00  0.00    +0.007 C 
ATOM     18  C   LIG A   1      -6.814   6.884 130.958  0.00  0.00    +0.001 C 
ATOM     19  C   LIG A   1      -5.336   6.831 131.321  0.00  0.00    +0.011 C 
ENDROOT
BRANCH   8  20
ATOM     20  O   LIG A   1      -2.591   6.768 129.895  0.00  0.00    -0.387 OA
ATOM     21  H   LIG A   1      -3.167   7.232 130.524  0.00  0.00    +0.210 HD
ENDBRANCH   8  20
BRANCH  10  22
ATOM     22  C   LIG A   1      -4.415   4.305 126.707  0.00  0.00    -0.028 C 
ATOM     23  C   LIG A   1      -4.789   3.925 125.477  0.00  0.00    +0.004 C 
ENDBRANCH  10  22
TORSDOF 2
ENDMDL
