MODEL 1
REMARK VINA RESULT:      -9.5      0.000      0.000
REMARK  Name = NuBBE_611
REMARK  11 active torsions:
REMARK  status: ('A' for Active; 'I' for Inactive)
REMARK    1  A    between atoms: C_1  and  C_2
REMARK    2  A    between atoms: C_4  and  C_48
REMARK    3  A    between atoms: C_6  and  C_10
REMARK    4  A    between atoms: C_10  and  C_11
REMARK    5  A    between atoms: C_20  and  O_22
REMARK    6  A    between atoms: O_22  and  C_23
REMARK    7  A    between atoms: C_23  and  C_24
REMARK    8  A    between atoms: C_30  and  O_31
REMARK    9  A    between atoms: C_30  and  C_45
REMARK   10  A    between atoms: C_33  and  C_43
REMARK   11  A    between atoms: C_40  and  O_42
REMARK                            x       y       z     vdW  Elec       q    Type
REMARK                         _______ _______ _______ _____ _____    ______ ____
ROOT
ATOM      1  C   LIG A   1      -7.638   0.385 132.162  0.00  0.00    +0.047 C 
ATOM      2  C   LIG A   1      -7.521   1.891 132.087  0.00  0.00    +0.123 C 
ATOM      3  O   LIG A   1      -7.994   2.481 133.296  0.00  0.00    -0.359 OA
ATOM      4  C   LIG A   1      -8.752   2.814 132.103  0.00  0.00    +0.104 C 
ATOM      5  C   LIG A   1      -8.541   4.274 131.776  0.00  0.00    +0.063 C 
ATOM      6  C   LIG A   1      -9.654   5.314 131.608  0.00  0.00    +0.084 C 
ATOM      7  N   LIG A   1      -8.827   6.462 131.306  0.00  0.00    -0.311 N 
ATOM      8  H   LIG A   1      -9.095   7.428 131.466  0.00  0.00    +0.149 HD
ATOM      9  C   LIG A   1      -7.363   4.630 130.798  0.00  0.00    +0.102 C 
ATOM     10  C   LIG A   1      -7.528   6.155 130.947  0.00  0.00    +0.224 C 
ATOM     11  O   LIG A   1      -6.727   7.050 130.686  0.00  0.00    -0.275 OA
ATOM     12  C   LIG A   1      -7.520   4.421 129.234  0.00  0.00    +0.224 C 
ATOM     13  C   LIG A   1      -6.306   4.299 128.270  0.00  0.00    +0.192 C 
ATOM     14  C   LIG A   1      -4.729   4.512 127.957  0.00  0.00    +0.190 C 
ATOM     15  C   LIG A   1      -3.389   4.288 128.641  0.00  0.00    +0.149 C 
ATOM     16  C   LIG A   1      -2.779   5.560 129.305  0.00  0.00    +0.170 C 
ATOM     17  C   LIG A   1      -2.649   5.627 130.835  0.00  0.00    +0.059 C 
ATOM     18  C   LIG A   1      -3.928   6.252 131.388  0.00  0.00    +0.037 C 
ATOM     19  C   LIG A   1      -4.504   5.577 132.606  0.00  0.00    -0.030 C 
ATOM     20  C   LIG A   1      -5.488   4.660 132.607  0.00  0.00    -0.024 C 
ATOM     21  C   LIG A   1      -6.074   3.984 131.370  0.00  0.00    +0.062 C 
ATOM     22  C   LIG A   1      -6.175   2.436 131.641  0.00  0.00    +0.157 C 
ATOM     23  C   LIG A   1      -1.430   6.462 131.231  0.00  0.00    +0.016 C 
ATOM     24  O   LIG A   1      -2.436   6.537 128.625  0.00  0.00    -0.294 OA
ATOM     25  C   LIG A   1      -3.227   2.990 129.420  0.00  0.00    +0.052 C 
ATOM     26  O   LIG A   1      -5.548   5.531 128.453  0.00  0.00    -0.361 OA
ATOM     27  C   LIG A   1     -10.137   2.248 132.206  0.00  0.00    +0.045 C 
ENDROOT
BRANCH  15  28
ATOM     28  O   LIG A   1      -2.433   4.087 127.541  0.00  0.00    -0.379 OA
ATOM     29  H   LIG A   1      -2.761   4.557 126.757  0.00  0.00    +0.211 HD
ENDBRANCH  15  28
BRANCH  22  30
ATOM     30  O   LIG A   1      -5.725   1.732 130.477  0.00  0.00    -0.388 OA
ATOM     31  H   LIG A   1      -4.791   1.933 130.316  0.00  0.00    +0.210 HD
ENDBRANCH  22  30
BRANCH   6  32
ATOM     32  C   LIG A   1     -10.749   5.145 130.550  0.00  0.00    +0.057 C 
BRANCH  32  33
ATOM     33  C   LIG A   1     -11.310   6.443 129.991  0.00  0.00    -0.046 A 
ATOM     34  C   LIG A   1     -10.925   6.893 128.717  0.00  0.00    +0.003 A 
ATOM     35  C   LIG A   1     -11.439   8.082 128.190  0.00  0.00    +0.000 A 
ATOM     36  C   LIG A   1     -12.352   8.834 128.923  0.00  0.00    +0.000 A 
ATOM     37  C   LIG A   1     -12.763   8.389 130.178  0.00  0.00    +0.000 A 
ATOM     38  C   LIG A   1     -12.244   7.202 130.711  0.00  0.00    +0.003 A 
ENDBRANCH  32  33
ENDBRANCH   6  32
BRANCH  12  39
ATOM     39  O   LIG A   1      -8.516   3.380 128.958  0.00  0.00    -0.458 OA
BRANCH  39  40
ATOM     40  C   LIG A   1      -8.263   2.604 127.849  0.00  0.00    +0.304 C 
ATOM     41  C   LIG A   1      -8.070   1.162 128.203  0.00  0.00    +0.136 C 
ATOM     42  O   LIG A   1      -8.326   2.980 126.685  0.00  0.00    -0.251 OA
ENDBRANCH  39  40
ENDBRANCH  12  39
TORSDOF 6
ENDMDL
MODEL 2
REMARK VINA RESULT:      -9.2      3.423      6.295
REMARK  Name = NuBBE_611
REMARK  11 active torsions:
REMARK  status: ('A' for Active; 'I' for Inactive)
REMARK    1  A    between atoms: C_1  and  C_2
REMARK    2  A    between atoms: C_4  and  C_48
REMARK    3  A    between atoms: C_6  and  C_10
REMARK    4  A    between atoms: C_10  and  C_11
REMARK    5  A    between atoms: C_20  and  O_22
REMARK    6  A    between atoms: O_22  and  C_23
REMARK    7  A    between atoms: C_23  and  C_24
REMARK    8  A    between atoms: C_30  and  O_31
REMARK    9  A    between atoms: C_30  and  C_45
REMARK   10  A    between atoms: C_33  and  C_43
REMARK   11  A    between atoms: C_40  and  O_42
REMARK                            x       y       z     vdW  Elec       q    Type
REMARK                         _______ _______ _______ _____ _____    ______ ____
ROOT
ATOM      1  C   LIG A   1      -5.672  -1.362 128.245  0.00  0.00    +0.047 C 
ATOM      2  C   LIG A   1      -6.466  -0.104 127.978  0.00  0.00    +0.123 C 
ATOM      3  O   LIG A   1      -7.678  -0.423 127.297  0.00  0.00    -0.359 OA
ATOM      4  C   LIG A   1      -6.745   0.407 126.553  0.00  0.00    +0.104 C 
ATOM      5  C   LIG A   1      -7.329   1.792 126.404  0.00  0.00    +0.063 C 
ATOM      6  C   LIG A   1      -7.548   2.523 125.074  0.00  0.00    +0.084 C 
ATOM      7  N   LIG A   1      -8.102   3.752 125.597  0.00  0.00    -0.311 N 
ATOM      8  H   LIG A   1      -8.711   4.379 125.082  0.00  0.00    +0.149 HD
ATOM      9  C   LIG A   1      -6.967   2.849 127.509  0.00  0.00    +0.102 C 
ATOM     10  C   LIG A   1      -7.898   3.943 126.951  0.00  0.00    +0.224 C 
ATOM     11  O   LIG A   1      -8.339   4.944 127.511  0.00  0.00    -0.275 OA
ATOM     12  C   LIG A   1      -5.554   3.569 127.507  0.00  0.00    +0.224 C 
ATOM     13  C   LIG A   1      -4.946   4.245 128.768  0.00  0.00    +0.192 C 
ATOM     14  C   LIG A   1      -5.122   4.870 130.254  0.00  0.00    +0.190 C 
ATOM     15  C   LIG A   1      -5.817   4.525 131.563  0.00  0.00    +0.149 C 
ATOM     16  C   LIG A   1      -7.178   5.252 131.785  0.00  0.00    +0.170 C 
ATOM     17  C   LIG A   1      -8.479   4.434 131.800  0.00  0.00    +0.059 C 
ATOM     18  C   LIG A   1      -9.020   4.386 130.373  0.00  0.00    +0.037 C 
ATOM     19  C   LIG A   1      -9.519   3.040 129.915  0.00  0.00    -0.030 C 
ATOM     20  C   LIG A   1      -8.818   2.141 129.200  0.00  0.00    -0.024 C 
ATOM     21  C   LIG A   1      -7.328   2.226 128.883  0.00  0.00    +0.062 C 
ATOM     22  C   LIG A   1      -6.672   0.822 129.164  0.00  0.00    +0.157 C 
ATOM     23  C   LIG A   1      -9.503   5.077 132.739  0.00  0.00    +0.016 C 
ATOM     24  O   LIG A   1      -7.235   6.483 131.908  0.00  0.00    -0.294 OA
ATOM     25  C   LIG A   1      -5.762   3.069 132.003  0.00  0.00    +0.052 C 
ATOM     26  O   LIG A   1      -5.925   5.246 129.173  0.00  0.00    -0.361 OA
ATOM     27  C   LIG A   1      -6.242  -0.343 125.355  0.00  0.00    +0.045 C 
ENDROOT
BRANCH  15  28
ATOM     28  O   LIG A   1      -5.004   5.173 132.604  0.00  0.00    -0.379 OA
ATOM     29  H   LIG A   1      -4.076   4.914 132.477  0.00  0.00    +0.211 HD
ENDBRANCH  15  28
BRANCH  22  30
ATOM     30  O   LIG A   1      -5.430   1.021 129.850  0.00  0.00    -0.388 OA
ATOM     31  H   LIG A   1      -5.078   1.899 129.641  0.00  0.00    +0.210 HD
ENDBRANCH  22  30
BRANCH   6  32
ATOM     32  C   LIG A   1      -6.381   2.816 124.125  0.00  0.00    +0.057 C 
BRANCH  32  33
ATOM     33  C   LIG A   1      -6.785   3.251 122.725  0.00  0.00    -0.046 A 
ATOM     34  C   LIG A   1      -5.819   3.730 121.824  0.00  0.00    +0.003 A 
ATOM     35  C   LIG A   1      -6.177   4.127 120.532  0.00  0.00    +0.000 A 
ATOM     36  C   LIG A   1      -7.504   4.042 120.118  0.00  0.00    +0.000 A 
ATOM     37  C   LIG A   1      -8.469   3.547 120.992  0.00  0.00    +0.000 A 
ATOM     38  C   LIG A   1      -8.114   3.155 122.288  0.00  0.00    +0.003 A 
ENDBRANCH  32  33
ENDBRANCH   6  32
BRANCH  12  39
ATOM     39  O   LIG A   1      -4.558   2.732 126.828  0.00  0.00    -0.458 OA
BRANCH  39  40
ATOM     40  C   LIG A   1      -3.496   3.413 126.279  0.00  0.00    +0.304 C 
ATOM     41  C   LIG A   1      -2.184   2.964 126.846  0.00  0.00    +0.136 C 
ATOM     42  O   LIG A   1      -3.557   4.192 125.336  0.00  0.00    -0.251 OA
ENDBRANCH  39  40
ENDBRANCH  12  39
TORSDOF 6
ENDMDL
MODEL 3
REMARK VINA RESULT:      -9.2      3.004      7.092
REMARK  Name = NuBBE_611
REMARK  11 active torsions:
REMARK  status: ('A' for Active; 'I' for Inactive)
REMARK    1  A    between atoms: C_1  and  C_2
REMARK    2  A    between atoms: C_4  and  C_48
REMARK    3  A    between atoms: C_6  and  C_10
REMARK    4  A    between atoms: C_10  and  C_11
REMARK    5  A    between atoms: C_20  and  O_22
REMARK    6  A    between atoms: O_22  and  C_23
REMARK    7  A    between atoms: C_23  and  C_24
REMARK    8  A    between atoms: C_30  and  O_31
REMARK    9  A    between atoms: C_30  and  C_45
REMARK   10  A    between atoms: C_33  and  C_43
REMARK   11  A    between atoms: C_40  and  O_42
REMARK                            x       y       z     vdW  Elec       q    Type
REMARK                         _______ _______ _______ _____ _____    ______ ____
ROOT
ATOM      1  C   LIG A   1      -2.833   4.944 127.763  0.00  0.00    +0.047 C 
ATOM      2  C   LIG A   1      -3.852   3.956 128.285  0.00  0.00    +0.123 C 
ATOM      3  O   LIG A   1      -3.224   2.709 128.573  0.00  0.00    -0.359 OA
ATOM      4  C   LIG A   1      -4.224   2.674 127.519  0.00  0.00    +0.104 C 
ATOM      5  C   LIG A   1      -5.420   1.889 128.001  0.00  0.00    +0.063 C 
ATOM      6  C   LIG A   1      -6.024   0.670 127.293  0.00  0.00    +0.084 C 
ATOM      7  N   LIG A   1      -7.104   0.402 128.217  0.00  0.00    -0.311 N 
ATOM      8  H   LIG A   1      -7.545  -0.503 128.348  0.00  0.00    +0.149 HD
ATOM      9  C   LIG A   1      -6.576   2.693 128.699  0.00  0.00    +0.102 C 
ATOM     10  C   LIG A   1      -7.392   1.442 129.081  0.00  0.00    +0.224 C 
ATOM     11  O   LIG A   1      -8.278   1.324 129.924  0.00  0.00    -0.275 OA
ATOM     12  C   LIG A   1      -7.614   3.527 127.838  0.00  0.00    +0.224 C 
ATOM     13  C   LIG A   1      -8.466   4.686 128.428  0.00  0.00    +0.192 C 
ATOM     14  C   LIG A   1      -9.089   5.468 129.706  0.00  0.00    +0.190 C 
ATOM     15  C   LIG A   1      -8.638   5.961 131.073  0.00  0.00    +0.149 C 
ATOM     16  C   LIG A   1      -9.024   5.025 132.259  0.00  0.00    +0.170 C 
ATOM     17  C   LIG A   1      -7.919   4.297 133.040  0.00  0.00    +0.059 C 
ATOM     18  C   LIG A   1      -7.686   2.943 132.371  0.00  0.00    +0.037 C 
ATOM     19  C   LIG A   1      -6.242   2.550 132.193  0.00  0.00    -0.030 C 
ATOM     20  C   LIG A   1      -5.511   2.721 131.076  0.00  0.00    -0.024 C 
ATOM     21  C   LIG A   1      -5.940   3.518 129.848  0.00  0.00    +0.062 C 
ATOM     22  C   LIG A   1      -4.747   4.449 129.409  0.00  0.00    +0.157 C 
ATOM     23  C   LIG A   1      -8.333   4.108 134.501  0.00  0.00    +0.016 C 
ATOM     24  O   LIG A   1     -10.209   4.824 132.558  0.00  0.00    -0.294 OA
ATOM     25  C   LIG A   1      -7.257   6.595 131.150  0.00  0.00    +0.052 C 
ATOM     26  O   LIG A   1      -9.218   4.087 129.524  0.00  0.00    -0.361 OA
ATOM     27  C   LIG A   1      -3.571   2.344 126.209  0.00  0.00    +0.045 C 
ENDROOT
BRANCH  15  28
ATOM     28  O   LIG A   1      -9.503   7.115 131.361  0.00  0.00    -0.379 OA
ATOM     29  H   LIG A   1      -9.317   7.810 130.709  0.00  0.00    +0.211 HD
ENDBRANCH  15  28
BRANCH  22  30
ATOM     30  O   LIG A   1      -5.266   5.745 129.087  0.00  0.00    -0.388 OA
ATOM     31  H   LIG A   1      -6.227   5.693 128.972  0.00  0.00    +0.210 HD
ENDBRANCH  22  30
BRANCH   6  32
ATOM     32  C   LIG A   1      -6.552   0.764 125.858  0.00  0.00    +0.057 C 
BRANCH  32  33
ATOM     33  C   LIG A   1      -6.280  -0.456 124.991  0.00  0.00    -0.046 A 
ATOM     34  C   LIG A   1      -6.738  -0.501 123.665  0.00  0.00    +0.003 A 
ATOM     35  C   LIG A   1      -6.488  -1.615 122.856  0.00  0.00    +0.000 A 
ATOM     36  C   LIG A   1      -5.769  -2.696 123.359  0.00  0.00    +0.000 A 
ATOM     37  C   LIG A   1      -5.287  -2.655 124.666  0.00  0.00    +0.000 A 
ATOM     38  C   LIG A   1      -5.542  -1.545 125.479  0.00  0.00    +0.003 A 
ENDBRANCH  32  33
ENDBRANCH   6  32
BRANCH  12  39
ATOM     39  O   LIG A   1      -7.016   3.915 126.556  0.00  0.00    -0.458 OA
BRANCH  39  40
ATOM     40  C   LIG A   1      -7.896   4.423 125.627  0.00  0.00    +0.304 C 
ATOM     41  C   LIG A   1      -8.598   3.341 124.865  0.00  0.00    +0.136 C 
ATOM     42  O   LIG A   1      -8.209   5.601 125.509  0.00  0.00    -0.251 OA
ENDBRANCH  39  40
ENDBRANCH  12  39
TORSDOF 6
ENDMDL
MODEL 4
REMARK VINA RESULT:      -9.0      2.235      5.465
REMARK  Name = NuBBE_611
REMARK  11 active torsions:
REMARK  status: ('A' for Active; 'I' for Inactive)
REMARK    1  A    between atoms: C_1  and  C_2
REMARK    2  A    between atoms: C_4  and  C_48
REMARK    3  A    between atoms: C_6  and  C_10
REMARK    4  A    between atoms: C_10  and  C_11
REMARK    5  A    between atoms: C_20  and  O_22
REMARK    6  A    between atoms: O_22  and  C_23
REMARK    7  A    between atoms: C_23  and  C_24
REMARK    8  A    between atoms: C_30  and  O_31
REMARK    9  A    between atoms: C_30  and  C_45
REMARK   10  A    between atoms: C_33  and  C_43
REMARK   11  A    between atoms: C_40  and  O_42
REMARK                            x       y       z     vdW  Elec       q    Type
REMARK                         _______ _______ _______ _____ _____    ______ ____
ROOT
ATOM      1  C   LIG A   1      -3.159   5.189 131.672  0.00  0.00    +0.047 C 
ATOM      2  C   LIG A   1      -4.365   4.608 130.970  0.00  0.00    +0.123 C 
ATOM      3  O   LIG A   1      -4.588   5.285 129.735  0.00  0.00    -0.359 OA
ATOM      4  C   LIG A   1      -5.646   5.424 130.721  0.00  0.00    +0.104 C 
ATOM      5  C   LIG A   1      -6.870   4.682 130.239  0.00  0.00    +0.063 C 
ATOM      6  C   LIG A   1      -8.266   5.293 130.067  0.00  0.00    +0.084 C 
ATOM      7  N   LIG A   1      -8.959   4.110 129.606  0.00  0.00    -0.311 N 
ATOM      8  H   LIG A   1      -9.802   4.115 129.041  0.00  0.00    +0.149 HD
ATOM      9  C   LIG A   1      -7.025   3.182 130.682  0.00  0.00    +0.102 C 
ATOM     10  C   LIG A   1      -8.284   2.925 129.829  0.00  0.00    +0.224 C 
ATOM     11  O   LIG A   1      -8.766   1.855 129.465  0.00  0.00    -0.275 OA
ATOM     12  C   LIG A   1      -7.521   2.818 132.143  0.00  0.00    +0.224 C 
ATOM     13  C   LIG A   1      -7.265   1.434 132.804  0.00  0.00    +0.192 C 
ATOM     14  C   LIG A   1      -6.876  -0.135 132.681  0.00  0.00    +0.190 C 
ATOM     15  C   LIG A   1      -5.850  -1.004 131.969  0.00  0.00    +0.149 C 
ATOM     16  C   LIG A   1      -6.369  -1.683 130.665  0.00  0.00    +0.170 C 
ATOM     17  C   LIG A   1      -5.781  -1.265 129.308  0.00  0.00    +0.059 C 
ATOM     18  C   LIG A   1      -6.633  -0.124 128.758  0.00  0.00    +0.037 C 
ATOM     19  C   LIG A   1      -5.866   1.027 128.161  0.00  0.00    -0.030 C 
ATOM     20  C   LIG A   1      -5.544   2.172 128.791  0.00  0.00    -0.024 C 
ATOM     21  C   LIG A   1      -5.720   2.443 130.283  0.00  0.00    +0.062 C 
ATOM     22  C   LIG A   1      -4.397   3.095 130.837  0.00  0.00    +0.157 C 
ATOM     23  C   LIG A   1      -5.782  -2.449 128.338  0.00  0.00    +0.016 C 
ATOM     24  O   LIG A   1      -7.278  -2.525 130.697  0.00  0.00    -0.294 OA
ATOM     25  C   LIG A   1      -4.423  -0.477 131.920  0.00  0.00    +0.052 C 
ATOM     26  O   LIG A   1      -7.871   0.462 131.902  0.00  0.00    -0.361 OA
ATOM     27  C   LIG A   1      -5.745   6.854 131.163  0.00  0.00    +0.045 C 
ENDROOT
BRANCH  15  28
ATOM     28  O   LIG A   1      -5.693  -2.186 132.831  0.00  0.00    -0.379 OA
ATOM     29  H   LIG A   1      -5.022  -1.988 133.506  0.00  0.00    +0.211 HD
ENDBRANCH  15  28
BRANCH  22  30
ATOM     30  O   LIG A   1      -4.074   2.487 132.093  0.00  0.00    -0.388 OA
ATOM     31  H   LIG A   1      -4.130   3.148 132.799  0.00  0.00    +0.210 HD
ENDBRANCH  22  30
BRANCH   6  32
ATOM     32  C   LIG A   1      -9.007   5.929 131.247  0.00  0.00    +0.057 C 
BRANCH  32  33
ATOM     33  C   LIG A   1     -10.285   6.669 130.881  0.00  0.00    -0.046 A 
ATOM     34  C   LIG A   1     -10.334   7.474 129.732  0.00  0.00    +0.003 A 
ATOM     35  C   LIG A   1     -11.504   8.155 129.382  0.00  0.00    +0.000 A 
ATOM     36  C   LIG A   1     -12.646   8.032 130.169  0.00  0.00    +0.000 A 
ATOM     37  C   LIG A   1     -12.620   7.218 131.299  0.00  0.00    +0.000 A 
ATOM     38  C   LIG A   1     -11.447   6.541 131.656  0.00  0.00    +0.003 A 
ENDBRANCH  32  33
ENDBRANCH   6  32
BRANCH  12  39
ATOM     39  O   LIG A   1      -7.210   3.910 133.072  0.00  0.00    -0.458 OA
BRANCH  39  40
ATOM     40  C   LIG A   1      -8.117   4.088 134.092  0.00  0.00    +0.304 C 
ATOM     41  C   LIG A   1      -7.541   4.879 135.226  0.00  0.00    +0.136 C 
ATOM     42  O   LIG A   1      -9.303   3.784 134.055  0.00  0.00    -0.251 OA
ENDBRANCH  39  40
ENDBRANCH  12  39
TORSDOF 6
ENDMDL
MODEL 5
REMARK VINA RESULT:      -8.9      3.043      6.723
REMARK  Name = NuBBE_611
REMARK  11 active torsions:
REMARK  status: ('A' for Active; 'I' for Inactive)
REMARK    1  A    between atoms: C_1  and  C_2
REMARK    2  A    between atoms: C_4  and  C_48
REMARK    3  A    between atoms: C_6  and  C_10
REMARK    4  A    between atoms: C_10  and  C_11
REMARK    5  A    between atoms: C_20  and  O_22
REMARK    6  A    between atoms: O_22  and  C_23
REMARK    7  A    between atoms: C_23  and  C_24
REMARK    8  A    between atoms: C_30  and  O_31
REMARK    9  A    between atoms: C_30  and  C_45
REMARK   10  A    between atoms: C_33  and  C_43
REMARK   11  A    between atoms: C_40  and  O_42
REMARK                            x       y       z     vdW  Elec       q    Type
REMARK                         _______ _______ _______ _____ _____    ______ ____
ROOT
ATOM      1  C   LIG A   1      -2.039   3.081 126.832  0.00  0.00    +0.047 C 
ATOM      2  C   LIG A   1      -3.503   3.364 127.084  0.00  0.00    +0.123 C 
ATOM      3  O   LIG A   1      -3.743   4.769 127.060  0.00  0.00    -0.359 OA
ATOM      4  C   LIG A   1      -3.994   4.116 128.334  0.00  0.00    +0.104 C 
ATOM      5  C   LIG A   1      -5.478   4.128 128.611  0.00  0.00    +0.063 C 
ATOM      6  C   LIG A   1      -6.141   4.702 129.868  0.00  0.00    +0.084 C 
ATOM      7  N   LIG A   1      -7.517   4.406 129.536  0.00  0.00    -0.311 N 
ATOM      8  H   LIG A   1      -8.322   4.907 129.898  0.00  0.00    +0.149 HD
ATOM      9  C   LIG A   1      -6.312   2.889 128.120  0.00  0.00    +0.102 C 
ATOM     10  C   LIG A   1      -7.677   3.487 128.517  0.00  0.00    +0.224 C 
ATOM     11  O   LIG A   1      -8.801   3.170 128.135  0.00  0.00    -0.275 OA
ATOM     12  C   LIG A   1      -6.288   1.526 128.930  0.00  0.00    +0.224 C 
ATOM     13  C   LIG A   1      -6.681   0.160 128.301  0.00  0.00    +0.192 C 
ATOM     14  C   LIG A   1      -7.409  -0.694 127.131  0.00  0.00    +0.190 C 
ATOM     15  C   LIG A   1      -7.512  -0.694 125.613  0.00  0.00    +0.149 C 
ATOM     16  C   LIG A   1      -8.802  -0.023 125.050  0.00  0.00    +0.170 C 
ATOM     17  C   LIG A   1      -8.689   1.283 124.248  0.00  0.00    +0.059 C 
ATOM     18  C   LIG A   1      -8.808   2.448 125.229  0.00  0.00    +0.037 C 
ATOM     19  C   LIG A   1      -7.824   3.570 125.023  0.00  0.00    -0.030 C 
ATOM     20  C   LIG A   1      -6.659   3.727 125.678  0.00  0.00    -0.024 C 
ATOM     21  C   LIG A   1      -6.019   2.701 126.608  0.00  0.00    +0.062 C 
ATOM     22  C   LIG A   1      -4.491   2.573 126.244  0.00  0.00    +0.157 C 
ATOM     23  C   LIG A   1      -9.793   1.358 123.191  0.00  0.00    +0.016 C 
ATOM     24  O   LIG A   1      -9.923  -0.501 125.274  0.00  0.00    -0.294 OA
ATOM     25  C   LIG A   1      -6.229  -0.417 124.840  0.00  0.00    +0.052 C 
ATOM     26  O   LIG A   1      -8.047   0.338 127.824  0.00  0.00    -0.361 OA
ATOM     27  C   LIG A   1      -3.022   4.616 129.361  0.00  0.00    +0.045 C 
ENDROOT
BRANCH  15  28
ATOM     28  O   LIG A   1      -7.771  -2.096 125.251  0.00  0.00    -0.379 OA
ATOM     29  H   LIG A   1      -8.731  -2.239 125.238  0.00  0.00    +0.211 HD
ENDBRANCH  15  28
BRANCH  22  30
ATOM     30  O   LIG A   1      -4.131   1.187 126.242  0.00  0.00    -0.388 OA
ATOM     31  H   LIG A   1      -4.566   0.735 126.981  0.00  0.00    +0.210 HD
ENDBRANCH  22  30
BRANCH   6  32
ATOM     32  C   LIG A   1      -5.795   4.172 131.263  0.00  0.00    +0.057 C 
BRANCH  32  33
ATOM     33  C   LIG A   1      -6.952   4.158 132.251  0.00  0.00    -0.046 A 
ATOM     34  C   LIG A   1      -7.688   2.981 132.466  0.00  0.00    +0.003 A 
ATOM     35  C   LIG A   1      -8.749   2.955 133.376  0.00  0.00    +0.000 A 
ATOM     36  C   LIG A   1      -9.085   4.100 134.092  0.00  0.00    +0.000 A 
ATOM     37  C   LIG A   1      -8.349   5.269 133.907  0.00  0.00    +0.000 A 
ATOM     38  C   LIG A   1      -7.290   5.300 132.992  0.00  0.00    +0.003 A 
ENDBRANCH  32  33
ENDBRANCH   6  32
BRANCH  12  39
ATOM     39  O   LIG A   1      -5.042   1.413 129.697  0.00  0.00    -0.458 OA
BRANCH  39  40
ATOM     40  C   LIG A   1      -5.032   0.426 130.657  0.00  0.00    +0.304 C 
ATOM     41  C   LIG A   1      -3.941  -0.574 130.426  0.00  0.00    +0.136 C 
ATOM     42  O   LIG A   1      -5.716   0.410 131.672  0.00  0.00    -0.251 OA
ENDBRANCH  39  40
ENDBRANCH  12  39
TORSDOF 6
ENDMDL
MODEL 6
REMARK VINA RESULT:      -8.9      2.870      7.297
REMARK  Name = NuBBE_611
REMARK  11 active torsions:
REMARK  status: ('A' for Active; 'I' for Inactive)
REMARK    1  A    between atoms: C_1  and  C_2
REMARK    2  A    between atoms: C_4  and  C_48
REMARK    3  A    between atoms: C_6  and  C_10
REMARK    4  A    between atoms: C_10  and  C_11
REMARK    5  A    between atoms: C_20  and  O_22
REMARK    6  A    between atoms: O_22  and  C_23
REMARK    7  A    between atoms: C_23  and  C_24
REMARK    8  A    between atoms: C_30  and  O_31
REMARK    9  A    between atoms: C_30  and  C_45
REMARK   10  A    between atoms: C_33  and  C_43
REMARK   11  A    between atoms: C_40  and  O_42
REMARK                            x       y       z     vdW  Elec       q    Type
REMARK                         _______ _______ _______ _____ _____    ______ ____
ROOT
ATOM      1  C   LIG A   1      -9.128   4.891 129.203  0.00  0.00    +0.047 C 
ATOM      2  C   LIG A   1      -8.191   3.736 129.480  0.00  0.00    +0.123 C 
ATOM      3  O   LIG A   1      -8.011   3.576 130.885  0.00  0.00    -0.359 OA
ATOM      4  C   LIG A   1      -6.815   3.933 130.141  0.00  0.00    +0.104 C 
ATOM      5  C   LIG A   1      -5.863   2.760 130.147  0.00  0.00    +0.063 C 
ATOM      6  C   LIG A   1      -4.410   2.801 130.632  0.00  0.00    +0.084 C 
ATOM      7  N   LIG A   1      -4.061   1.421 130.375  0.00  0.00    -0.311 N 
ATOM      8  H   LIG A   1      -3.329   0.908 130.855  0.00  0.00    +0.149 HD
ATOM      9  C   LIG A   1      -5.971   1.740 128.956  0.00  0.00    +0.102 C 
ATOM     10  C   LIG A   1      -4.935   0.756 129.536  0.00  0.00    +0.224 C 
ATOM     11  O   LIG A   1      -4.753  -0.428 129.259  0.00  0.00    -0.275 OA
ATOM     12  C   LIG A   1      -5.355   2.086 127.536  0.00  0.00    +0.224 C 
ATOM     13  C   LIG A   1      -5.802   1.382 126.225  0.00  0.00    +0.192 C 
ATOM     14  C   LIG A   1      -6.533   0.148 125.467  0.00  0.00    +0.190 C 
ATOM     15  C   LIG A   1      -7.814  -0.664 125.581  0.00  0.00    +0.149 C 
ATOM     16  C   LIG A   1      -7.651  -2.035 126.305  0.00  0.00    +0.170 C 
ATOM     17  C   LIG A   1      -8.328  -2.260 127.666  0.00  0.00    +0.059 C 
ATOM     18  C   LIG A   1      -7.340  -1.847 128.755  0.00  0.00    +0.037 C 
ATOM     19  C   LIG A   1      -7.922  -1.031 129.880  0.00  0.00    -0.030 C 
ATOM     20  C   LIG A   1      -7.895   0.311 129.977  0.00  0.00    -0.024 C 
ATOM     21  C   LIG A   1      -7.447   1.271 128.878  0.00  0.00    +0.062 C 
ATOM     22  C   LIG A   1      -8.504   2.434 128.763  0.00  0.00    +0.157 C 
ATOM     23  C   LIG A   1      -8.723  -3.729 127.830  0.00  0.00    +0.016 C 
ATOM     24  O   LIG A   1      -6.949  -2.935 125.822  0.00  0.00    -0.294 OA
ATOM     25  C   LIG A   1      -9.087   0.108 125.903  0.00  0.00    +0.052 C 
ATOM     26  O   LIG A   1      -5.558  -0.038 126.451  0.00  0.00    -0.361 OA
ATOM     27  C   LIG A   1      -6.348   5.297 130.554  0.00  0.00    +0.045 C 
ENDROOT
BRANCH  15  28
ATOM     28  O   LIG A   1      -8.093  -1.125 124.213  0.00  0.00    -0.379 OA
ATOM     29  H   LIG A   1      -8.864  -1.716 124.237  0.00  0.00    +0.211 HD
ENDBRANCH  15  28
BRANCH  22  30
ATOM     30  O   LIG A   1      -8.762   2.689 127.377  0.00  0.00    -0.388 OA
ATOM     31  H   LIG A   1      -9.648   2.371 127.147  0.00  0.00    +0.210 HD
ENDBRANCH  22  30
BRANCH   6  32
ATOM     32  C   LIG A   1      -3.384   3.745 129.996  0.00  0.00    +0.057 C 
BRANCH  32  33
ATOM     33  C   LIG A   1      -2.684   4.684 130.967  0.00  0.00    -0.046 A 
ATOM     34  C   LIG A   1      -2.399   4.266 132.277  0.00  0.00    +0.003 A 
ATOM     35  C   LIG A   1      -1.751   5.118 133.177  0.00  0.00    +0.000 A 
ATOM     36  C   LIG A   1      -1.370   6.396 132.778  0.00  0.00    +0.000 A 
ATOM     37  C   LIG A   1      -1.624   6.816 131.474  0.00  0.00    +0.000 A 
ATOM     38  C   LIG A   1      -2.279   5.968 130.573  0.00  0.00    +0.003 A 
ENDBRANCH  32  33
ENDBRANCH   6  32
BRANCH  12  39
ATOM     39  O   LIG A   1      -5.285   3.540 127.354  0.00  0.00    -0.458 OA
BRANCH  39  40
ATOM     40  C   LIG A   1      -4.547   3.960 126.270  0.00  0.00    +0.304 C 
ATOM     41  C   LIG A   1      -3.087   3.665 126.434  0.00  0.00    +0.136 C 
ATOM     42  O   LIG A   1      -5.003   4.391 125.219  0.00  0.00    -0.251 OA
ENDBRANCH  39  40
ENDBRANCH  12  39
TORSDOF 6
ENDMDL
MODEL 7
REMARK VINA RESULT:      -8.7      3.009      6.192
REMARK  Name = NuBBE_611
REMARK  11 active torsions:
REMARK  status: ('A' for Active; 'I' for Inactive)
REMARK    1  A    between atoms: C_1  and  C_2
REMARK    2  A    between atoms: C_4  and  C_48
REMARK    3  A    between atoms: C_6  and  C_10
REMARK    4  A    between atoms: C_10  and  C_11
REMARK    5  A    between atoms: C_20  and  O_22
REMARK    6  A    between atoms: O_22  and  C_23
REMARK    7  A    between atoms: C_23  and  C_24
REMARK    8  A    between atoms: C_30  and  O_31
REMARK    9  A    between atoms: C_30  and  C_45
REMARK   10  A    between atoms: C_33  and  C_43
REMARK   11  A    between atoms: C_40  and  O_42
REMARK                            x       y       z     vdW  Elec       q    Type
REMARK                         _______ _______ _______ _____ _____    ______ ____
ROOT
ATOM      1  C   LIG A   1      -5.572   2.456 126.933  0.00  0.00    +0.047 C 
ATOM      2  C   LIG A   1      -6.409   1.743 127.971  0.00  0.00    +0.123 C 
ATOM      3  O   LIG A   1      -7.743   1.572 127.495  0.00  0.00    -0.359 OA
ATOM      4  C   LIG A   1      -7.604   2.415 128.670  0.00  0.00    +0.104 C 
ATOM      5  C   LIG A   1      -8.214   1.709 129.858  0.00  0.00    +0.063 C 
ATOM      6  C   LIG A   1      -9.312   2.280 130.761  0.00  0.00    +0.084 C 
ATOM      7  N   LIG A   1      -9.438   1.165 131.674  0.00  0.00    -0.311 N 
ATOM      8  H   LIG A   1     -10.270   0.948 132.213  0.00  0.00    +0.149 HD
ATOM      9  C   LIG A   1      -7.262   0.808 130.726  0.00  0.00    +0.102 C 
ATOM     10  C   LIG A   1      -8.387   0.269 131.632  0.00  0.00    +0.224 C 
ATOM     11  O   LIG A   1      -8.391  -0.728 132.350  0.00  0.00    -0.275 OA
ATOM     12  C   LIG A   1      -6.263   1.460 131.771  0.00  0.00    +0.224 C 
ATOM     13  C   LIG A   1      -5.004   0.725 132.311  0.00  0.00    +0.192 C 
ATOM     14  C   LIG A   1      -4.168  -0.643 132.555  0.00  0.00    +0.190 C 
ATOM     15  C   LIG A   1      -3.779  -1.895 131.785  0.00  0.00    +0.149 C 
ATOM     16  C   LIG A   1      -4.673  -3.139 132.075  0.00  0.00    +0.170 C 
ATOM     17  C   LIG A   1      -5.575  -3.699 130.963  0.00  0.00    +0.059 C 
ATOM     18  C   LIG A   1      -6.933  -3.007 131.067  0.00  0.00    +0.037 C 
ATOM     19  C   LIG A   1      -7.532  -2.558 129.760  0.00  0.00    -0.030 C 
ATOM     20  C   LIG A   1      -7.447  -1.321 129.237  0.00  0.00    -0.024 C 
ATOM     21  C   LIG A   1      -6.567  -0.193 129.766  0.00  0.00    +0.062 C 
ATOM     22  C   LIG A   1      -5.814   0.472 128.552  0.00  0.00    +0.157 C 
ATOM     23  C   LIG A   1      -5.733  -5.213 131.116  0.00  0.00    +0.016 C 
ATOM     24  O   LIG A   1      -4.703  -3.660 133.198  0.00  0.00    -0.294 OA
ATOM     25  C   LIG A   1      -3.359  -1.703 130.334  0.00  0.00    +0.052 C 
ATOM     26  O   LIG A   1      -5.509  -0.498 132.923  0.00  0.00    -0.361 OA
ATOM     27  C   LIG A   1      -7.998   3.823 128.335  0.00  0.00    +0.045 C 
ENDROOT
BRANCH  15  28
ATOM     28  O   LIG A   1      -2.515  -2.337 132.396  0.00  0.00    -0.379 OA
ATOM     29  H   LIG A   1      -2.215  -1.650 133.014  0.00  0.00    +0.211 HD
ENDBRANCH  15  28
BRANCH  22  30
ATOM     30  O   LIG A   1      -4.448   0.696 128.922  0.00  0.00    -0.388 OA
ATOM     31  H   LIG A   1      -4.286   0.335 129.806  0.00  0.00    +0.210 HD
ENDBRANCH  22  30
BRANCH   6  32
ATOM     32  C   LIG A   1      -9.109   3.589 131.532  0.00  0.00    +0.057 C 
BRANCH  32  33
ATOM     33  C   LIG A   1      -9.820   4.799 130.944  0.00  0.00    -0.046 A 
ATOM     34  C   LIG A   1      -9.171   6.043 130.882  0.00  0.00    +0.003 A 
ATOM     35  C   LIG A   1      -9.812   7.161 130.339  0.00  0.00    +0.000 A 
ATOM     36  C   LIG A   1     -11.107   7.049 129.840  0.00  0.00    +0.000 A 
ATOM     37  C   LIG A   1     -11.754   5.816 129.872  0.00  0.00    +0.000 A 
ATOM     38  C   LIG A   1     -11.118   4.697 130.422  0.00  0.00    +0.003 A 
ENDBRANCH  32  33
ENDBRANCH   6  32
BRANCH  12  39
ATOM     39  O   LIG A   1      -5.940   2.835 131.375  0.00  0.00    -0.458 OA
BRANCH  39  40
ATOM     40  C   LIG A   1      -5.563   3.668 132.404  0.00  0.00    +0.304 C 
ATOM     41  C   LIG A   1      -4.458   4.597 132.002  0.00  0.00    +0.136 C 
ATOM     42  O   LIG A   1      -6.133   3.774 133.483  0.00  0.00    -0.251 OA
ENDBRANCH  39  40
ENDBRANCH  12  39
TORSDOF 6
ENDMDL
MODEL 8
REMARK VINA RESULT:      -8.7      3.416      6.675
REMARK  Name = NuBBE_611
REMARK  11 active torsions:
REMARK  status: ('A' for Active; 'I' for Inactive)
REMARK    1  A    between atoms: C_1  and  C_2
REMARK    2  A    between atoms: C_4  and  C_48
REMARK    3  A    between atoms: C_6  and  C_10
REMARK    4  A    between atoms: C_10  and  C_11
REMARK    5  A    between atoms: C_20  and  O_22
REMARK    6  A    between atoms: O_22  and  C_23
REMARK    7  A    between atoms: C_23  and  C_24
REMARK    8  A    between atoms: C_30  and  O_31
REMARK    9  A    between atoms: C_30  and  C_45
REMARK   10  A    between atoms: C_33  and  C_43
REMARK   11  A    between atoms: C_40  and  O_42
REMARK                            x       y       z     vdW  Elec       q    Type
REMARK                         _______ _______ _______ _____ _____    ______ ____
ROOT
ATOM      1  C   LIG A   1      -4.181  -1.776 129.971  0.00  0.00    +0.047 C 
ATOM      2  C   LIG A   1      -5.448  -0.987 129.731  0.00  0.00    +0.123 C 
ATOM      3  O   LIG A   1      -6.547  -1.873 129.525  0.00  0.00    -0.359 OA
ATOM      4  C   LIG A   1      -6.204  -1.030 128.391  0.00  0.00    +0.104 C 
ATOM      5  C   LIG A   1      -7.309  -0.024 128.174  0.00  0.00    +0.063 C 
ATOM      6  C   LIG A   1      -8.079   0.178 126.864  0.00  0.00    +0.084 C 
ATOM      7  N   LIG A   1      -8.952   1.248 127.294  0.00  0.00    -0.311 N 
ATOM      8  H   LIG A   1      -9.856   1.460 126.883  0.00  0.00    +0.149 HD
ATOM      9  C   LIG A   1      -7.172   1.364 128.900  0.00  0.00    +0.102 C 
ATOM     10  C   LIG A   1      -8.559   1.876 128.460  0.00  0.00    +0.224 C 
ATOM     11  O   LIG A   1      -9.232   2.789 128.934  0.00  0.00    -0.275 OA
ATOM     12  C   LIG A   1      -6.200   2.480 128.333  0.00  0.00    +0.224 C 
ATOM     13  C   LIG A   1      -5.659   3.652 129.200  0.00  0.00    +0.192 C 
ATOM     14  C   LIG A   1      -5.749   4.582 130.525  0.00  0.00    +0.190 C 
ATOM     15  C   LIG A   1      -5.953   4.416 132.024  0.00  0.00    +0.149 C 
ATOM     16  C   LIG A   1      -7.409   4.679 132.513  0.00  0.00    +0.170 C 
ATOM     17  C   LIG A   1      -8.241   3.515 133.077  0.00  0.00    +0.059 C 
ATOM     18  C   LIG A   1      -9.008   2.882 131.918  0.00  0.00    +0.037 C 
ATOM     19  C   LIG A   1      -9.013   1.376 131.892  0.00  0.00    -0.030 C 
ATOM     20  C   LIG A   1      -8.182   0.597 131.176  0.00  0.00    -0.024 C 
ATOM     21  C   LIG A   1      -6.954   1.079 130.409  0.00  0.00    +0.062 C 
ATOM     22  C   LIG A   1      -5.748   0.117 130.731  0.00  0.00    +0.157 C 
ATOM     23  C   LIG A   1      -9.210   4.021 134.147  0.00  0.00    +0.016 C 
ATOM     24  O   LIG A   1      -7.926   5.801 132.418  0.00  0.00    -0.294 OA
ATOM     25  C   LIG A   1      -5.229   3.253 132.688  0.00  0.00    +0.052 C 
ATOM     26  O   LIG A   1      -6.845   4.342 129.692  0.00  0.00    -0.361 OA
ATOM     27  C   LIG A   1      -5.712  -1.879 127.257  0.00  0.00    +0.045 C 
ENDROOT
BRANCH  15  28
ATOM     28  O   LIG A   1      -5.265   5.567 132.628  0.00  0.00    -0.379 OA
ATOM     29  H   LIG A   1      -5.707   5.786 133.465  0.00  0.00    +0.211 HD
ENDBRANCH  15  28
BRANCH  22  30
ATOM     30  O   LIG A   1      -4.574   0.906 130.954  0.00  0.00    -0.388 OA
ATOM     31  H   LIG A   1      -4.757   1.832 130.736  0.00  0.00    +0.210 HD
ENDBRANCH  22  30
BRANCH   6  32
ATOM     32  C   LIG A   1      -7.358   0.558 125.567  0.00  0.00    +0.057 C 
BRANCH  32  33
ATOM     33  C   LIG A   1      -7.552  -0.415 124.414  0.00  0.00    -0.046 A 
ATOM     34  C   LIG A   1      -8.845  -0.767 123.992  0.00  0.00    +0.003 A 
ATOM     35  C   LIG A   1      -9.036  -1.655 122.929  0.00  0.00    +0.000 A 
ATOM     36  C   LIG A   1      -7.939  -2.197 122.266  0.00  0.00    +0.000 A 
ATOM     37  C   LIG A   1      -6.651  -1.839 122.657  0.00  0.00    +0.000 A 
ATOM     38  C   LIG A   1      -6.456  -0.955 123.725  0.00  0.00    +0.003 A 
ENDBRANCH  32  33
ENDBRANCH   6  32
BRANCH  12  39
ATOM     39  O   LIG A   1      -5.123   1.866 127.549  0.00  0.00    -0.458 OA
BRANCH  39  40
ATOM     40  C   LIG A   1      -4.517   2.696 126.633  0.00  0.00    +0.304 C 
ATOM     41  C   LIG A   1      -3.032   2.755 126.822  0.00  0.00    +0.136 C 
ATOM     42  O   LIG A   1      -5.066   3.222 125.674  0.00  0.00    -0.251 OA
ENDBRANCH  39  40
ENDBRANCH  12  39
TORSDOF 6
ENDMDL
MODEL 9
REMARK VINA RESULT:      -8.5      2.765      7.021
REMARK  Name = NuBBE_611
REMARK  11 active torsions:
REMARK  status: ('A' for Active; 'I' for Inactive)
REMARK    1  A    between atoms: C_1  and  C_2
REMARK    2  A    between atoms: C_4  and  C_48
REMARK    3  A    between atoms: C_6  and  C_10
REMARK    4  A    between atoms: C_10  and  C_11
REMARK    5  A    between atoms: C_20  and  O_22
REMARK    6  A    between atoms: O_22  and  C_23
REMARK    7  A    between atoms: C_23  and  C_24
REMARK    8  A    between atoms: C_30  and  O_31
REMARK    9  A    between atoms: C_30  and  C_45
REMARK   10  A    between atoms: C_33  and  C_43
REMARK   11  A    between atoms: C_40  and  O_42
REMARK                            x       y       z     vdW  Elec       q    Type
REMARK                         _______ _______ _______ _____ _____    ______ ____
ROOT
ATOM      1  C   LIG A   1      -8.389   1.159 131.517  0.00  0.00    +0.047 C 
ATOM      2  C   LIG A   1      -7.298   1.271 130.477  0.00  0.00    +0.123 C 
ATOM      3  O   LIG A   1      -6.109   0.636 130.942  0.00  0.00    -0.359 OA
ATOM      4  C   LIG A   1      -6.005   2.069 130.722  0.00  0.00    +0.104 C 
ATOM      5  C   LIG A   1      -5.099   2.321 129.540  0.00  0.00    +0.063 C 
ATOM      6  C   LIG A   1      -3.846   3.203 129.556  0.00  0.00    +0.084 C 
ATOM      7  N   LIG A   1      -3.455   3.043 128.173  0.00  0.00    -0.311 N 
ATOM      8  H   LIG A   1      -2.511   3.154 127.820  0.00  0.00    +0.149 HD
ATOM      9  C   LIG A   1      -5.775   2.427 128.125  0.00  0.00    +0.102 C 
ATOM     10  C   LIG A   1      -4.443   2.530 127.354  0.00  0.00    +0.224 C 
ATOM     11  O   LIG A   1      -4.223   2.332 126.161  0.00  0.00    -0.275 OA
ATOM     12  C   LIG A   1      -6.527   3.752 127.685  0.00  0.00    +0.224 C 
ATOM     13  C   LIG A   1      -7.586   3.787 126.548  0.00  0.00    +0.192 C 
ATOM     14  C   LIG A   1      -8.276   3.113 125.244  0.00  0.00    +0.190 C 
ATOM     15  C   LIG A   1      -8.777   1.749 124.795  0.00  0.00    +0.149 C 
ATOM     16  C   LIG A   1      -7.782   0.957 123.893  0.00  0.00    +0.170 C 
ATOM     17  C   LIG A   1      -7.144  -0.336 124.423  0.00  0.00    +0.059 C 
ATOM     18  C   LIG A   1      -5.834   0.036 125.115  0.00  0.00    +0.037 C 
ATOM     19  C   LIG A   1      -5.583  -0.646 126.434  0.00  0.00    -0.030 C 
ATOM     20  C   LIG A   1      -5.848  -0.133 127.650  0.00  0.00    -0.024 C 
ATOM     21  C   LIG A   1      -6.629   1.149 127.921  0.00  0.00    +0.062 C 
ATOM     22  C   LIG A   1      -7.678   0.868 129.062  0.00  0.00    +0.157 C 
ATOM     23  C   LIG A   1      -6.883  -1.313 123.273  0.00  0.00    +0.016 C 
ATOM     24  O   LIG A   1      -7.463   1.374 122.770  0.00  0.00    -0.294 OA
ATOM     25  C   LIG A   1      -9.537   0.926 125.826  0.00  0.00    +0.052 C 
ATOM     26  O   LIG A   1      -6.894   3.288 125.366  0.00  0.00    -0.361 OA
ATOM     27  C   LIG A   1      -5.768   2.767 132.028  0.00  0.00    +0.045 C 
ENDROOT
BRANCH  15  28
ATOM     28  O   LIG A   1      -9.838   2.039 123.818  0.00  0.00    -0.379 OA
ATOM     29  H   LIG A   1      -9.820   2.990 123.617  0.00  0.00    +0.211 HD
ENDBRANCH  15  28
BRANCH  22  30
ATOM     30  O   LIG A   1      -8.927   1.471 128.702  0.00  0.00    -0.388 OA
ATOM     31  H   LIG A   1      -9.267   1.059 127.893  0.00  0.00    +0.210 HD
ENDBRANCH  22  30
BRANCH   6  32
ATOM     32  C   LIG A   1      -3.922   4.688 129.927  0.00  0.00    +0.057 C 
BRANCH  32  33
ATOM     33  C   LIG A   1      -2.841   5.169 130.882  0.00  0.00    -0.046 A 
ATOM     34  C   LIG A   1      -2.551   4.445 132.050  0.00  0.00    +0.003 A 
ATOM     35  C   LIG A   1      -1.554   4.874 132.932  0.00  0.00    +0.000 A 
ATOM     36  C   LIG A   1      -0.826   6.027 132.656  0.00  0.00    +0.000 A 
ATOM     37  C   LIG A   1      -1.085   6.743 131.489  0.00  0.00    +0.000 A 
ATOM     38  C   LIG A   1      -2.087   6.320 130.608  0.00  0.00    +0.003 A 
ENDBRANCH  32  33
ENDBRANCH   6  32
BRANCH  12  39
ATOM     39  O   LIG A   1      -6.999   4.484 128.866  0.00  0.00    -0.458 OA
BRANCH  39  40
ATOM     40  C   LIG A   1      -8.328   4.841 128.842  0.00  0.00    +0.304 C 
ATOM     41  C   LIG A   1      -9.034   4.474 130.111  0.00  0.00    +0.136 C 
ATOM     42  O   LIG A   1      -8.872   5.511 127.973  0.00  0.00    -0.251 OA
ENDBRANCH  39  40
ENDBRANCH  12  39
TORSDOF 6
ENDMDL
