MODEL 1
REMARK VINA RESULT:      -9.4      0.000      0.000
REMARK  Name = NuBBE_1035
REMARK  9 active torsions:
REMARK  status: ('A' for Active; 'I' for Inactive)
REMARK    1  A    between atoms: C_5  and  C_6
REMARK    2  A    between atoms: C_10  and  C_11
REMARK    3  A    between atoms: C_17  and  C_18
REMARK    4  A    between atoms: C_21  and  C_22
REMARK    5  A    between atoms: C_22  and  O_23
REMARK    6  A    between atoms: C_27  and  C_29
REMARK    7  A    between atoms: C_30  and  C_32
REMARK    8  A    between atoms: C_36  and  C_37
REMARK    9  A    between atoms: C_36  and  C_38
REMARK                            x       y       z     vdW  Elec       q    Type
REMARK                         _______ _______ _______ _____ _____    ______ ____
ROOT
ATOM      1  O   LIG A   1      -5.125  -2.929 135.253  0.00  0.00    -0.297 OA
ATOM      2  C   LIG A   1      -5.223  -2.344 134.172  0.00  0.00    +0.139 C 
ATOM      3  C   LIG A   1      -5.998  -1.037 134.068  0.00  0.00    +0.075 C 
ATOM      4  C   LIG A   1      -6.970  -0.958 132.879  0.00  0.00    +0.015 C 
ATOM      5  C   LIG A   1      -6.690  -1.999 131.749  0.00  0.00    -0.024 C 
ATOM      6  C   LIG A   1      -7.427  -3.286 132.222  0.00  0.00    +0.012 C 
ATOM      7  C   LIG A   1      -5.130  -2.148 131.677  0.00  0.00    +0.008 C 
ATOM      8  C   LIG A   1      -4.686  -2.626 130.298  0.00  0.00    +0.005 C 
ATOM      9  C   LIG A   1      -4.967  -1.554 129.223  0.00  0.00    +0.008 C 
ATOM     10  C   LIG A   1      -6.276  -0.704 129.419  0.00  0.00    -0.019 C 
ATOM     11  C   LIG A   1      -5.898   0.645 130.103  0.00  0.00    +0.012 C 
ATOM     12  C   LIG A   1      -7.285  -1.517 130.329  0.00  0.00    +0.006 C 
ATOM     13  C   LIG A   1      -7.935  -2.686 129.517  0.00  0.00    +0.031 C 
ATOM     14  C   LIG A   1      -7.842  -2.677 128.024  0.00  0.00    -0.026 C 
ATOM     15  C   LIG A   1      -7.354  -1.669 127.281  0.00  0.00    -0.063 C 
ATOM     16  C   LIG A   1      -6.967  -0.363 127.986  0.00  0.00    -0.005 C 
ATOM     17  C   LIG A   1      -8.263   0.479 128.192  0.00  0.00    +0.016 C 
ATOM     18  C   LIG A   1      -6.020   0.453 127.059  0.00  0.00    +0.012 C 
ATOM     19  C   LIG A   1      -6.573   0.707 125.647  0.00  0.00    +0.019 C 
ATOM     20  C   LIG A   1      -7.155  -0.550 124.934  0.00  0.00    +0.074 C 
ATOM     21  C   LIG A   1      -6.957  -1.830 125.802  0.00  0.00    +0.035 C 
ATOM     22  C   LIG A   1      -7.329  -3.164 125.063  0.00  0.00    -0.003 C 
ATOM     23  C   LIG A   1      -8.832  -3.412 124.860  0.00  0.00    +0.008 C 
ATOM     24  C   LIG A   1      -6.599  -3.288 123.698  0.00  0.00    -0.011 C 
ATOM     25  C   LIG A   1      -5.116  -3.645 123.875  0.00  0.00    +0.008 C 
ATOM     26  C   LIG A   1      -6.764  -2.022 122.847  0.00  0.00    +0.004 C 
ATOM     27  C   LIG A   1      -6.388  -0.744 123.594  0.00  0.00    +0.019 C 
ATOM     28  C   LIG A   1      -4.477  -2.831 132.917  0.00  0.00    +0.027 C 
ATOM     29  C   LIG A   1      -4.456  -4.367 132.862  0.00  0.00    +0.019 C 
ATOM     30  C   LIG A   1      -3.014  -2.357 133.066  0.00  0.00    +0.019 C 
ENDROOT
BRANCH  20  31
ATOM     31  C   LIG A   1      -8.634  -0.254 124.655  0.00  0.00    +0.311 C 
ATOM     32  O   LIG A   1      -9.594  -0.505 125.364  0.00  0.00    -0.250 OA
BRANCH  31  33
ATOM     33  O   LIG A   1      -8.842   0.439 123.515  0.00  0.00    -0.480 OA
ATOM     34  H   LIG A   1      -8.195   0.046 122.890  0.00  0.00    +0.295 HD
ENDBRANCH  31  33
ENDBRANCH  20  31
TORSDOF 2
ENDMDL
MODEL 2
REMARK VINA RESULT:      -8.9      2.351      7.795
REMARK  Name = NuBBE_1035
REMARK  9 active torsions:
REMARK  status: ('A' for Active; 'I' for Inactive)
REMARK    1  A    between atoms: C_5  and  C_6
REMARK    2  A    between atoms: C_10  and  C_11
REMARK    3  A    between atoms: C_17  and  C_18
REMARK    4  A    between atoms: C_21  and  C_22
REMARK    5  A    between atoms: C_22  and  O_23
REMARK    6  A    between atoms: C_27  and  C_29
REMARK    7  A    between atoms: C_30  and  C_32
REMARK    8  A    between atoms: C_36  and  C_37
REMARK    9  A    between atoms: C_36  and  C_38
REMARK                            x       y       z     vdW  Elec       q    Type
REMARK                         _______ _______ _______ _____ _____    ______ ____
ROOT
ATOM      1  O   LIG A   1      -8.294  -2.890 122.703  0.00  0.00    -0.297 OA
ATOM      2  C   LIG A   1      -7.871  -2.771 123.855  0.00  0.00    +0.139 C 
ATOM      3  C   LIG A   1      -8.416  -3.651 124.973  0.00  0.00    +0.075 C 
ATOM      4  C   LIG A   1      -8.775  -2.899 126.266  0.00  0.00    +0.015 C 
ATOM      5  C   LIG A   1      -8.124  -1.485 126.390  0.00  0.00    -0.024 C 
ATOM      6  C   LIG A   1      -9.096  -0.547 125.616  0.00  0.00    +0.012 C 
ATOM      7  C   LIG A   1      -6.702  -1.606 125.739  0.00  0.00    +0.008 C 
ATOM      8  C   LIG A   1      -5.751  -0.551 126.294  0.00  0.00    +0.005 C 
ATOM      9  C   LIG A   1      -5.455  -0.803 127.789  0.00  0.00    +0.008 C 
ATOM     10  C   LIG A   1      -6.647  -1.372 128.644  0.00  0.00    -0.019 C 
ATOM     11  C   LIG A   1      -6.488  -2.918 128.756  0.00  0.00    +0.012 C 
ATOM     12  C   LIG A   1      -8.011  -1.010 127.927  0.00  0.00    +0.006 C 
ATOM     13  C   LIG A   1      -8.345   0.507 128.118  0.00  0.00    +0.031 C 
ATOM     14  C   LIG A   1      -7.620   1.287 129.169  0.00  0.00    -0.026 C 
ATOM     15  C   LIG A   1      -6.780   0.768 130.081  0.00  0.00    -0.063 C 
ATOM     16  C   LIG A   1      -6.627  -0.756 130.149  0.00  0.00    -0.005 C 
ATOM     17  C   LIG A   1      -7.811  -1.325 130.988  0.00  0.00    +0.016 C 
ATOM     18  C   LIG A   1      -5.309  -1.100 130.905  0.00  0.00    +0.012 C 
ATOM     19  C   LIG A   1      -5.181  -0.449 132.292  0.00  0.00    +0.019 C 
ATOM     20  C   LIG A   1      -5.503   1.075 132.334  0.00  0.00    +0.074 C 
ATOM     21  C   LIG A   1      -5.802   1.625 130.906  0.00  0.00    +0.035 C 
ATOM     22  C   LIG A   1      -5.930   3.189 130.840  0.00  0.00    -0.003 C 
ATOM     23  C   LIG A   1      -7.215   3.775 131.445  0.00  0.00    +0.008 C 
ATOM     24  C   LIG A   1      -4.698   3.893 131.472  0.00  0.00    -0.011 C 
ATOM     25  C   LIG A   1      -3.469   3.823 130.553  0.00  0.00    +0.008 C 
ATOM     26  C   LIG A   1      -4.378   3.339 132.866  0.00  0.00    +0.004 C 
ATOM     27  C   LIG A   1      -4.254   1.817 132.893  0.00  0.00    +0.019 C 
ATOM     28  C   LIG A   1      -6.702  -1.830 124.196  0.00  0.00    +0.027 C 
ATOM     29  C   LIG A   1      -6.786  -0.541 123.364  0.00  0.00    +0.019 C 
ATOM     30  C   LIG A   1      -5.410  -2.566 123.773  0.00  0.00    +0.019 C 
ENDROOT
BRANCH  20  31
ATOM     31  C   LIG A   1      -6.690   1.249 133.290  0.00  0.00    +0.311 C 
ATOM     32  O   LIG A   1      -7.879   1.186 133.026  0.00  0.00    -0.250 OA
BRANCH  31  33
ATOM     33  O   LIG A   1      -6.326   1.412 134.580  0.00  0.00    -0.480 OA
ATOM     34  H   LIG A   1      -7.033   0.945 135.075  0.00  0.00    +0.295 HD
ENDBRANCH  31  33
ENDBRANCH  20  31
TORSDOF 2
ENDMDL
MODEL 3
REMARK VINA RESULT:      -8.7      3.705      7.849
REMARK  Name = NuBBE_1035
REMARK  9 active torsions:
REMARK  status: ('A' for Active; 'I' for Inactive)
REMARK    1  A    between atoms: C_5  and  C_6
REMARK    2  A    between atoms: C_10  and  C_11
REMARK    3  A    between atoms: C_17  and  C_18
REMARK    4  A    between atoms: C_21  and  C_22
REMARK    5  A    between atoms: C_22  and  O_23
REMARK    6  A    between atoms: C_27  and  C_29
REMARK    7  A    between atoms: C_30  and  C_32
REMARK    8  A    between atoms: C_36  and  C_37
REMARK    9  A    between atoms: C_36  and  C_38
REMARK                            x       y       z     vdW  Elec       q    Type
REMARK                         _______ _______ _______ _____ _____    ______ ____
ROOT
ATOM      1  O   LIG A   1      -7.499  -4.026 124.479  0.00  0.00    -0.297 OA
ATOM      2  C   LIG A   1      -7.227  -2.927 124.967  0.00  0.00    +0.139 C 
ATOM      3  C   LIG A   1      -5.791  -2.583 125.341  0.00  0.00    +0.075 C 
ATOM      4  C   LIG A   1      -5.625  -1.943 126.730  0.00  0.00    +0.015 C 
ATOM      5  C   LIG A   1      -6.940  -1.348 127.326  0.00  0.00    -0.024 C 
ATOM      6  C   LIG A   1      -7.635  -2.563 128.008  0.00  0.00    +0.012 C 
ATOM      7  C   LIG A   1      -7.736  -0.759 126.110  0.00  0.00    +0.008 C 
ATOM      8  C   LIG A   1      -8.693   0.341 126.560  0.00  0.00    +0.005 C 
ATOM      9  C   LIG A   1      -7.918   1.573 127.078  0.00  0.00    +0.008 C 
ATOM     10  C   LIG A   1      -6.581   1.273 127.853  0.00  0.00    -0.019 C 
ATOM     11  C   LIG A   1      -5.386   1.427 126.864  0.00  0.00    +0.012 C 
ATOM     12  C   LIG A   1      -6.638  -0.204 128.421  0.00  0.00    +0.006 C 
ATOM     13  C   LIG A   1      -7.597  -0.279 129.656  0.00  0.00    +0.031 C 
ATOM     14  C   LIG A   1      -8.012   0.988 130.336  0.00  0.00    -0.026 C 
ATOM     15  C   LIG A   1      -7.526   2.211 130.064  0.00  0.00    -0.063 C 
ATOM     16  C   LIG A   1      -6.366   2.332 129.068  0.00  0.00    -0.005 C 
ATOM     17  C   LIG A   1      -5.041   2.027 129.830  0.00  0.00    +0.016 C 
ATOM     18  C   LIG A   1      -6.286   3.801 128.558  0.00  0.00    +0.012 C 
ATOM     19  C   LIG A   1      -6.198   4.858 129.671  0.00  0.00    +0.019 C 
ATOM     20  C   LIG A   1      -7.236   4.690 130.820  0.00  0.00    +0.074 C 
ATOM     21  C   LIG A   1      -8.212   3.510 130.527  0.00  0.00    +0.035 C 
ATOM     22  C   LIG A   1      -9.412   3.410 131.535  0.00  0.00    -0.003 C 
ATOM     23  C   LIG A   1      -9.057   2.901 132.940  0.00  0.00    +0.008 C 
ATOM     24  C   LIG A   1     -10.174   4.758 131.655  0.00  0.00    -0.011 C 
ATOM     25  C   LIG A   1     -11.057   5.026 130.426  0.00  0.00    +0.008 C 
ATOM     26  C   LIG A   1      -9.220   5.931 131.916  0.00  0.00    +0.004 C 
ATOM     27  C   LIG A   1      -8.069   6.002 130.914  0.00  0.00    +0.019 C 
ATOM     28  C   LIG A   1      -8.285  -1.818 125.106  0.00  0.00    +0.027 C 
ATOM     29  C   LIG A   1      -9.647  -2.416 125.491  0.00  0.00    +0.019 C 
ATOM     30  C   LIG A   1      -8.440  -1.183 123.706  0.00  0.00    +0.019 C 
ENDROOT
BRANCH  20  31
ATOM     31  C   LIG A   1      -6.436   4.482 132.111  0.00  0.00    +0.311 C 
ATOM     32  O   LIG A   1      -6.020   3.432 132.573  0.00  0.00    -0.250 OA
BRANCH  31  33
ATOM     33  O   LIG A   1      -6.108   5.632 132.737  0.00  0.00    -0.480 OA
ATOM     34  H   LIG A   1      -5.942   5.349 133.661  0.00  0.00    +0.295 HD
ENDBRANCH  31  33
ENDBRANCH  20  31
TORSDOF 2
ENDMDL
MODEL 4
REMARK VINA RESULT:      -8.7      2.932      7.686
REMARK  Name = NuBBE_1035
REMARK  9 active torsions:
REMARK  status: ('A' for Active; 'I' for Inactive)
REMARK    1  A    between atoms: C_5  and  C_6
REMARK    2  A    between atoms: C_10  and  C_11
REMARK    3  A    between atoms: C_17  and  C_18
REMARK    4  A    between atoms: C_21  and  C_22
REMARK    5  A    between atoms: C_22  and  O_23
REMARK    6  A    between atoms: C_27  and  C_29
REMARK    7  A    between atoms: C_30  and  C_32
REMARK    8  A    between atoms: C_36  and  C_37
REMARK    9  A    between atoms: C_36  and  C_38
REMARK                            x       y       z     vdW  Elec       q    Type
REMARK                         _______ _______ _______ _____ _____    ______ ____
ROOT
ATOM      1  O   LIG A   1      -8.959  -3.392 123.303  0.00  0.00    -0.297 OA
ATOM      2  C   LIG A   1      -8.324  -3.017 124.291  0.00  0.00    +0.139 C 
ATOM      3  C   LIG A   1      -8.568  -3.654 125.653  0.00  0.00    +0.075 C 
ATOM      4  C   LIG A   1      -8.716  -2.655 126.814  0.00  0.00    +0.015 C 
ATOM      5  C   LIG A   1      -8.160  -1.228 126.508  0.00  0.00    -0.024 C 
ATOM      6  C   LIG A   1      -9.334  -0.506 125.784  0.00  0.00    +0.012 C 
ATOM      7  C   LIG A   1      -6.892  -1.442 125.610  0.00  0.00    +0.008 C 
ATOM      8  C   LIG A   1      -5.930  -0.264 125.727  0.00  0.00    +0.005 C 
ATOM      9  C   LIG A   1      -5.323  -0.183 127.145  0.00  0.00    +0.008 C 
ATOM     10  C   LIG A   1      -6.275  -0.591 128.329  0.00  0.00    -0.019 C 
ATOM     11  C   LIG A   1      -5.983  -2.073 128.716  0.00  0.00    +0.012 C 
ATOM     12  C   LIG A   1      -7.778  -0.432 127.858  0.00  0.00    +0.006 C 
ATOM     13  C   LIG A   1      -8.177   1.080 127.804  0.00  0.00    +0.031 C 
ATOM     14  C   LIG A   1      -7.317   2.087 128.499  0.00  0.00    -0.026 C 
ATOM     15  C   LIG A   1      -6.275   1.801 129.298  0.00  0.00    -0.063 C 
ATOM     16  C   LIG A   1      -5.999   0.332 129.640  0.00  0.00    -0.005 C 
ATOM     17  C   LIG A   1      -6.947  -0.080 130.807  0.00  0.00    +0.016 C 
ATOM     18  C   LIG A   1      -4.535   0.197 130.154  0.00  0.00    +0.012 C 
ATOM     19  C   LIG A   1      -4.181   1.133 131.321  0.00  0.00    +0.019 C 
ATOM     20  C   LIG A   1      -4.600   2.620 131.121  0.00  0.00    +0.074 C 
ATOM     21  C   LIG A   1      -5.219   2.844 129.707  0.00  0.00    +0.035 C 
ATOM     22  C   LIG A   1      -5.473   4.352 129.354  0.00  0.00    -0.003 C 
ATOM     23  C   LIG A   1      -6.650   5.015 130.086  0.00  0.00    +0.008 C 
ATOM     24  C   LIG A   1      -4.195   5.212 129.556  0.00  0.00    -0.011 C 
ATOM     25  C   LIG A   1      -3.172   4.985 128.432  0.00  0.00    +0.008 C 
ATOM     26  C   LIG A   1      -3.562   4.979 130.934  0.00  0.00    +0.004 C 
ATOM     27  C   LIG A   1      -3.323   3.502 131.242  0.00  0.00    +0.019 C 
ATOM     28  C   LIG A   1      -7.183  -1.990 124.180  0.00  0.00    +0.027 C 
ATOM     29  C   LIG A   1      -7.527  -0.911 123.141  0.00  0.00    +0.019 C 
ATOM     30  C   LIG A   1      -5.952  -2.760 123.652  0.00  0.00    +0.019 C 
ENDROOT
BRANCH  20  31
ATOM     31  C   LIG A   1      -5.581   2.958 132.250  0.00  0.00    +0.311 C 
ATOM     32  O   LIG A   1      -6.787   2.773 132.275  0.00  0.00    -0.250 OA
BRANCH  31  33
ATOM     33  O   LIG A   1      -4.984   3.445 133.359  0.00  0.00    -0.480 OA
ATOM     34  H   LIG A   1      -4.710   4.348 133.091  0.00  0.00    +0.295 HD
ENDBRANCH  31  33
ENDBRANCH  20  31
TORSDOF 2
ENDMDL
MODEL 5
REMARK VINA RESULT:      -8.6      3.895      6.658
REMARK  Name = NuBBE_1035
REMARK  9 active torsions:
REMARK  status: ('A' for Active; 'I' for Inactive)
REMARK    1  A    between atoms: C_5  and  C_6
REMARK    2  A    between atoms: C_10  and  C_11
REMARK    3  A    between atoms: C_17  and  C_18
REMARK    4  A    between atoms: C_21  and  C_22
REMARK    5  A    between atoms: C_22  and  O_23
REMARK    6  A    between atoms: C_27  and  C_29
REMARK    7  A    between atoms: C_30  and  C_32
REMARK    8  A    between atoms: C_36  and  C_37
REMARK    9  A    between atoms: C_36  and  C_38
REMARK                            x       y       z     vdW  Elec       q    Type
REMARK                         _______ _______ _______ _____ _____    ______ ____
ROOT
ATOM      1  O   LIG A   1      -9.524   6.550 132.972  0.00  0.00    -0.297 OA
ATOM      2  C   LIG A   1      -8.649   5.716 132.731  0.00  0.00    +0.139 C 
ATOM      3  C   LIG A   1      -7.619   5.972 131.637  0.00  0.00    +0.075 C 
ATOM      4  C   LIG A   1      -7.382   4.785 130.687  0.00  0.00    +0.015 C 
ATOM      5  C   LIG A   1      -7.870   3.410 131.242  0.00  0.00    -0.024 C 
ATOM      6  C   LIG A   1      -9.381   3.361 130.868  0.00  0.00    +0.012 C 
ATOM      7  C   LIG A   1      -7.596   3.445 132.785  0.00  0.00    +0.008 C 
ATOM      8  C   LIG A   1      -7.449   2.036 133.350  0.00  0.00    +0.005 C 
ATOM      9  C   LIG A   1      -6.179   1.348 132.803  0.00  0.00    +0.008 C 
ATOM     10  C   LIG A   1      -5.798   1.684 131.313  0.00  0.00    -0.019 C 
ATOM     11  C   LIG A   1      -4.715   2.806 131.316  0.00  0.00    +0.012 C 
ATOM     12  C   LIG A   1      -7.095   2.176 130.550  0.00  0.00    +0.006 C 
ATOM     13  C   LIG A   1      -8.039   0.966 130.239  0.00  0.00    +0.031 C 
ATOM     14  C   LIG A   1      -7.497  -0.425 130.337  0.00  0.00    -0.026 C 
ATOM     15  C   LIG A   1      -6.209  -0.745 130.546  0.00  0.00    -0.063 C 
ATOM     16  C   LIG A   1      -5.170   0.383 130.567  0.00  0.00    -0.005 C 
ATOM     17  C   LIG A   1      -4.797   0.726 129.094  0.00  0.00    +0.016 C 
ATOM     18  C   LIG A   1      -3.879  -0.130 131.271  0.00  0.00    +0.012 C 
ATOM     19  C   LIG A   1      -3.303  -1.427 130.680  0.00  0.00    +0.019 C 
ATOM     20  C   LIG A   1      -4.343  -2.565 130.457  0.00  0.00    +0.074 C 
ATOM     21  C   LIG A   1      -5.752  -2.150 130.981  0.00  0.00    +0.035 C 
ATOM     22  C   LIG A   1      -6.801  -3.317 130.982  0.00  0.00    -0.003 C 
ATOM     23  C   LIG A   1      -7.327  -3.736 129.600  0.00  0.00    +0.008 C 
ATOM     24  C   LIG A   1      -6.266  -4.570 131.728  0.00  0.00    -0.011 C 
ATOM     25  C   LIG A   1      -6.285  -4.377 133.252  0.00  0.00    +0.008 C 
ATOM     26  C   LIG A   1      -4.869  -4.971 131.239  0.00  0.00    +0.004 C 
ATOM     27  C   LIG A   1      -3.872  -3.814 131.258  0.00  0.00    +0.019 C 
ATOM     28  C   LIG A   1      -8.478   4.449 133.588  0.00  0.00    +0.027 C 
ATOM     29  C   LIG A   1      -9.847   3.897 134.016  0.00  0.00    +0.019 C 
ATOM     30  C   LIG A   1      -7.737   4.887 134.872  0.00  0.00    +0.019 C 
ENDROOT
BRANCH  20  31
ATOM     31  C   LIG A   1      -4.345  -2.874 128.955  0.00  0.00    +0.311 C 
ATOM     32  O   LIG A   1      -5.028  -2.359 128.085  0.00  0.00    -0.250 OA
BRANCH  31  33
ATOM     33  O   LIG A   1      -3.406  -3.771 128.586  0.00  0.00    -0.480 OA
ATOM     34  H   LIG A   1      -3.519  -3.830 127.613  0.00  0.00    +0.295 HD
ENDBRANCH  31  33
ENDBRANCH  20  31
TORSDOF 2
ENDMDL
MODEL 6
REMARK VINA RESULT:      -8.5      4.338      7.197
REMARK  Name = NuBBE_1035
REMARK  9 active torsions:
REMARK  status: ('A' for Active; 'I' for Inactive)
REMARK    1  A    between atoms: C_5  and  C_6
REMARK    2  A    between atoms: C_10  and  C_11
REMARK    3  A    between atoms: C_17  and  C_18
REMARK    4  A    between atoms: C_21  and  C_22
REMARK    5  A    between atoms: C_22  and  O_23
REMARK    6  A    between atoms: C_27  and  C_29
REMARK    7  A    between atoms: C_30  and  C_32
REMARK    8  A    between atoms: C_36  and  C_37
REMARK    9  A    between atoms: C_36  and  C_38
REMARK                            x       y       z     vdW  Elec       q    Type
REMARK                         _______ _______ _______ _____ _____    ______ ____
ROOT
ATOM      1  O   LIG A   1      -5.982  -5.161 130.355  0.00  0.00    -0.297 OA
ATOM      2  C   LIG A   1      -6.169  -3.987 130.679  0.00  0.00    +0.139 C 
ATOM      3  C   LIG A   1      -7.485  -3.295 130.346  0.00  0.00    +0.075 C 
ATOM      4  C   LIG A   1      -7.337  -1.888 129.741  0.00  0.00    +0.015 C 
ATOM      5  C   LIG A   1      -5.940  -1.231 129.976  0.00  0.00    -0.024 C 
ATOM      6  C   LIG A   1      -5.056  -1.784 128.819  0.00  0.00    +0.012 C 
ATOM      7  C   LIG A   1      -5.482  -1.691 131.403  0.00  0.00    +0.008 C 
ATOM      8  C   LIG A   1      -4.487  -0.704 132.006  0.00  0.00    +0.005 C 
ATOM      9  C   LIG A   1      -5.160   0.656 132.295  0.00  0.00    +0.008 C 
ATOM     10  C   LIG A   1      -6.259   1.116 131.267  0.00  0.00    -0.019 C 
ATOM     11  C   LIG A   1      -7.662   0.744 131.836  0.00  0.00    +0.012 C 
ATOM     12  C   LIG A   1      -6.013   0.378 129.888  0.00  0.00    +0.006 C 
ATOM     13  C   LIG A   1      -4.783   1.000 129.146  0.00  0.00    +0.031 C 
ATOM     14  C   LIG A   1      -4.264   2.333 129.585  0.00  0.00    -0.026 C 
ATOM     15  C   LIG A   1      -4.846   3.133 130.494  0.00  0.00    -0.063 C 
ATOM     16  C   LIG A   1      -6.215   2.728 131.054  0.00  0.00    -0.005 C 
ATOM     17  C   LIG A   1      -7.306   3.173 130.034  0.00  0.00    +0.016 C 
ATOM     18  C   LIG A   1      -6.470   3.501 132.381  0.00  0.00    +0.012 C 
ATOM     19  C   LIG A   1      -6.328   5.028 132.267  0.00  0.00    +0.019 C 
ATOM     20  C   LIG A   1      -5.038   5.514 131.541  0.00  0.00    +0.074 C 
ATOM     21  C   LIG A   1      -4.118   4.313 131.165  0.00  0.00    +0.035 C 
ATOM     22  C   LIG A   1      -2.708   4.736 130.619  0.00  0.00    -0.003 C 
ATOM     23  C   LIG A   1      -2.696   5.321 129.198  0.00  0.00    +0.008 C 
ATOM     24  C   LIG A   1      -1.990   5.719 131.584  0.00  0.00    -0.011 C 
ATOM     25  C   LIG A   1      -1.440   4.999 132.825  0.00  0.00    +0.008 C 
ATOM     26  C   LIG A   1      -2.897   6.891 131.982  0.00  0.00    +0.004 C 
ATOM     27  C   LIG A   1      -4.257   6.443 132.515  0.00  0.00    +0.019 C 
ATOM     28  C   LIG A   1      -5.152  -3.209 131.532  0.00  0.00    +0.027 C 
ATOM     29  C   LIG A   1      -3.715  -3.585 131.135  0.00  0.00    +0.019 C 
ATOM     30  C   LIG A   1      -5.361  -3.669 132.992  0.00  0.00    +0.019 C 
ENDROOT
BRANCH  20  31
ATOM     31  C   LIG A   1      -5.497   6.308 130.311  0.00  0.00    +0.311 C 
ATOM     32  O   LIG A   1      -5.624   5.907 129.166  0.00  0.00    -0.250 OA
BRANCH  31  33
ATOM     33  O   LIG A   1      -5.867   7.575 130.593  0.00  0.00    -0.480 OA
ATOM     34  H   LIG A   1      -6.500   7.467 131.335  0.00  0.00    +0.295 HD
ENDBRANCH  31  33
ENDBRANCH  20  31
TORSDOF 2
ENDMDL
MODEL 7
REMARK VINA RESULT:      -8.4      2.077      8.969
REMARK  Name = NuBBE_1035
REMARK  9 active torsions:
REMARK  status: ('A' for Active; 'I' for Inactive)
REMARK    1  A    between atoms: C_5  and  C_6
REMARK    2  A    between atoms: C_10  and  C_11
REMARK    3  A    between atoms: C_17  and  C_18
REMARK    4  A    between atoms: C_21  and  C_22
REMARK    5  A    between atoms: C_22  and  O_23
REMARK    6  A    between atoms: C_27  and  C_29
REMARK    7  A    between atoms: C_30  and  C_32
REMARK    8  A    between atoms: C_36  and  C_37
REMARK    9  A    between atoms: C_36  and  C_38
REMARK                            x       y       z     vdW  Elec       q    Type
REMARK                         _______ _______ _______ _____ _____    ______ ____
ROOT
ATOM      1  O   LIG A   1      -8.523  -1.413 126.554  0.00  0.00    -0.297 OA
ATOM      2  C   LIG A   1      -7.853  -2.056 127.365  0.00  0.00    +0.139 C 
ATOM      3  C   LIG A   1      -8.435  -3.292 128.039  0.00  0.00    +0.075 C 
ATOM      4  C   LIG A   1      -8.211  -3.361 129.560  0.00  0.00    +0.015 C 
ATOM      5  C   LIG A   1      -7.075  -2.427 130.085  0.00  0.00    -0.024 C 
ATOM      6  C   LIG A   1      -7.773  -1.050 130.286  0.00  0.00    +0.012 C 
ATOM      7  C   LIG A   1      -5.969  -2.425 128.973  0.00  0.00    +0.008 C 
ATOM      8  C   LIG A   1      -4.603  -2.081 129.556  0.00  0.00    +0.005 C 
ATOM      9  C   LIG A   1      -4.112  -3.192 130.510  0.00  0.00    +0.008 C 
ATOM     10  C   LIG A   1      -5.220  -3.906 131.370  0.00  0.00    -0.019 C 
ATOM     11  C   LIG A   1      -5.622  -5.235 130.661  0.00  0.00    +0.012 C 
ATOM     12  C   LIG A   1      -6.474  -2.946 131.489  0.00  0.00    +0.006 C 
ATOM     13  C   LIG A   1      -6.177  -1.779 132.489  0.00  0.00    +0.031 C 
ATOM     14  C   LIG A   1      -5.012  -1.896 133.421  0.00  0.00    -0.026 C 
ATOM     15  C   LIG A   1      -4.250  -2.991 133.579  0.00  0.00    -0.063 C 
ATOM     16  C   LIG A   1      -4.658  -4.277 132.850  0.00  0.00    -0.005 C 
ATOM     17  C   LIG A   1      -5.763  -4.982 133.693  0.00  0.00    +0.016 C 
ATOM     18  C   LIG A   1      -3.432  -5.235 132.788  0.00  0.00    +0.012 C 
ATOM     19  C   LIG A   1      -2.784  -5.531 134.150  0.00  0.00    +0.019 C 
ATOM     20  C   LIG A   1      -2.506  -4.276 135.031  0.00  0.00    +0.074 C 
ATOM     21  C   LIG A   1      -2.875  -2.965 134.273  0.00  0.00    +0.035 C 
ATOM     22  C   LIG A   1      -2.430  -1.654 135.013  0.00  0.00    -0.003 C 
ATOM     23  C   LIG A   1      -3.250  -1.285 136.259  0.00  0.00    +0.008 C 
ATOM     24  C   LIG A   1      -0.922  -1.688 135.384  0.00  0.00    -0.011 C 
ATOM     25  C   LIG A   1      -0.028  -1.456 134.156  0.00  0.00    +0.008 C 
ATOM     26  C   LIG A   1      -0.541  -2.988 136.106  0.00  0.00    +0.004 C 
ATOM     27  C   LIG A   1      -0.984  -4.242 135.355  0.00  0.00    +0.019 C 
ATOM     28  C   LIG A   1      -6.376  -1.723 127.642  0.00  0.00    +0.027 C 
ATOM     29  C   LIG A   1      -6.153  -0.203 127.627  0.00  0.00    +0.019 C 
ATOM     30  C   LIG A   1      -5.567  -2.317 126.467  0.00  0.00    +0.019 C 
ENDROOT
BRANCH  20  31
ATOM     31  C   LIG A   1      -3.315  -4.455 136.321  0.00  0.00    +0.311 C 
ATOM     32  O   LIG A   1      -4.461  -4.102 136.541  0.00  0.00    -0.250 OA
BRANCH  31  33
ATOM     33  O   LIG A   1      -2.668  -5.162 137.272  0.00  0.00    -0.480 OA
ATOM     34  H   LIG A   1      -2.477  -4.492 137.963  0.00  0.00    +0.295 HD
ENDBRANCH  31  33
ENDBRANCH  20  31
TORSDOF 2
ENDMDL
MODEL 8
REMARK VINA RESULT:      -8.3      4.342      7.741
REMARK  Name = NuBBE_1035
REMARK  9 active torsions:
REMARK  status: ('A' for Active; 'I' for Inactive)
REMARK    1  A    between atoms: C_5  and  C_6
REMARK    2  A    between atoms: C_10  and  C_11
REMARK    3  A    between atoms: C_17  and  C_18
REMARK    4  A    between atoms: C_21  and  C_22
REMARK    5  A    between atoms: C_22  and  O_23
REMARK    6  A    between atoms: C_27  and  C_29
REMARK    7  A    between atoms: C_30  and  C_32
REMARK    8  A    between atoms: C_36  and  C_37
REMARK    9  A    between atoms: C_36  and  C_38
REMARK                            x       y       z     vdW  Elec       q    Type
REMARK                         _______ _______ _______ _____ _____    ______ ____
ROOT
ATOM      1  O   LIG A   1      -8.222   7.375 130.467  0.00  0.00    -0.297 OA
ATOM      2  C   LIG A   1      -7.948   6.318 131.039  0.00  0.00    +0.139 C 
ATOM      3  C   LIG A   1      -7.040   6.315 132.263  0.00  0.00    +0.075 C 
ATOM      4  C   LIG A   1      -5.940   5.240 132.243  0.00  0.00    +0.015 C 
ATOM      5  C   LIG A   1      -6.198   4.073 131.237  0.00  0.00    -0.024 C 
ATOM      6  C   LIG A   1      -5.649   4.608 129.882  0.00  0.00    +0.012 C 
ATOM      7  C   LIG A   1      -7.747   3.831 131.246  0.00  0.00    +0.008 C 
ATOM      8  C   LIG A   1      -8.083   2.406 130.817  0.00  0.00    +0.005 C 
ATOM      9  C   LIG A   1      -7.580   1.380 131.856  0.00  0.00    +0.008 C 
ATOM     10  C   LIG A   1      -6.221   1.728 132.569  0.00  0.00    -0.019 C 
ATOM     11  C   LIG A   1      -6.536   2.382 133.949  0.00  0.00    +0.012 C 
ATOM     12  C   LIG A   1      -5.406   2.733 131.658  0.00  0.00    +0.006 C 
ATOM     13  C   LIG A   1      -4.790   1.983 130.430  0.00  0.00    +0.031 C 
ATOM     14  C   LIG A   1      -4.718   0.488 130.450  0.00  0.00    -0.026 C 
ATOM     15  C   LIG A   1      -5.019  -0.291 131.503  0.00  0.00    -0.063 C 
ATOM     16  C   LIG A   1      -5.347   0.383 132.840  0.00  0.00    -0.005 C 
ATOM     17  C   LIG A   1      -4.005   0.739 133.547  0.00  0.00    +0.016 C 
ATOM     18  C   LIG A   1      -6.101  -0.632 133.749  0.00  0.00    +0.012 C 
ATOM     19  C   LIG A   1      -5.374  -1.972 133.947  0.00  0.00    +0.019 C 
ATOM     20  C   LIG A   1      -4.846  -2.632 132.638  0.00  0.00    +0.074 C 
ATOM     21  C   LIG A   1      -5.265  -1.806 131.384  0.00  0.00    +0.035 C 
ATOM     22  C   LIG A   1      -4.950  -2.516 130.019  0.00  0.00    -0.003 C 
ATOM     23  C   LIG A   1      -3.466  -2.558 129.621  0.00  0.00    +0.008 C 
ATOM     24  C   LIG A   1      -5.534  -3.954 129.971  0.00  0.00    -0.011 C 
ATOM     25  C   LIG A   1      -7.057  -3.944 129.765  0.00  0.00    +0.008 C 
ATOM     26  C   LIG A   1      -5.151  -4.767 131.215  0.00  0.00    +0.004 C 
ATOM     27  C   LIG A   1      -5.478  -4.051 132.524  0.00  0.00    +0.019 C 
ATOM     28  C   LIG A   1      -8.597   4.983 130.632  0.00  0.00    +0.027 C 
ATOM     29  C   LIG A   1      -8.766   4.909 129.106  0.00  0.00    +0.019 C 
ATOM     30  C   LIG A   1     -10.013   4.978 131.251  0.00  0.00    +0.019 C 
ENDROOT
BRANCH  20  31
ATOM     31  C   LIG A   1      -3.323  -2.745 132.784  0.00  0.00    +0.311 C 
ATOM     32  O   LIG A   1      -2.486  -1.881 132.582  0.00  0.00    -0.250 OA
BRANCH  31  33
ATOM     33  O   LIG A   1      -2.913  -3.935 133.271  0.00  0.00    -0.480 OA
ATOM     34  H   LIG A   1      -2.573  -4.400 132.477  0.00  0.00    +0.295 HD
ENDBRANCH  31  33
ENDBRANCH  20  31
TORSDOF 2
ENDMDL
MODEL 9
REMARK VINA RESULT:      -8.3      1.457      8.062
REMARK  Name = NuBBE_1035
REMARK  9 active torsions:
REMARK  status: ('A' for Active; 'I' for Inactive)
REMARK    1  A    between atoms: C_5  and  C_6
REMARK    2  A    between atoms: C_10  and  C_11
REMARK    3  A    between atoms: C_17  and  C_18
REMARK    4  A    between atoms: C_21  and  C_22
REMARK    5  A    between atoms: C_22  and  O_23
REMARK    6  A    between atoms: C_27  and  C_29
REMARK    7  A    between atoms: C_30  and  C_32
REMARK    8  A    between atoms: C_36  and  C_37
REMARK    9  A    between atoms: C_36  and  C_38
REMARK                            x       y       z     vdW  Elec       q    Type
REMARK                         _______ _______ _______ _____ _____    ______ ____
ROOT
ATOM      1  O   LIG A   1      -9.608  -1.353 122.889  0.00  0.00    -0.297 OA
ATOM      2  C   LIG A   1      -8.754  -1.439 123.775  0.00  0.00    +0.139 C 
ATOM      3  C   LIG A   1      -7.762  -2.595 123.781  0.00  0.00    +0.075 C 
ATOM      4  C   LIG A   1      -7.576  -3.275 125.149  0.00  0.00    +0.015 C 
ATOM      5  C   LIG A   1      -8.063  -2.421 126.363  0.00  0.00    -0.024 C 
ATOM      6  C   LIG A   1      -9.587  -2.725 126.458  0.00  0.00    +0.012 C 
ATOM      7  C   LIG A   1      -7.731  -0.931 126.003  0.00  0.00    +0.008 C 
ATOM      8  C   LIG A   1      -7.582  -0.082 127.261  0.00  0.00    +0.005 C 
ATOM      9  C   LIG A   1      -6.343  -0.510 128.077  0.00  0.00    +0.008 C 
ATOM     10  C   LIG A   1      -6.013  -2.049 128.076  0.00  0.00    -0.019 C 
ATOM     11  C   LIG A   1      -4.915  -2.323 127.004  0.00  0.00    +0.012 C 
ATOM     12  C   LIG A   1      -7.331  -2.856 127.732  0.00  0.00    +0.006 C 
ATOM     13  C   LIG A   1      -8.301  -2.868 128.960  0.00  0.00    +0.031 C 
ATOM     14  C   LIG A   1      -7.776  -2.491 130.310  0.00  0.00    -0.026 C 
ATOM     15  C   LIG A   1      -6.485  -2.261 130.605  0.00  0.00    -0.063 C 
ATOM     16  C   LIG A   1      -5.431  -2.518 129.521  0.00  0.00    -0.005 C 
ATOM     17  C   LIG A   1      -5.108  -4.042 129.510  0.00  0.00    +0.016 C 
ATOM     18  C   LIG A   1      -4.122  -1.763 129.898  0.00  0.00    +0.012 C 
ATOM     19  C   LIG A   1      -3.586  -2.080 131.304  0.00  0.00    +0.019 C 
ATOM     20  C   LIG A   1      -4.649  -2.018 132.441  0.00  0.00    +0.074 C 
ATOM     21  C   LIG A   1      -6.032  -1.549 131.893  0.00  0.00    +0.035 C 
ATOM     22  C   LIG A   1      -7.097  -1.262 133.010  0.00  0.00    -0.003 C 
ATOM     23  C   LIG A   1      -7.679  -2.503 133.704  0.00  0.00    +0.008 C 
ATOM     24  C   LIG A   1      -6.552  -0.282 134.085  0.00  0.00    -0.011 C 
ATOM     25  C   LIG A   1      -6.511   1.164 133.568  0.00  0.00    +0.008 C 
ATOM     26  C   LIG A   1      -5.179  -0.719 134.611  0.00  0.00    +0.004 C 
ATOM     27  C   LIG A   1      -4.166  -0.983 133.498  0.00  0.00    +0.019 C 
ATOM     28  C   LIG A   1      -8.568  -0.335 124.831  0.00  0.00    +0.027 C 
ATOM     29  C   LIG A   1      -9.928   0.247 125.249  0.00  0.00    +0.019 C 
ATOM     30  C   LIG A   1      -7.775   0.799 124.144  0.00  0.00    +0.019 C 
ENDROOT
BRANCH  20  31
ATOM     31  C   LIG A   1      -4.711  -3.418 133.065  0.00  0.00    +0.311 C 
ATOM     32  O   LIG A   1      -5.422  -4.353 132.737  0.00  0.00    -0.250 OA
BRANCH  31  33
ATOM     33  O   LIG A   1      -3.796  -3.617 134.037  0.00  0.00    -0.480 OA
ATOM     34  H   LIG A   1      -2.951  -3.688 133.543  0.00  0.00    +0.295 HD
ENDBRANCH  31  33
ENDBRANCH  20  31
TORSDOF 2
ENDMDL
