MODEL 1
REMARK VINA RESULT:      -7.5      0.000      0.000
REMARK  Name = NuBBE_1273
REMARK  5 active torsions:
REMARK  status: ('A' for Active; 'I' for Inactive)
REMARK    1  A    between atoms: C_7  and  C_11
REMARK    2  A    between atoms: C_8  and  O_9
REMARK    3  A    between atoms: C_11  and  C_12
REMARK    4  A    between atoms: C_13  and  C_14
REMARK    5  A    between atoms: C_13  and  C_15
REMARK                            x       y       z     vdW  Elec       q    Type
REMARK                         _______ _______ _______ _____ _____    ______ ____
ROOT
ATOM      1  O   LIG A   1     -13.887   8.097 128.039  0.00  0.00    -0.245 OA
ATOM      2  C   LIG A   1     -12.797   7.888 128.558  0.00  0.00    +0.337 A 
ATOM      3  C   LIG A   1     -11.560   8.387 127.931  0.00  0.00    +0.092 A 
ATOM      4  C   LIG A   1     -10.350   8.174 128.460  0.00  0.00    +0.018 A 
ATOM      5  C   LIG A   1     -10.236   7.427 129.702  0.00  0.00    +0.018 A 
ATOM      6  C   LIG A   1      -8.999   7.177 130.304  0.00  0.00    +0.019 A 
ATOM      7  C   LIG A   1      -8.916   6.460 131.515  0.00  0.00    -0.001 A 
ATOM      8  C   LIG A   1     -10.104   5.983 132.089  0.00  0.00    +0.124 A 
ATOM      9  C   LIG A   1     -11.343   6.237 131.504  0.00  0.00    +0.092 A 
ATOM     10  C   LIG A   1     -11.392   6.955 130.315  0.00  0.00    +0.142 A 
ATOM     11  O   LIG A   1     -12.660   7.183 129.745  0.00  0.00    -0.422 OA
ENDROOT
BRANCH   8  12
ATOM     12  O   LIG A   1     -10.124   5.246 133.239  0.00  0.00    -0.506 OA
ATOM     13  H   LIG A   1      -9.634   5.730 133.925  0.00  0.00    +0.292 HD
ENDBRANCH   8  12
BRANCH   7  14
ATOM     14  C   LIG A   1      -7.554   6.221 132.128  0.00  0.00    +0.066 C 
BRANCH  14  15
ATOM     15  C   LIG A   1      -6.453   6.775 131.265  0.00  0.00    -0.023 C 
ATOM     16  C   LIG A   1      -5.129   6.828 131.511  0.00  0.00    -0.079 C 
ATOM     17  C   LIG A   1      -4.447   6.348 132.762  0.00  0.00    +0.038 C 
ATOM     18  C   LIG A   1      -4.189   7.404 130.482  0.00  0.00    +0.038 C 
ENDBRANCH  14  15
ENDBRANCH   7  14
TORSDOF 3
ENDMDL
MODEL 2
REMARK VINA RESULT:      -7.0      9.532     10.418
REMARK  Name = NuBBE_1273
REMARK  5 active torsions:
REMARK  status: ('A' for Active; 'I' for Inactive)
REMARK    1  A    between atoms: C_7  and  C_11
REMARK    2  A    between atoms: C_8  and  O_9
REMARK    3  A    between atoms: C_11  and  C_12
REMARK    4  A    between atoms: C_13  and  C_14
REMARK    5  A    between atoms: C_13  and  C_15
REMARK                            x       y       z     vdW  Elec       q    Type
REMARK                         _______ _______ _______ _____ _____    ______ ____
ROOT
ATOM      1  O   LIG A   1     -10.005  -3.271 125.872  0.00  0.00    -0.245 OA
ATOM      2  C   LIG A   1      -9.364  -2.374 125.335  0.00  0.00    +0.337 A 
ATOM      3  C   LIG A   1      -8.211  -2.688 124.472  0.00  0.00    +0.092 A 
ATOM      4  C   LIG A   1      -7.482  -1.740 123.875  0.00  0.00    +0.018 A 
ATOM      5  C   LIG A   1      -7.830  -0.343 124.071  0.00  0.00    +0.018 A 
ATOM      6  C   LIG A   1      -7.107   0.692 123.469  0.00  0.00    +0.019 A 
ATOM      7  C   LIG A   1      -7.472   2.039 123.666  0.00  0.00    -0.001 A 
ATOM      8  C   LIG A   1      -8.565   2.318 124.500  0.00  0.00    +0.124 A 
ATOM      9  C   LIG A   1      -9.300   1.295 125.095  0.00  0.00    +0.092 A 
ATOM     10  C   LIG A   1      -8.920  -0.025 124.874  0.00  0.00    +0.142 A 
ATOM     11  O   LIG A   1      -9.679  -1.032 125.501  0.00  0.00    -0.422 OA
ENDROOT
BRANCH   8  12
ATOM     12  O   LIG A   1      -8.972   3.591 124.783  0.00  0.00    -0.506 OA
ATOM     13  H   LIG A   1      -9.940   3.631 124.705  0.00  0.00    +0.292 HD
ENDBRANCH   8  12
BRANCH   7  14
ATOM     14  C   LIG A   1      -6.661   3.121 122.987  0.00  0.00    +0.066 C 
BRANCH  14  15
ATOM     15  C   LIG A   1      -7.206   3.448 121.623  0.00  0.00    -0.023 C 
ATOM     16  C   LIG A   1      -6.595   4.063 120.592  0.00  0.00    -0.079 C 
ATOM     17  C   LIG A   1      -5.188   4.594 120.593  0.00  0.00    +0.038 C 
ATOM     18  C   LIG A   1      -7.326   4.264 119.288  0.00  0.00    +0.038 C 
ENDBRANCH  14  15
ENDBRANCH   7  14
TORSDOF 3
ENDMDL
MODEL 3
REMARK VINA RESULT:      -6.8      8.149      8.796
REMARK  Name = NuBBE_1273
REMARK  5 active torsions:
REMARK  status: ('A' for Active; 'I' for Inactive)
REMARK    1  A    between atoms: C_7  and  C_11
REMARK    2  A    between atoms: C_8  and  O_9
REMARK    3  A    between atoms: C_11  and  C_12
REMARK    4  A    between atoms: C_13  and  C_14
REMARK    5  A    between atoms: C_13  and  C_15
REMARK                            x       y       z     vdW  Elec       q    Type
REMARK                         _______ _______ _______ _____ _____    ______ ____
ROOT
ATOM      1  O   LIG A   1      -7.525   4.374 118.716  0.00  0.00    -0.245 OA
ATOM      2  C   LIG A   1      -7.110   4.209 119.858  0.00  0.00    +0.337 A 
ATOM      3  C   LIG A   1      -5.706   4.505 120.195  0.00  0.00    +0.092 A 
ATOM      4  C   LIG A   1      -5.211   4.331 121.425  0.00  0.00    +0.018 A 
ATOM      5  C   LIG A   1      -6.079   3.837 122.480  0.00  0.00    +0.018 A 
ATOM      6  C   LIG A   1      -5.619   3.639 123.786  0.00  0.00    +0.019 A 
ATOM      7  C   LIG A   1      -6.484   3.170 124.795  0.00  0.00    -0.001 A 
ATOM      8  C   LIG A   1      -7.814   2.882 124.450  0.00  0.00    +0.124 A 
ATOM      9  C   LIG A   1      -8.286   3.087 123.156  0.00  0.00    +0.092 A 
ATOM     10  C   LIG A   1      -7.410   3.560 122.186  0.00  0.00    +0.142 A 
ATOM     11  O   LIG A   1      -7.919   3.743 120.885  0.00  0.00    -0.422 OA
ENDROOT
BRANCH   8  12
ATOM     12  O   LIG A   1      -8.718   2.387 125.347  0.00  0.00    -0.506 OA
ATOM     13  H   LIG A   1      -8.621   1.420 125.384  0.00  0.00    +0.292 HD
ENDBRANCH   8  12
BRANCH   7  14
ATOM     14  C   LIG A   1      -5.939   2.979 126.193  0.00  0.00    +0.066 C 
BRANCH  14  15
ATOM     15  C   LIG A   1      -4.451   2.754 126.180  0.00  0.00    -0.023 C 
ATOM     16  C   LIG A   1      -3.473   3.523 126.698  0.00  0.00    -0.079 C 
ATOM     17  C   LIG A   1      -3.669   4.835 127.406  0.00  0.00    +0.038 C 
ATOM     18  C   LIG A   1      -2.033   3.088 126.599  0.00  0.00    +0.038 C 
ENDBRANCH  14  15
ENDBRANCH   7  14
TORSDOF 3
ENDMDL
MODEL 4
REMARK VINA RESULT:      -6.8      9.783     10.348
REMARK  Name = NuBBE_1273
REMARK  5 active torsions:
REMARK  status: ('A' for Active; 'I' for Inactive)
REMARK    1  A    between atoms: C_7  and  C_11
REMARK    2  A    between atoms: C_8  and  O_9
REMARK    3  A    between atoms: C_11  and  C_12
REMARK    4  A    between atoms: C_13  and  C_14
REMARK    5  A    between atoms: C_13  and  C_15
REMARK                            x       y       z     vdW  Elec       q    Type
REMARK                         _______ _______ _______ _____ _____    ______ ____
ROOT
ATOM      1  O   LIG A   1      -4.450   6.250 120.569  0.00  0.00    -0.245 OA
ATOM      2  C   LIG A   1      -4.981   5.272 121.083  0.00  0.00    +0.337 A 
ATOM      3  C   LIG A   1      -5.634   4.248 120.248  0.00  0.00    +0.092 A 
ATOM      4  C   LIG A   1      -6.231   3.171 120.769  0.00  0.00    +0.018 A 
ATOM      5  C   LIG A   1      -6.240   2.987 122.211  0.00  0.00    +0.018 A 
ATOM      6  C   LIG A   1      -6.845   1.879 122.812  0.00  0.00    +0.019 A 
ATOM      7  C   LIG A   1      -6.831   1.719 124.213  0.00  0.00    -0.001 A 
ATOM      8  C   LIG A   1      -6.215   2.711 124.990  0.00  0.00    +0.124 A 
ATOM      9  C   LIG A   1      -5.598   3.813 124.401  0.00  0.00    +0.092 A 
ATOM     10  C   LIG A   1      -5.622   3.938 123.016  0.00  0.00    +0.142 A 
ATOM     11  O   LIG A   1      -5.000   5.071 122.456  0.00  0.00    -0.422 OA
ENDROOT
BRANCH   8  12
ATOM     12  O   LIG A   1      -6.182   2.665 126.355  0.00  0.00    -0.506 OA
ATOM     13  H   LIG A   1      -6.292   3.568 126.698  0.00  0.00    +0.292 HD
ENDBRANCH   8  12
BRANCH   7  14
ATOM     14  C   LIG A   1      -7.493   0.499 124.813  0.00  0.00    +0.066 C 
BRANCH  14  15
ATOM     15  C   LIG A   1      -6.541  -0.664 124.898  0.00  0.00    -0.023 C 
ATOM     16  C   LIG A   1      -6.309  -1.635 123.994  0.00  0.00    -0.079 C 
ATOM     17  C   LIG A   1      -6.995  -1.783 122.664  0.00  0.00    +0.038 C 
ATOM     18  C   LIG A   1      -5.276  -2.698 124.272  0.00  0.00    +0.038 C 
ENDBRANCH  14  15
ENDBRANCH   7  14
TORSDOF 3
ENDMDL
MODEL 5
REMARK VINA RESULT:      -6.7      9.573     10.325
REMARK  Name = NuBBE_1273
REMARK  5 active torsions:
REMARK  status: ('A' for Active; 'I' for Inactive)
REMARK    1  A    between atoms: C_7  and  C_11
REMARK    2  A    between atoms: C_8  and  O_9
REMARK    3  A    between atoms: C_11  and  C_12
REMARK    4  A    between atoms: C_13  and  C_14
REMARK    5  A    between atoms: C_13  and  C_15
REMARK                            x       y       z     vdW  Elec       q    Type
REMARK                         _______ _______ _______ _____ _____    ______ ____
ROOT
ATOM      1  O   LIG A   1      -6.514   5.348 118.389  0.00  0.00    -0.245 OA
ATOM      2  C   LIG A   1      -6.497   4.784 119.478  0.00  0.00    +0.337 A 
ATOM      3  C   LIG A   1      -5.238   4.644 120.230  0.00  0.00    +0.092 A 
ATOM      4  C   LIG A   1      -5.174   4.029 121.416  0.00  0.00    +0.018 A 
ATOM      5  C   LIG A   1      -6.385   3.477 121.999  0.00  0.00    +0.018 A 
ATOM      6  C   LIG A   1      -6.381   2.828 123.237  0.00  0.00    +0.019 A 
ATOM      7  C   LIG A   1      -7.572   2.310 123.787  0.00  0.00    -0.001 A 
ATOM      8  C   LIG A   1      -8.758   2.442 123.049  0.00  0.00    +0.124 A 
ATOM      9  C   LIG A   1      -8.776   3.099 121.820  0.00  0.00    +0.092 A 
ATOM     10  C   LIG A   1      -7.586   3.606 121.310  0.00  0.00    +0.142 A 
ATOM     11  O   LIG A   1      -7.640   4.252 120.059  0.00  0.00    -0.422 OA
ENDROOT
BRANCH   8  12
ATOM     12  O   LIG A   1      -9.954   1.941 123.478  0.00  0.00    -0.506 OA
ATOM     13  H   LIG A   1     -10.109   1.088 123.038  0.00  0.00    +0.292 HD
ENDBRANCH   8  12
BRANCH   7  14
ATOM     14  C   LIG A   1      -7.515   1.621 125.132  0.00  0.00    +0.066 C 
BRANCH  14  15
ATOM     15  C   LIG A   1      -6.547   0.469 125.124  0.00  0.00    -0.023 C 
ATOM     16  C   LIG A   1      -6.632  -0.703 124.465  0.00  0.00    -0.079 C 
ATOM     17  C   LIG A   1      -7.768  -1.135 123.581  0.00  0.00    +0.038 C 
ATOM     18  C   LIG A   1      -5.520  -1.717 124.575  0.00  0.00    +0.038 C 
ENDBRANCH  14  15
ENDBRANCH   7  14
TORSDOF 3
ENDMDL
MODEL 6
REMARK VINA RESULT:      -6.7      2.623      3.819
REMARK  Name = NuBBE_1273
REMARK  5 active torsions:
REMARK  status: ('A' for Active; 'I' for Inactive)
REMARK    1  A    between atoms: C_7  and  C_11
REMARK    2  A    between atoms: C_8  and  O_9
REMARK    3  A    between atoms: C_11  and  C_12
REMARK    4  A    between atoms: C_13  and  C_14
REMARK    5  A    between atoms: C_13  and  C_15
REMARK                            x       y       z     vdW  Elec       q    Type
REMARK                         _______ _______ _______ _____ _____    ______ ____
ROOT
ATOM      1  O   LIG A   1     -10.785   8.659 127.903  0.00  0.00    -0.245 OA
ATOM      2  C   LIG A   1     -10.580   8.023 128.931  0.00  0.00    +0.337 A 
ATOM      3  C   LIG A   1     -11.703   7.473 129.710  0.00  0.00    +0.092 A 
ATOM      4  C   LIG A   1     -11.523   6.781 130.839  0.00  0.00    +0.018 A 
ATOM      5  C   LIG A   1     -10.174   6.549 131.327  0.00  0.00    +0.018 A 
ATOM      6  C   LIG A   1      -9.924   5.829 132.499  0.00  0.00    +0.019 A 
ATOM      7  C   LIG A   1      -8.605   5.609 132.945  0.00  0.00    -0.001 A 
ATOM      8  C   LIG A   1      -7.550   6.151 132.196  0.00  0.00    +0.124 A 
ATOM      9  C   LIG A   1      -7.786   6.859 131.020  0.00  0.00    +0.092 A 
ATOM     10  C   LIG A   1      -9.099   7.052 130.602  0.00  0.00    +0.142 A 
ATOM     11  O   LIG A   1      -9.301   7.783 129.416  0.00  0.00    -0.422 OA
ENDROOT
BRANCH   8  12
ATOM     12  O   LIG A   1      -6.241   6.025 132.566  0.00  0.00    -0.506 OA
ATOM     13  H   LIG A   1      -6.072   6.620 133.316  0.00  0.00    +0.292 HD
ENDBRANCH   8  12
BRANCH   7  14
ATOM     14  C   LIG A   1      -8.388   4.818 134.216  0.00  0.00    +0.066 C 
BRANCH  14  15
ATOM     15  C   LIG A   1      -7.681   3.517 133.945  0.00  0.00    -0.023 C 
ATOM     16  C   LIG A   1      -8.118   2.443 133.259  0.00  0.00    -0.079 C 
ATOM     17  C   LIG A   1      -9.468   2.302 132.612  0.00  0.00    +0.038 C 
ATOM     18  C   LIG A   1      -7.224   1.242 133.080  0.00  0.00    +0.038 C 
ENDBRANCH  14  15
ENDBRANCH   7  14
TORSDOF 3
ENDMDL
MODEL 7
REMARK VINA RESULT:      -6.6      9.878     10.213
REMARK  Name = NuBBE_1273
REMARK  5 active torsions:
REMARK  status: ('A' for Active; 'I' for Inactive)
REMARK    1  A    between atoms: C_7  and  C_11
REMARK    2  A    between atoms: C_8  and  O_9
REMARK    3  A    between atoms: C_11  and  C_12
REMARK    4  A    between atoms: C_13  and  C_14
REMARK    5  A    between atoms: C_13  and  C_15
REMARK                            x       y       z     vdW  Elec       q    Type
REMARK                         _______ _______ _______ _____ _____    ______ ____
ROOT
ATOM      1  O   LIG A   1      -9.108   4.216 120.367  0.00  0.00    -0.245 OA
ATOM      2  C   LIG A   1      -8.566   3.495 121.198  0.00  0.00    +0.337 A 
ATOM      3  C   LIG A   1      -7.117   3.592 121.444  0.00  0.00    +0.092 A 
ATOM      4  C   LIG A   1      -6.486   2.819 122.335  0.00  0.00    +0.018 A 
ATOM      5  C   LIG A   1      -7.247   1.846 123.101  0.00  0.00    +0.018 A 
ATOM      6  C   LIG A   1      -6.644   1.014 124.049  0.00  0.00    +0.019 A 
ATOM      7  C   LIG A   1      -7.406   0.086 124.786  0.00  0.00    -0.001 A 
ATOM      8  C   LIG A   1      -8.783   0.000 124.528  0.00  0.00    +0.124 A 
ATOM      9  C   LIG A   1      -9.397   0.833 123.595  0.00  0.00    +0.092 A 
ATOM     10  C   LIG A   1      -8.618   1.745 122.890  0.00  0.00    +0.142 A 
ATOM     11  O   LIG A   1      -9.270   2.561 121.946  0.00  0.00    -0.422 OA
ENDROOT
BRANCH   8  12
ATOM     12  O   LIG A   1      -9.598  -0.893 125.162  0.00  0.00    -0.506 OA
ATOM     13  H   LIG A   1      -9.067  -1.400 125.800  0.00  0.00    +0.292 HD
ENDBRANCH   8  12
BRANCH   7  14
ATOM     14  C   LIG A   1      -6.706  -0.787 125.805  0.00  0.00    +0.066 C 
BRANCH  14  15
ATOM     15  C   LIG A   1      -5.736  -1.733 125.150  0.00  0.00    -0.023 C 
ATOM     16  C   LIG A   1      -5.983  -2.900 124.524  0.00  0.00    -0.079 C 
ATOM     17  C   LIG A   1      -7.332  -3.542 124.361  0.00  0.00    +0.038 C 
ATOM     18  C   LIG A   1      -4.852  -3.682 123.905  0.00  0.00    +0.038 C 
ENDBRANCH  14  15
ENDBRANCH   7  14
TORSDOF 3
ENDMDL
MODEL 8
REMARK VINA RESULT:      -6.4      9.145      9.677
REMARK  Name = NuBBE_1273
REMARK  5 active torsions:
REMARK  status: ('A' for Active; 'I' for Inactive)
REMARK    1  A    between atoms: C_7  and  C_11
REMARK    2  A    between atoms: C_8  and  O_9
REMARK    3  A    between atoms: C_11  and  C_12
REMARK    4  A    between atoms: C_13  and  C_14
REMARK    5  A    between atoms: C_13  and  C_15
REMARK                            x       y       z     vdW  Elec       q    Type
REMARK                         _______ _______ _______ _____ _____    ______ ____
ROOT
ATOM      1  O   LIG A   1      -8.305   5.531 125.818  0.00  0.00    -0.245 OA
ATOM      2  C   LIG A   1      -8.302   4.305 125.777  0.00  0.00    +0.337 A 
ATOM      3  C   LIG A   1      -7.656   3.521 126.845  0.00  0.00    +0.092 A 
ATOM      4  C   LIG A   1      -7.623   2.185 126.835  0.00  0.00    +0.018 A 
ATOM      5  C   LIG A   1      -8.247   1.464 125.739  0.00  0.00    +0.018 A 
ATOM      6  C   LIG A   1      -8.248   0.067 125.677  0.00  0.00    +0.019 A 
ATOM      7  C   LIG A   1      -8.871  -0.609 124.608  0.00  0.00    -0.001 A 
ATOM      8  C   LIG A   1      -9.469   0.156 123.595  0.00  0.00    +0.124 A 
ATOM      9  C   LIG A   1      -9.485   1.547 123.653  0.00  0.00    +0.092 A 
ATOM     10  C   LIG A   1      -8.870   2.184 124.725  0.00  0.00    +0.142 A 
ATOM     11  O   LIG A   1      -8.895   3.592 124.745  0.00  0.00    -0.422 OA
ENDROOT
BRANCH   8  12
ATOM     12  O   LIG A   1     -10.064  -0.405 122.500  0.00  0.00    -0.506 OA
ATOM     13  H   LIG A   1     -10.342   0.306 121.900  0.00  0.00    +0.292 HD
ENDBRANCH   8  12
BRANCH   7  14
ATOM     14  C   LIG A   1      -8.849  -2.122 124.590  0.00  0.00    +0.066 C 
BRANCH  14  15
ATOM     15  C   LIG A   1      -7.446  -2.657 124.685  0.00  0.00    -0.023 C 
ATOM     16  C   LIG A   1      -6.445  -2.574 123.787  0.00  0.00    -0.079 C 
ATOM     17  C   LIG A   1      -6.530  -1.923 122.434  0.00  0.00    +0.038 C 
ATOM     18  C   LIG A   1      -5.092  -3.160 124.102  0.00  0.00    +0.038 C 
ENDBRANCH  14  15
ENDBRANCH   7  14
TORSDOF 3
ENDMDL
MODEL 9
REMARK VINA RESULT:      -6.3      8.547      9.039
REMARK  Name = NuBBE_1273
REMARK  5 active torsions:
REMARK  status: ('A' for Active; 'I' for Inactive)
REMARK    1  A    between atoms: C_7  and  C_11
REMARK    2  A    between atoms: C_8  and  O_9
REMARK    3  A    between atoms: C_11  and  C_12
REMARK    4  A    between atoms: C_13  and  C_14
REMARK    5  A    between atoms: C_13  and  C_15
REMARK                            x       y       z     vdW  Elec       q    Type
REMARK                         _______ _______ _______ _____ _____    ______ ____
ROOT
ATOM      1  O   LIG A   1      -9.773  -2.812 123.234  0.00  0.00    -0.245 OA
ATOM      2  C   LIG A   1      -9.053  -1.857 123.504  0.00  0.00    +0.337 A 
ATOM      3  C   LIG A   1      -7.586  -1.985 123.453  0.00  0.00    +0.092 A 
ATOM      4  C   LIG A   1      -6.766  -0.971 123.747  0.00  0.00    +0.018 A 
ATOM      5  C   LIG A   1      -7.328   0.313 124.130  0.00  0.00    +0.018 A 
ATOM      6  C   LIG A   1      -6.521   1.411 124.444  0.00  0.00    +0.019 A 
ATOM      7  C   LIG A   1      -7.091   2.649 124.802  0.00  0.00    -0.001 A 
ATOM      8  C   LIG A   1      -8.490   2.747 124.857  0.00  0.00    +0.124 A 
ATOM      9  C   LIG A   1      -9.304   1.664 124.534  0.00  0.00    +0.092 A 
ATOM     10  C   LIG A   1      -8.711   0.458 124.176  0.00  0.00    +0.142 A 
ATOM     11  O   LIG A   1      -9.565  -0.619 123.868  0.00  0.00    -0.422 OA
ENDROOT
BRANCH   8  12
ATOM     12  O   LIG A   1      -9.136   3.892 125.229  0.00  0.00    -0.506 OA
ATOM     13  H   LIG A   1      -9.136   4.507 124.477  0.00  0.00    +0.292 HD
ENDBRANCH   8  12
BRANCH   7  14
ATOM     14  C   LIG A   1      -6.174   3.807 125.127  0.00  0.00    +0.066 C 
BRANCH  14  15
ATOM     15  C   LIG A   1      -4.794   3.334 125.497  0.00  0.00    -0.023 C 
ATOM     16  C   LIG A   1      -3.935   3.850 126.397  0.00  0.00    -0.079 C 
ATOM     17  C   LIG A   1      -4.173   5.071 127.241  0.00  0.00    +0.038 C 
ATOM     18  C   LIG A   1      -2.599   3.191 126.634  0.00  0.00    +0.038 C 
ENDBRANCH  14  15
ENDBRANCH   7  14
TORSDOF 3
ENDMDL
