MODEL 1
REMARK VINA RESULT:     -10.0      0.000      0.000
REMARK  Name = NuBBE_1208
REMARK  11 active torsions:
REMARK  status: ('A' for Active; 'I' for Inactive)
REMARK    1  A    between atoms: C_1  and  C_2
REMARK    2  A    between atoms: C_2  and  C_3
REMARK    3  A    between atoms: C_9  and  O_10
REMARK    4  A    between atoms: C_11  and  C_12
REMARK    5  A    between atoms: C_12  and  C_14
REMARK    6  A    between atoms: C_14  and  C_15
REMARK    7  A    between atoms: C_15  and  C_16
REMARK    8  A    between atoms: C_21  and  C_22
REMARK    9  A    between atoms: C_26  and  C_27
REMARK   10  A    between atoms: C_26  and  C_28
REMARK   11  A    between atoms: C_33  and  O_34
REMARK                            x       y       z     vdW  Elec       q    Type
REMARK                         _______ _______ _______ _____ _____    ______ ____
ROOT
ATOM      1  C   LIG A   1      -7.049   3.036 130.369  0.00  0.00    +0.084 C 
ENDROOT
BRANCH   1   2
ATOM      2  C   LIG A   1      -7.752   4.065 131.264  0.00  0.00    +0.171 C 
ATOM      3  O   LIG A   1      -7.307   4.416 132.352  0.00  0.00    -0.292 OA
BRANCH   2  13
ATOM      4  C   LIG A   1     -13.705   7.987 127.884  0.00  0.00    +0.055 C 
ATOM      5  C   LIG A   1     -12.536   7.832 128.871  0.00  0.00    +0.105 C 
ATOM      6  C   LIG A   1     -12.864   8.630 130.143  0.00  0.00    +0.055 C 
ATOM      7  C   LIG A   1     -11.242   8.298 128.191  0.00  0.00    +0.052 C 
ATOM      8  C   LIG A   1     -10.025   8.019 129.066  0.00  0.00    +0.046 C 
ATOM      9  C   LIG A   1     -10.090   6.638 129.661  0.00  0.00    +0.037 A 
ATOM     10  C   LIG A   1     -11.307   5.953 129.702  0.00  0.00    +0.131 A 
ATOM     11  C   LIG A   1     -11.389   4.690 130.285  0.00  0.00    +0.092 A 
ATOM     12  C   LIG A   1     -10.252   4.085 130.827  0.00  0.00    +0.134 A 
ATOM     13  C   LIG A   1      -9.011   4.724 130.777  0.00  0.00    +0.101 A 
ATOM     14  C   LIG A   1      -8.956   6.028 130.233  0.00  0.00    +0.138 A 
ATOM     15  O   LIG A   1     -12.485   6.433 129.199  0.00  0.00    -0.486 OA
BRANCH  12  16
ATOM     16  O   LIG A   1     -10.391   2.873 131.444  0.00  0.00    -0.506 OA
ATOM     17  H   LIG A   1     -11.208   2.871 131.972  0.00  0.00    +0.292 HD
ENDBRANCH  12  16
BRANCH  14  18
ATOM     18  O   LIG A   1      -7.796   6.767 130.244  0.00  0.00    -0.505 OA
ATOM     19  H   LIG A   1      -7.179   6.351 130.886  0.00  0.00    +0.292 HD
ENDBRANCH  14  18
ENDBRANCH   2  13
ENDBRANCH   1   2
BRANCH   1  20
ATOM     20  C   LIG A   1      -6.570   3.624 129.034  0.00  0.00    +0.043 C 
BRANCH  20  21
ATOM     21  C   LIG A   1      -7.158   2.920 127.824  0.00  0.00    -0.046 A 
ATOM     22  C   LIG A   1      -7.729   3.643 126.767  0.00  0.00    +0.007 A 
ATOM     23  C   LIG A   1      -8.248   2.981 125.647  0.00  0.00    +0.046 A 
ATOM     24  C   LIG A   1      -8.192   1.592 125.565  0.00  0.00    +0.124 A 
ATOM     25  O   LIG A   1      -8.670   1.029 124.409  0.00  0.00    -0.485 OA
ATOM     26  C   LIG A   1      -8.266  -0.346 124.164  0.00  0.00    +0.112 C 
ATOM     27  C   LIG A   1      -6.815  -0.295 123.638  0.00  0.00    +0.056 C 
ATOM     28  C   LIG A   1      -9.188  -0.853 123.035  0.00  0.00    +0.048 C 
ATOM     29  C   LIG A   1      -9.078  -2.355 122.804  0.00  0.00    +0.004 C 
ATOM     30  C   LIG A   1      -9.393  -3.135 124.077  0.00  0.00    +0.007 C 
ATOM     31  C   LIG A   1      -8.517  -2.737 125.292  0.00  0.00    -0.028 C 
ATOM     32  C   LIG A   1      -7.113  -3.355 125.154  0.00  0.00    +0.011 C 
ATOM     33  C   LIG A   1      -9.157  -3.381 126.549  0.00  0.00    +0.011 C 
ATOM     34  C   LIG A   1      -8.523  -1.181 125.450  0.00  0.00    +0.043 C 
ATOM     35  C   LIG A   1      -7.632  -0.651 126.580  0.00  0.00    +0.046 C 
ATOM     36  C   LIG A   1      -7.672   0.851 126.628  0.00  0.00    -0.005 A 
ATOM     37  C   LIG A   1      -7.145   1.520 127.745  0.00  0.00    +0.010 A 
ENDBRANCH  20  21
ENDBRANCH   1  20
TORSDOF 6
ENDMDL
MODEL 2
REMARK VINA RESULT:      -9.9      3.734      5.243
REMARK  Name = NuBBE_1208
REMARK  11 active torsions:
REMARK  status: ('A' for Active; 'I' for Inactive)
REMARK    1  A    between atoms: C_1  and  C_2
REMARK    2  A    between atoms: C_2  and  C_3
REMARK    3  A    between atoms: C_9  and  O_10
REMARK    4  A    between atoms: C_11  and  C_12
REMARK    5  A    between atoms: C_12  and  C_14
REMARK    6  A    between atoms: C_14  and  C_15
REMARK    7  A    between atoms: C_15  and  C_16
REMARK    8  A    between atoms: C_21  and  C_22
REMARK    9  A    between atoms: C_26  and  C_27
REMARK   10  A    between atoms: C_26  and  C_28
REMARK   11  A    between atoms: C_33  and  O_34
REMARK                            x       y       z     vdW  Elec       q    Type
REMARK                         _______ _______ _______ _____ _____    ______ ____
ROOT
ATOM      1  C   LIG A   1      -4.075  -0.560 130.731  0.00  0.00    +0.084 C 
ENDROOT
BRANCH   1   2
ATOM      2  C   LIG A   1      -4.903   0.714 130.945  0.00  0.00    +0.171 C 
ATOM      3  O   LIG A   1      -4.833   1.391 131.966  0.00  0.00    -0.292 OA
BRANCH   2  13
ATOM      4  C   LIG A   1      -8.860   2.796 124.445  0.00  0.00    +0.055 C 
ATOM      5  C   LIG A   1      -7.826   3.013 125.562  0.00  0.00    +0.105 C 
ATOM      6  C   LIG A   1      -7.771   4.514 125.889  0.00  0.00    +0.055 C 
ATOM      7  C   LIG A   1      -6.473   2.450 125.109  0.00  0.00    +0.052 C 
ATOM      8  C   LIG A   1      -5.448   2.495 126.237  0.00  0.00    +0.046 C 
ATOM      9  C   LIG A   1      -6.048   2.020 127.533  0.00  0.00    +0.037 A 
ATOM     10  C   LIG A   1      -7.436   1.974 127.684  0.00  0.00    +0.131 A 
ATOM     11  C   LIG A   1      -8.005   1.573 128.892  0.00  0.00    +0.092 A 
ATOM     12  C   LIG A   1      -7.194   1.199 129.966  0.00  0.00    +0.134 A 
ATOM     13  C   LIG A   1      -5.802   1.200 129.844  0.00  0.00    +0.101 A 
ATOM     14  C   LIG A   1      -5.241   1.663 128.633  0.00  0.00    +0.138 A 
ATOM     15  O   LIG A   1      -8.334   2.307 126.707  0.00  0.00    -0.486 OA
BRANCH  12  16
ATOM     16  O   LIG A   1      -7.792   0.872 131.151  0.00  0.00    -0.506 OA
ATOM     17  H   LIG A   1      -7.204   0.287 131.660  0.00  0.00    +0.292 HD
ENDBRANCH  12  16
BRANCH  14  18
ATOM     18  O   LIG A   1      -3.882   1.797 128.470  0.00  0.00    -0.505 OA
ATOM     19  H   LIG A   1      -3.575   2.510 129.073  0.00  0.00    +0.292 HD
ENDBRANCH  14  18
ENDBRANCH   2  13
ENDBRANCH   1   2
BRANCH   1  20
ATOM     20  C   LIG A   1      -4.863  -1.847 131.014  0.00  0.00    +0.043 C 
BRANCH  20  21
ATOM     21  C   LIG A   1      -5.842  -2.204 129.910  0.00  0.00    -0.046 A 
ATOM     22  C   LIG A   1      -7.055  -2.848 130.193  0.00  0.00    +0.007 A 
ATOM     23  C   LIG A   1      -7.958  -3.152 129.167  0.00  0.00    +0.046 A 
ATOM     24  C   LIG A   1      -7.666  -2.805 127.850  0.00  0.00    +0.124 A 
ATOM     25  O   LIG A   1      -8.631  -3.088 126.916  0.00  0.00    -0.485 OA
ATOM     26  C   LIG A   1      -8.499  -2.395 125.645  0.00  0.00    +0.112 C 
ATOM     27  C   LIG A   1      -9.016  -0.957 125.867  0.00  0.00    +0.056 C 
ATOM     28  C   LIG A   1      -9.453  -3.124 124.676  0.00  0.00    +0.048 C 
ATOM     29  C   LIG A   1      -9.274  -2.692 123.225  0.00  0.00    +0.004 C 
ATOM     30  C   LIG A   1      -7.840  -2.914 122.755  0.00  0.00    +0.007 C 
ATOM     31  C   LIG A   1      -6.774  -2.213 123.634  0.00  0.00    -0.028 C 
ATOM     32  C   LIG A   1      -6.739  -0.706 123.318  0.00  0.00    +0.011 C 
ATOM     33  C   LIG A   1      -5.391  -2.779 123.217  0.00  0.00    +0.011 C 
ATOM     34  C   LIG A   1      -7.037  -2.549 125.138  0.00  0.00    +0.043 C 
ATOM     35  C   LIG A   1      -6.088  -1.856 126.123  0.00  0.00    +0.046 C 
ATOM     36  C   LIG A   1      -6.443  -2.208 127.541  0.00  0.00    -0.005 A 
ATOM     37  C   LIG A   1      -5.544  -1.898 128.575  0.00  0.00    +0.010 A 
ENDBRANCH  20  21
ENDBRANCH   1  20
TORSDOF 6
ENDMDL
MODEL 3
REMARK VINA RESULT:      -9.7      3.618      4.537
REMARK  Name = NuBBE_1208
REMARK  11 active torsions:
REMARK  status: ('A' for Active; 'I' for Inactive)
REMARK    1  A    between atoms: C_1  and  C_2
REMARK    2  A    between atoms: C_2  and  C_3
REMARK    3  A    between atoms: C_9  and  O_10
REMARK    4  A    between atoms: C_11  and  C_12
REMARK    5  A    between atoms: C_12  and  C_14
REMARK    6  A    between atoms: C_14  and  C_15
REMARK    7  A    between atoms: C_15  and  C_16
REMARK    8  A    between atoms: C_21  and  C_22
REMARK    9  A    between atoms: C_26  and  C_27
REMARK   10  A    between atoms: C_26  and  C_28
REMARK   11  A    between atoms: C_33  and  O_34
REMARK                            x       y       z     vdW  Elec       q    Type
REMARK                         _______ _______ _______ _____ _____    ______ ____
ROOT
ATOM      1  C   LIG A   1      -6.695   5.154 131.620  0.00  0.00    +0.084 C 
ENDROOT
BRANCH   1   2
ATOM      2  C   LIG A   1      -7.798   5.877 132.403  0.00  0.00    +0.171 C 
ATOM      3  O   LIG A   1      -7.673   6.210 133.578  0.00  0.00    -0.292 OA
BRANCH   2  13
ATOM      4  C   LIG A   1     -13.861   7.850 127.757  0.00  0.00    +0.055 C 
ATOM      5  C   LIG A   1     -12.655   8.158 128.660  0.00  0.00    +0.105 C 
ATOM      6  C   LIG A   1     -12.931   9.471 129.409  0.00  0.00    +0.055 C 
ATOM      7  C   LIG A   1     -11.386   8.215 127.799  0.00  0.00    +0.052 C 
ATOM      8  C   LIG A   1     -10.138   8.360 128.663  0.00  0.00    +0.046 C 
ATOM      9  C   LIG A   1     -10.186   7.430 129.845  0.00  0.00    +0.037 A 
ATOM     10  C   LIG A   1     -11.402   6.873 130.246  0.00  0.00    +0.131 A 
ATOM     11  C   LIG A   1     -11.467   6.041 131.362  0.00  0.00    +0.092 A 
ATOM     12  C   LIG A   1     -10.313   5.742 132.090  0.00  0.00    +0.134 A 
ATOM     13  C   LIG A   1      -9.072   6.253 131.702  0.00  0.00    +0.101 A 
ATOM     14  C   LIG A   1      -9.032   7.140 130.602  0.00  0.00    +0.138 A 
ATOM     15  O   LIG A   1     -12.597   7.082 129.613  0.00  0.00    -0.486 OA
BRANCH  12  16
ATOM     16  O   LIG A   1     -10.433   4.973 133.214  0.00  0.00    -0.506 OA
ATOM     17  H   LIG A   1     -11.334   5.059 133.570  0.00  0.00    +0.292 HD
ENDBRANCH  12  16
BRANCH  14  18
ATOM     18  O   LIG A   1      -7.870   7.769 130.223  0.00  0.00    -0.505 OA
ATOM     19  H   LIG A   1      -7.157   7.480 130.834  0.00  0.00    +0.292 HD
ENDBRANCH  14  18
ENDBRANCH   2  13
ENDBRANCH   1   2
BRANCH   1  20
ATOM     20  C   LIG A   1      -7.238   4.283 130.478  0.00  0.00    +0.043 C 
BRANCH  20  21
ATOM     21  C   LIG A   1      -7.264   2.802 130.815  0.00  0.00    -0.046 A 
ATOM     22  C   LIG A   1      -8.191   2.280 131.728  0.00  0.00    +0.007 A 
ATOM     23  C   LIG A   1      -8.218   0.909 132.013  0.00  0.00    +0.046 A 
ATOM     24  C   LIG A   1      -7.329   0.043 131.380  0.00  0.00    +0.124 A 
ATOM     25  O   LIG A   1      -7.462  -1.290 131.673  0.00  0.00    -0.485 OA
ATOM     26  C   LIG A   1      -6.817  -2.206 130.747  0.00  0.00    +0.112 C 
ATOM     27  C   LIG A   1      -7.731  -2.301 129.506  0.00  0.00    +0.056 C 
ATOM     28  C   LIG A   1      -6.801  -3.574 131.461  0.00  0.00    +0.048 C 
ATOM     29  C   LIG A   1      -5.946  -4.611 130.744  0.00  0.00    +0.004 C 
ATOM     30  C   LIG A   1      -4.507  -4.129 130.586  0.00  0.00    +0.007 C 
ATOM     31  C   LIG A   1      -4.377  -2.766 129.859  0.00  0.00    -0.028 C 
ATOM     32  C   LIG A   1      -4.574  -2.956 128.344  0.00  0.00    +0.011 C 
ATOM     33  C   LIG A   1      -2.917  -2.281 130.053  0.00  0.00    +0.011 C 
ATOM     34  C   LIG A   1      -5.354  -1.734 130.511  0.00  0.00    +0.043 C 
ATOM     35  C   LIG A   1      -5.373  -0.357 129.835  0.00  0.00    +0.046 C 
ATOM     36  C   LIG A   1      -6.367   0.550 130.505  0.00  0.00    -0.005 A 
ATOM     37  C   LIG A   1      -6.350   1.925 130.216  0.00  0.00    +0.010 A 
ENDBRANCH  20  21
ENDBRANCH   1  20
TORSDOF 6
ENDMDL
MODEL 4
REMARK VINA RESULT:      -9.7      3.917      8.939
REMARK  Name = NuBBE_1208
REMARK  11 active torsions:
REMARK  status: ('A' for Active; 'I' for Inactive)
REMARK    1  A    between atoms: C_1  and  C_2
REMARK    2  A    between atoms: C_2  and  C_3
REMARK    3  A    between atoms: C_9  and  O_10
REMARK    4  A    between atoms: C_11  and  C_12
REMARK    5  A    between atoms: C_12  and  C_14
REMARK    6  A    between atoms: C_14  and  C_15
REMARK    7  A    between atoms: C_15  and  C_16
REMARK    8  A    between atoms: C_21  and  C_22
REMARK    9  A    between atoms: C_26  and  C_27
REMARK   10  A    between atoms: C_26  and  C_28
REMARK   11  A    between atoms: C_33  and  O_34
REMARK                            x       y       z     vdW  Elec       q    Type
REMARK                         _______ _______ _______ _____ _____    ______ ____
ROOT
ATOM      1  C   LIG A   1     -10.510   6.217 131.094  0.00  0.00    +0.084 C 
ENDROOT
BRANCH   1   2
ATOM      2  C   LIG A   1     -10.765   4.905 130.340  0.00  0.00    +0.171 C 
ATOM      3  O   LIG A   1     -11.842   4.635 129.817  0.00  0.00    -0.292 OA
BRANCH   2  13
ATOM      4  C   LIG A   1      -5.675  -1.068 129.534  0.00  0.00    +0.055 C 
ATOM      5  C   LIG A   1      -6.494  -0.051 130.345  0.00  0.00    +0.105 C 
ATOM      6  C   LIG A   1      -5.688   0.337 131.595  0.00  0.00    +0.055 C 
ATOM      7  C   LIG A   1      -7.861  -0.662 130.681  0.00  0.00    +0.052 C 
ATOM      8  C   LIG A   1      -8.775   0.360 131.347  0.00  0.00    +0.046 C 
ATOM      9  C   LIG A   1      -8.713   1.687 130.639  0.00  0.00    +0.037 A 
ATOM     10  C   LIG A   1      -7.645   1.973 129.785  0.00  0.00    +0.131 A 
ATOM     11  C   LIG A   1      -7.556   3.211 129.152  0.00  0.00    +0.092 A 
ATOM     12  C   LIG A   1      -8.540   4.182 129.354  0.00  0.00    +0.134 A 
ATOM     13  C   LIG A   1      -9.641   3.922 130.175  0.00  0.00    +0.101 A 
ATOM     14  C   LIG A   1      -9.688   2.683 130.853  0.00  0.00    +0.138 A 
ATOM     15  O   LIG A   1      -6.626   1.106 129.500  0.00  0.00    -0.486 OA
BRANCH  12  16
ATOM     16  O   LIG A   1      -8.381   5.405 128.764  0.00  0.00    -0.506 OA
ATOM     17  H   LIG A   1      -8.320   5.292 127.799  0.00  0.00    +0.292 HD
ENDBRANCH  12  16
BRANCH  14  18
ATOM     18  O   LIG A   1     -10.679   2.392 131.760  0.00  0.00    -0.505 OA
ATOM     19  H   LIG A   1     -11.399   1.925 131.281  0.00  0.00    +0.292 HD
ENDBRANCH  14  18
ENDBRANCH   2  13
ENDBRANCH   1   2
BRANCH   1  20
ATOM     20  C   LIG A   1     -10.222   6.008 132.588  0.00  0.00    +0.043 C 
BRANCH  20  21
ATOM     21  C   LIG A   1      -8.801   5.549 132.864  0.00  0.00    -0.046 A 
ATOM     22  C   LIG A   1      -8.538   4.475 133.728  0.00  0.00    +0.007 A 
ATOM     23  C   LIG A   1      -7.224   4.049 133.956  0.00  0.00    +0.046 A 
ATOM     24  C   LIG A   1      -6.160   4.680 133.316  0.00  0.00    +0.124 A 
ATOM     25  O   LIG A   1      -4.912   4.162 133.551  0.00  0.00    -0.485 OA
ATOM     26  C   LIG A   1      -3.877   4.558 132.610  0.00  0.00    +0.112 C 
ATOM     27  C   LIG A   1      -4.084   3.705 131.339  0.00  0.00    +0.056 C 
ATOM     28  C   LIG A   1      -2.541   4.156 133.269  0.00  0.00    +0.048 C 
ATOM     29  C   LIG A   1      -1.325   4.710 132.537  0.00  0.00    +0.004 C 
ATOM     30  C   LIG A   1      -1.381   6.231 132.443  0.00  0.00    +0.007 C 
ATOM     31  C   LIG A   1      -2.671   6.773 131.775  0.00  0.00    -0.028 C 
ATOM     32  C   LIG A   1      -2.590   6.591 130.248  0.00  0.00    +0.011 C 
ATOM     33  C   LIG A   1      -2.714   8.301 132.032  0.00  0.00    +0.011 C 
ATOM     34  C   LIG A   1      -3.919   6.103 132.438  0.00  0.00    +0.043 C 
ATOM     35  C   LIG A   1      -5.264   6.503 131.817  0.00  0.00    +0.046 C 
ATOM     36  C   LIG A   1      -6.397   5.781 132.492  0.00  0.00    -0.005 A 
ATOM     37  C   LIG A   1      -7.717   6.200 132.259  0.00  0.00    +0.010 A 
ENDBRANCH  20  21
ENDBRANCH   1  20
TORSDOF 6
ENDMDL
MODEL 5
REMARK VINA RESULT:      -9.7      1.704      3.057
REMARK  Name = NuBBE_1208
REMARK  11 active torsions:
REMARK  status: ('A' for Active; 'I' for Inactive)
REMARK    1  A    between atoms: C_1  and  C_2
REMARK    2  A    between atoms: C_2  and  C_3
REMARK    3  A    between atoms: C_9  and  O_10
REMARK    4  A    between atoms: C_11  and  C_12
REMARK    5  A    between atoms: C_12  and  C_14
REMARK    6  A    between atoms: C_14  and  C_15
REMARK    7  A    between atoms: C_15  and  C_16
REMARK    8  A    between atoms: C_21  and  C_22
REMARK    9  A    between atoms: C_26  and  C_27
REMARK   10  A    between atoms: C_26  and  C_28
REMARK   11  A    between atoms: C_33  and  O_34
REMARK                            x       y       z     vdW  Elec       q    Type
REMARK                         _______ _______ _______ _____ _____    ______ ____
ROOT
ATOM      1  C   LIG A   1      -7.462   3.006 131.575  0.00  0.00    +0.084 C 
ENDROOT
BRANCH   1   2
ATOM      2  C   LIG A   1      -7.842   4.399 132.095  0.00  0.00    +0.171 C 
ATOM      3  O   LIG A   1      -7.381   4.873 133.129  0.00  0.00    -0.292 OA
BRANCH   2  13
ATOM      4  C   LIG A   1     -13.045   9.367 128.857  0.00  0.00    +0.055 C 
ATOM      5  C   LIG A   1     -12.619   8.034 129.494  0.00  0.00    +0.105 C 
ATOM      6  C   LIG A   1     -13.456   6.907 128.869  0.00  0.00    +0.055 C 
ATOM      7  C   LIG A   1     -12.787   8.130 131.016  0.00  0.00    +0.052 C 
ATOM      8  C   LIG A   1     -12.231   6.893 131.713  0.00  0.00    +0.046 C 
ATOM      9  C   LIG A   1     -10.894   6.503 131.141  0.00  0.00    +0.037 A 
ATOM     10  C   LIG A   1     -10.502   6.989 129.892  0.00  0.00    +0.131 A 
ATOM     11  C   LIG A   1      -9.283   6.605 129.334  0.00  0.00    +0.092 A 
ATOM     12  C   LIG A   1      -8.432   5.738 130.021  0.00  0.00    +0.134 A 
ATOM     13  C   LIG A   1      -8.774   5.256 131.288  0.00  0.00    +0.101 A 
ATOM     14  C   LIG A   1     -10.037   5.609 131.814  0.00  0.00    +0.138 A 
ATOM     15  O   LIG A   1     -11.241   7.848 129.126  0.00  0.00    -0.486 OA
BRANCH  12  16
ATOM     16  O   LIG A   1      -7.276   5.338 129.410  0.00  0.00    -0.506 OA
ATOM     17  H   LIG A   1      -6.817   6.116 129.046  0.00  0.00    +0.292 HD
ENDBRANCH  12  16
BRANCH  14  18
ATOM     18  O   LIG A   1     -10.494   5.092 133.004  0.00  0.00    -0.505 OA
ATOM     19  H   LIG A   1     -10.549   4.115 132.907  0.00  0.00    +0.292 HD
ENDBRANCH  14  18
ENDBRANCH   2  13
ENDBRANCH   1   2
BRANCH   1  20
ATOM     20  C   LIG A   1      -8.648   2.248 130.961  0.00  0.00    +0.043 C 
BRANCH  20  21
ATOM     21  C   LIG A   1      -8.226   1.194 129.953  0.00  0.00    -0.046 A 
ATOM     22  C   LIG A   1      -7.651  -0.018 130.363  0.00  0.00    +0.007 A 
ATOM     23  C   LIG A   1      -7.287  -0.990 129.423  0.00  0.00    +0.046 A 
ATOM     24  C   LIG A   1      -7.504  -0.769 128.065  0.00  0.00    +0.124 A 
ATOM     25  O   LIG A   1      -7.172  -1.796 127.219  0.00  0.00    -0.485 OA
ATOM     26  C   LIG A   1      -7.743  -1.722 125.884  0.00  0.00    +0.112 C 
ATOM     27  C   LIG A   1      -9.211  -2.184 126.003  0.00  0.00    +0.056 C 
ATOM     28  C   LIG A   1      -6.963  -2.754 125.042  0.00  0.00    +0.048 C 
ATOM     29  C   LIG A   1      -7.256  -2.651 123.550  0.00  0.00    +0.004 C 
ATOM     30  C   LIG A   1      -6.945  -1.256 123.020  0.00  0.00    +0.007 C 
ATOM     31  C   LIG A   1      -7.686  -0.118 123.768  0.00  0.00    -0.028 C 
ATOM     32  C   LIG A   1      -9.157  -0.060 123.314  0.00  0.00    +0.011 C 
ATOM     33  C   LIG A   1      -7.039   1.220 123.325  0.00  0.00    +0.011 C 
ATOM     34  C   LIG A   1      -7.495  -0.299 125.309  0.00  0.00    +0.043 C 
ATOM     35  C   LIG A   1      -8.242   0.728 126.170  0.00  0.00    +0.046 C 
ATOM     36  C   LIG A   1      -8.030   0.449 127.632  0.00  0.00    -0.005 A 
ATOM     37  C   LIG A   1      -8.401   1.418 128.580  0.00  0.00    +0.010 A 
ENDBRANCH  20  21
ENDBRANCH   1  20
TORSDOF 6
ENDMDL
MODEL 6
REMARK VINA RESULT:      -9.6      2.695      4.488
REMARK  Name = NuBBE_1208
REMARK  11 active torsions:
REMARK  status: ('A' for Active; 'I' for Inactive)
REMARK    1  A    between atoms: C_1  and  C_2
REMARK    2  A    between atoms: C_2  and  C_3
REMARK    3  A    between atoms: C_9  and  O_10
REMARK    4  A    between atoms: C_11  and  C_12
REMARK    5  A    between atoms: C_12  and  C_14
REMARK    6  A    between atoms: C_14  and  C_15
REMARK    7  A    between atoms: C_15  and  C_16
REMARK    8  A    between atoms: C_21  and  C_22
REMARK    9  A    between atoms: C_26  and  C_27
REMARK   10  A    between atoms: C_26  and  C_28
REMARK   11  A    between atoms: C_33  and  O_34
REMARK                            x       y       z     vdW  Elec       q    Type
REMARK                         _______ _______ _______ _____ _____    ______ ____
ROOT
ATOM      1  C   LIG A   1      -5.594  -0.341 131.768  0.00  0.00    +0.084 C 
ENDROOT
BRANCH   1   2
ATOM      2  C   LIG A   1      -6.793  -0.035 132.675  0.00  0.00    +0.171 C 
ATOM      3  O   LIG A   1      -7.209  -0.824 133.519  0.00  0.00    -0.292 OA
BRANCH   2  13
ATOM      4  C   LIG A   1     -11.206   6.433 131.713  0.00  0.00    +0.055 C 
ATOM      5  C   LIG A   1     -10.173   5.386 131.265  0.00  0.00    +0.105 C 
ATOM      6  C   LIG A   1      -9.140   6.077 130.361  0.00  0.00    +0.055 C 
ATOM      7  C   LIG A   1     -10.902   4.232 130.565  0.00  0.00    +0.052 C 
ATOM      8  C   LIG A   1      -9.945   3.089 130.240  0.00  0.00    +0.046 C 
ATOM      9  C   LIG A   1      -9.040   2.792 131.405  0.00  0.00    +0.037 A 
ATOM     10  C   LIG A   1      -8.877   3.737 132.420  0.00  0.00    +0.131 A 
ATOM     11  C   LIG A   1      -8.012   3.491 133.485  0.00  0.00    +0.092 A 
ATOM     12  C   LIG A   1      -7.304   2.289 133.558  0.00  0.00    +0.134 A 
ATOM     13  C   LIG A   1      -7.465   1.305 132.579  0.00  0.00    +0.101 A 
ATOM     14  C   LIG A   1      -8.301   1.593 131.478  0.00  0.00    +0.138 A 
ATOM     15  O   LIG A   1      -9.518   4.945 132.467  0.00  0.00    -0.486 OA
BRANCH  12  16
ATOM     16  O   LIG A   1      -6.419   2.115 134.587  0.00  0.00    -0.506 OA
ATOM     17  H   LIG A   1      -6.909   2.044 135.425  0.00  0.00    +0.292 HD
ENDBRANCH  12  16
BRANCH  14  18
ATOM     18  O   LIG A   1      -8.430   0.724 130.420  0.00  0.00    -0.505 OA
ATOM     19  H   LIG A   1      -8.757  -0.134 130.773  0.00  0.00    +0.292 HD
ENDBRANCH  14  18
ENDBRANCH   2  13
ENDBRANCH   1   2
BRANCH   1  20
ATOM     20  C   LIG A   1      -5.488  -1.824 131.387  0.00  0.00    +0.043 C 
BRANCH  20  21
ATOM     21  C   LIG A   1      -6.347  -2.197 130.191  0.00  0.00    -0.046 A 
ATOM     22  C   LIG A   1      -7.561  -2.880 130.351  0.00  0.00    +0.007 A 
ATOM     23  C   LIG A   1      -8.353  -3.198 129.241  0.00  0.00    +0.046 A 
ATOM     24  C   LIG A   1      -7.949  -2.827 127.961  0.00  0.00    +0.124 A 
ATOM     25  O   LIG A   1      -8.811  -3.126 126.938  0.00  0.00    -0.485 OA
ATOM     26  C   LIG A   1      -8.581  -2.414 125.691  0.00  0.00    +0.112 C 
ATOM     27  C   LIG A   1      -9.161  -0.995 125.877  0.00  0.00    +0.056 C 
ATOM     28  C   LIG A   1      -9.416  -3.159 124.629  0.00  0.00    +0.048 C 
ATOM     29  C   LIG A   1      -9.114  -2.704 123.206  0.00  0.00    +0.004 C 
ATOM     30  C   LIG A   1      -7.636  -2.878 122.872  0.00  0.00    +0.007 C 
ATOM     31  C   LIG A   1      -6.679  -2.156 123.855  0.00  0.00    -0.028 C 
ATOM     32  C   LIG A   1      -6.661  -0.645 123.558  0.00  0.00    +0.011 C 
ATOM     33  C   LIG A   1      -5.247  -2.676 123.566  0.00  0.00    +0.011 C 
ATOM     34  C   LIG A   1      -7.074  -2.518 125.324  0.00  0.00    +0.043 C 
ATOM     35  C   LIG A   1      -6.243  -1.810 126.401  0.00  0.00    +0.046 C 
ATOM     36  C   LIG A   1      -6.720  -2.190 127.775  0.00  0.00    -0.005 A 
ATOM     37  C   LIG A   1      -5.934  -1.865 128.893  0.00  0.00    +0.010 A 
ENDBRANCH  20  21
ENDBRANCH   1  20
TORSDOF 6
ENDMDL
MODEL 7
REMARK VINA RESULT:      -9.6      2.068      3.355
REMARK  Name = NuBBE_1208
REMARK  11 active torsions:
REMARK  status: ('A' for Active; 'I' for Inactive)
REMARK    1  A    between atoms: C_1  and  C_2
REMARK    2  A    between atoms: C_2  and  C_3
REMARK    3  A    between atoms: C_9  and  O_10
REMARK    4  A    between atoms: C_11  and  C_12
REMARK    5  A    between atoms: C_12  and  C_14
REMARK    6  A    between atoms: C_14  and  C_15
REMARK    7  A    between atoms: C_15  and  C_16
REMARK    8  A    between atoms: C_21  and  C_22
REMARK    9  A    between atoms: C_26  and  C_27
REMARK   10  A    between atoms: C_26  and  C_28
REMARK   11  A    between atoms: C_33  and  O_34
REMARK                            x       y       z     vdW  Elec       q    Type
REMARK                         _______ _______ _______ _____ _____    ______ ____
ROOT
ATOM      1  C   LIG A   1      -6.911   1.063 131.834  0.00  0.00    +0.084 C 
ENDROOT
BRANCH   1   2
ATOM      2  C   LIG A   1      -7.764   2.040 132.654  0.00  0.00    +0.171 C 
ATOM      3  O   LIG A   1      -7.599   2.221 133.857  0.00  0.00    -0.292 OA
BRANCH   2  13
ATOM      4  C   LIG A   1     -12.396   6.936 128.554  0.00  0.00    +0.055 C 
ATOM      5  C   LIG A   1     -11.595   6.506 129.794  0.00  0.00    +0.105 C 
ATOM      6  C   LIG A   1     -12.316   7.032 131.045  0.00  0.00    +0.055 C 
ATOM      7  C   LIG A   1     -10.158   7.029 129.668  0.00  0.00    +0.052 C 
ATOM      8  C   LIG A   1      -9.275   6.499 130.792  0.00  0.00    +0.046 C 
ATOM      9  C   LIG A   1      -9.509   5.029 131.017  0.00  0.00    +0.037 A 
ATOM     10  C   LIG A   1     -10.668   4.424 130.528  0.00  0.00    +0.131 A 
ATOM     11  C   LIG A   1     -10.915   3.072 130.762  0.00  0.00    +0.092 A 
ATOM     12  C   LIG A   1     -10.000   2.300 131.482  0.00  0.00    +0.134 A 
ATOM     13  C   LIG A   1      -8.813   2.861 131.960  0.00  0.00    +0.101 A 
ATOM     14  C   LIG A   1      -8.605   4.244 131.763  0.00  0.00    +0.138 A 
ATOM     15  O   LIG A   1     -11.634   5.069 129.804  0.00  0.00    -0.486 OA
BRANCH  12  16
ATOM     16  O   LIG A   1     -10.312   0.994 131.742  0.00  0.00    -0.506 OA
ATOM     17  H   LIG A   1     -11.035   0.712 131.156  0.00  0.00    +0.292 HD
ENDBRANCH  12  16
BRANCH  14  18
ATOM     18  O   LIG A   1      -7.516   4.895 132.294  0.00  0.00    -0.505 OA
ATOM     19  H   LIG A   1      -7.669   5.000 133.260  0.00  0.00    +0.292 HD
ENDBRANCH  14  18
ENDBRANCH   2  13
ENDBRANCH   1   2
BRANCH   1  20
ATOM     20  C   LIG A   1      -7.423  -0.383 131.896  0.00  0.00    +0.043 C 
BRANCH  20  21
ATOM     21  C   LIG A   1      -7.387  -1.089 130.552  0.00  0.00    -0.046 A 
ATOM     22  C   LIG A   1      -7.106  -2.459 130.456  0.00  0.00    +0.007 A 
ATOM     23  C   LIG A   1      -7.097  -3.101 129.212  0.00  0.00    +0.046 A 
ATOM     24  C   LIG A   1      -7.382  -2.386 128.051  0.00  0.00    +0.124 A 
ATOM     25  O   LIG A   1      -7.409  -3.104 126.883  0.00  0.00    -0.485 OA
ATOM     26  C   LIG A   1      -8.069  -2.457 125.761  0.00  0.00    +0.112 C 
ATOM     27  C   LIG A   1      -9.588  -2.612 125.990  0.00  0.00    +0.056 C 
ATOM     28  C   LIG A   1      -7.666  -3.274 124.516  0.00  0.00    +0.048 C 
ATOM     29  C   LIG A   1      -8.067  -2.605 123.207  0.00  0.00    +0.004 C 
ATOM     30  C   LIG A   1      -7.461  -1.210 123.090  0.00  0.00    +0.007 C 
ATOM     31  C   LIG A   1      -7.807  -0.272 124.274  0.00  0.00    -0.028 C 
ATOM     32  C   LIG A   1      -9.251   0.247 124.130  0.00  0.00    +0.011 C 
ATOM     33  C   LIG A   1      -6.884   0.969 124.162  0.00  0.00    +0.011 C 
ATOM     34  C   LIG A   1      -7.521  -1.009 125.623  0.00  0.00    +0.043 C 
ATOM     35  C   LIG A   1      -7.890  -0.209 126.879  0.00  0.00    +0.046 C 
ATOM     36  C   LIG A   1      -7.616  -1.012 128.120  0.00  0.00    -0.005 A 
ATOM     37  C   LIG A   1      -7.632  -0.374 129.371  0.00  0.00    +0.010 A 
ENDBRANCH  20  21
ENDBRANCH   1  20
TORSDOF 6
ENDMDL
MODEL 8
REMARK VINA RESULT:      -9.3      4.263      8.857
REMARK  Name = NuBBE_1208
REMARK  11 active torsions:
REMARK  status: ('A' for Active; 'I' for Inactive)
REMARK    1  A    between atoms: C_1  and  C_2
REMARK    2  A    between atoms: C_2  and  C_3
REMARK    3  A    between atoms: C_9  and  O_10
REMARK    4  A    between atoms: C_11  and  C_12
REMARK    5  A    between atoms: C_12  and  C_14
REMARK    6  A    between atoms: C_14  and  C_15
REMARK    7  A    between atoms: C_15  and  C_16
REMARK    8  A    between atoms: C_21  and  C_22
REMARK    9  A    between atoms: C_26  and  C_27
REMARK   10  A    between atoms: C_26  and  C_28
REMARK   11  A    between atoms: C_33  and  O_34
REMARK                            x       y       z     vdW  Elec       q    Type
REMARK                         _______ _______ _______ _____ _____    ______ ____
ROOT
ATOM      1  C   LIG A   1      -7.503  -0.899 123.244  0.00  0.00    +0.084 C 
ENDROOT
BRANCH   1   2
ATOM      2  C   LIG A   1      -7.896  -2.245 123.866  0.00  0.00    +0.171 C 
ATOM      3  O   LIG A   1      -8.264  -3.207 123.197  0.00  0.00    -0.292 OA
BRANCH   2  13
ATOM      4  C   LIG A   1      -6.519  -2.353 131.633  0.00  0.00    +0.055 C 
ATOM      5  C   LIG A   1      -6.256  -2.772 130.178  0.00  0.00    +0.105 C 
ATOM      6  C   LIG A   1      -5.767  -4.229 130.171  0.00  0.00    +0.055 C 
ATOM      7  C   LIG A   1      -5.247  -1.800 129.552  0.00  0.00    +0.052 C 
ATOM      8  C   LIG A   1      -5.068  -2.072 128.062  0.00  0.00    +0.046 C 
ATOM      9  C   LIG A   1      -6.396  -2.293 127.388  0.00  0.00    +0.037 A 
ATOM     10  C   LIG A   1      -7.522  -2.609 128.152  0.00  0.00    +0.131 A 
ATOM     11  C   LIG A   1      -8.749  -2.854 127.537  0.00  0.00    +0.092 A 
ATOM     12  C   LIG A   1      -8.873  -2.776 126.148  0.00  0.00    +0.134 A 
ATOM     13  C   LIG A   1      -7.777  -2.431 125.352  0.00  0.00    +0.101 A 
ATOM     14  C   LIG A   1      -6.528  -2.241 125.985  0.00  0.00    +0.138 A 
ATOM     15  O   LIG A   1      -7.531  -2.707 129.516  0.00  0.00    -0.486 OA
BRANCH  12  16
ATOM     16  O   LIG A   1     -10.079  -3.085 125.583  0.00  0.00    -0.506 OA
ATOM     17  H   LIG A   1      -9.951  -3.768 124.902  0.00  0.00    +0.292 HD
ENDBRANCH  12  16
BRANCH  14  18
ATOM     18  O   LIG A   1      -5.381  -2.005 125.265  0.00  0.00    -0.505 OA
ATOM     19  H   LIG A   1      -5.004  -1.150 125.570  0.00  0.00    +0.292 HD
ENDBRANCH  14  18
ENDBRANCH   2  13
ENDBRANCH   1   2
BRANCH   1  20
ATOM     20  C   LIG A   1      -8.513   0.220 123.539  0.00  0.00    +0.043 C 
BRANCH  20  21
ATOM     21  C   LIG A   1      -7.883   1.439 124.189  0.00  0.00    -0.046 A 
ATOM     22  C   LIG A   1      -8.471   2.707 124.082  0.00  0.00    +0.007 A 
ATOM     23  C   LIG A   1      -7.891   3.818 124.705  0.00  0.00    +0.046 A 
ATOM     24  C   LIG A   1      -6.724   3.674 125.453  0.00  0.00    +0.124 A 
ATOM     25  O   LIG A   1      -6.255   4.802 126.077  0.00  0.00    -0.485 OA
ATOM     26  C   LIG A   1      -5.291   4.578 127.141  0.00  0.00    +0.112 C 
ATOM     27  C   LIG A   1      -6.094   4.125 128.379  0.00  0.00    +0.056 C 
ATOM     28  C   LIG A   1      -4.666   5.959 127.430  0.00  0.00    +0.048 C 
ATOM     29  C   LIG A   1      -3.456   5.885 128.353  0.00  0.00    +0.004 C 
ATOM     30  C   LIG A   1      -2.376   4.973 127.778  0.00  0.00    +0.007 C 
ATOM     31  C   LIG A   1      -2.868   3.538 127.461  0.00  0.00    -0.028 C 
ATOM     32  C   LIG A   1      -2.990   2.723 128.762  0.00  0.00    +0.011 C 
ATOM     33  C   LIG A   1      -1.764   2.851 126.616  0.00  0.00    +0.011 C 
ATOM     34  C   LIG A   1      -4.187   3.614 126.624  0.00  0.00    +0.043 C 
ATOM     35  C   LIG A   1      -4.818   2.253 126.302  0.00  0.00    +0.046 C 
ATOM     36  C   LIG A   1      -6.096   2.430 125.531  0.00  0.00    -0.005 A 
ATOM     37  C   LIG A   1      -6.688   1.316 124.911  0.00  0.00    +0.010 A 
ENDBRANCH  20  21
ENDBRANCH   1  20
TORSDOF 6
ENDMDL
MODEL 9
REMARK VINA RESULT:      -9.3      3.959      5.501
REMARK  Name = NuBBE_1208
REMARK  11 active torsions:
REMARK  status: ('A' for Active; 'I' for Inactive)
REMARK    1  A    between atoms: C_1  and  C_2
REMARK    2  A    between atoms: C_2  and  C_3
REMARK    3  A    between atoms: C_9  and  O_10
REMARK    4  A    between atoms: C_11  and  C_12
REMARK    5  A    between atoms: C_12  and  C_14
REMARK    6  A    between atoms: C_14  and  C_15
REMARK    7  A    between atoms: C_15  and  C_16
REMARK    8  A    between atoms: C_21  and  C_22
REMARK    9  A    between atoms: C_26  and  C_27
REMARK   10  A    between atoms: C_26  and  C_28
REMARK   11  A    between atoms: C_33  and  O_34
REMARK                            x       y       z     vdW  Elec       q    Type
REMARK                         _______ _______ _______ _____ _____    ______ ____
ROOT
ATOM      1  C   LIG A   1      -5.163   3.562 130.237  0.00  0.00    +0.084 C 
ENDROOT
BRANCH   1   2
ATOM      2  C   LIG A   1      -5.179   4.685 129.191  0.00  0.00    +0.171 C 
ATOM      3  O   LIG A   1      -5.030   5.869 129.481  0.00  0.00    -0.292 OA
BRANCH   2  13
ATOM      4  C   LIG A   1      -6.987   3.332 121.632  0.00  0.00    +0.055 C 
ATOM      5  C   LIG A   1      -6.942   2.975 123.127  0.00  0.00    +0.105 C 
ATOM      6  C   LIG A   1      -6.791   1.452 123.261  0.00  0.00    +0.055 C 
ATOM      7  C   LIG A   1      -8.209   3.512 123.807  0.00  0.00    +0.052 C 
ATOM      8  C   LIG A   1      -8.145   3.327 125.320  0.00  0.00    +0.046 C 
ATOM      9  C   LIG A   1      -6.796   3.720 125.858  0.00  0.00    +0.037 A 
ATOM     10  C   LIG A   1      -5.702   3.816 124.995  0.00  0.00    +0.131 A 
ATOM     11  C   LIG A   1      -4.438   4.142 125.486  0.00  0.00    +0.092 A 
ATOM     12  C   LIG A   1      -4.250   4.388 126.848  0.00  0.00    +0.134 A 
ATOM     13  C   LIG A   1      -5.326   4.334 127.738  0.00  0.00    +0.101 A 
ATOM     14  C   LIG A   1      -6.588   3.948 127.234  0.00  0.00    +0.138 A 
ATOM     15  O   LIG A   1      -5.758   3.607 123.644  0.00  0.00    -0.486 OA
BRANCH  12  16
ATOM     16  O   LIG A   1      -2.984   4.643 127.295  0.00  0.00    -0.506 OA
ATOM     17  H   LIG A   1      -2.347   4.123 126.774  0.00  0.00    +0.292 HD
ENDBRANCH  12  16
BRANCH  14  18
ATOM     18  O   LIG A   1      -7.672   3.766 128.060  0.00  0.00    -0.505 OA
ATOM     19  H   LIG A   1      -8.141   4.627 128.135  0.00  0.00    +0.292 HD
ENDBRANCH  14  18
ENDBRANCH   2  13
ENDBRANCH   1   2
BRANCH   1  20
ATOM     20  C   LIG A   1      -4.454   2.292 129.747  0.00  0.00    +0.043 C 
BRANCH  20  21
ATOM     21  C   LIG A   1      -5.410   1.242 129.210  0.00  0.00    -0.046 A 
ATOM     22  C   LIG A   1      -6.522   0.821 129.953  0.00  0.00    +0.007 A 
ATOM     23  C   LIG A   1      -7.407  -0.132 129.435  0.00  0.00    +0.046 A 
ATOM     24  C   LIG A   1      -7.200  -0.666 128.165  0.00  0.00    +0.124 A 
ATOM     25  O   LIG A   1      -8.146  -1.549 127.713  0.00  0.00    -0.485 OA
ATOM     26  C   LIG A   1      -8.141  -1.800 126.281  0.00  0.00    +0.112 C 
ATOM     27  C   LIG A   1      -8.832  -0.589 125.616  0.00  0.00    +0.056 C 
ATOM     28  C   LIG A   1      -9.021  -3.051 126.076  0.00  0.00    +0.048 C 
ATOM     29  C   LIG A   1      -8.940  -3.612 124.661  0.00  0.00    +0.004 C 
ATOM     30  C   LIG A   1      -7.504  -3.961 124.286  0.00  0.00    +0.007 C 
ATOM     31  C   LIG A   1      -6.511  -2.779 124.426  0.00  0.00    -0.028 C 
ATOM     32  C   LIG A   1      -6.679  -1.807 123.243  0.00  0.00    +0.011 C 
ATOM     33  C   LIG A   1      -5.080  -3.365 124.311  0.00  0.00    +0.011 C 
ATOM     34  C   LIG A   1      -6.687  -2.117 125.832  0.00  0.00    +0.043 C 
ATOM     35  C   LIG A   1      -5.806  -0.884 126.072  0.00  0.00    +0.046 C 
ATOM     36  C   LIG A   1      -6.073  -0.297 127.430  0.00  0.00    -0.005 A 
ATOM     37  C   LIG A   1      -5.192   0.666 127.950  0.00  0.00    +0.010 A 
ENDBRANCH  20  21
ENDBRANCH   1  20
TORSDOF 6
ENDMDL
