MODEL 1
REMARK VINA RESULT:      -7.4      0.000      0.000
REMARK  Name = NuBBE_264
REMARK  6 active torsions:
REMARK  status: ('A' for Active; 'I' for Inactive)
REMARK    1  A    between atoms: C_2  and  C_3
REMARK    2  A    between atoms: C_3  and  C_4
REMARK    3  A    between atoms: C_7  and  C_9
REMARK    4  A    between atoms: C_18  and  C_20
REMARK    5  A    between atoms: C_23  and  O_24
REMARK    6  A    between atoms: O_24  and  C_25
REMARK                            x       y       z     vdW  Elec       q    Type
REMARK                         _______ _______ _______ _____ _____    ______ ____
ROOT
ATOM      1  C   LIG A   1      -7.309   2.220 123.820  0.00  0.00    +0.059 C 
ATOM      2  C   LIG A   1      -8.730   2.584 124.173  0.00  0.00    +0.113 C 
ATOM      3  O   LIG A   1      -8.847   3.645 125.046  0.00  0.00    -0.487 OA
ATOM      4  C   LIG A   1      -7.600   3.697 125.776  0.00  0.00    +0.207 C 
ATOM      5  C   LIG A   1      -6.533   2.993 124.913  0.00  0.00    +0.049 C 
ATOM      6  C   LIG A   1      -5.414   2.251 125.633  0.00  0.00    +0.013 C 
ATOM      7  C   LIG A   1      -9.795   1.856 123.817  0.00  0.00    +0.096 C 
ATOM      8  C   LIG A   1      -9.564   0.576 123.110  0.00  0.00    +0.223 C 
ATOM      9  C   LIG A   1      -8.224  -0.081 123.366  0.00  0.00    +0.164 C 
ATOM     10  C   LIG A   1      -7.198   0.705 123.743  0.00  0.00    +0.038 C 
ATOM     11  O   LIG A   1     -10.443   0.096 122.414  0.00  0.00    -0.284 OA
ENDROOT
BRANCH   4  12
ATOM     12  C   LIG A   1      -7.789   3.265 127.222  0.00  0.00    -0.003 A 
ATOM     13  C   LIG A   1      -8.297   1.967 127.499  0.00  0.00    +0.011 A 
ATOM     14  C   LIG A   1      -8.380   1.479 128.809  0.00  0.00    +0.050 A 
ATOM     15  C   LIG A   1      -7.955   2.302 129.826  0.00  0.00    +0.166 A 
ATOM     16  O   LIG A   1      -7.925   1.989 131.149  0.00  0.00    -0.453 OA
ATOM     17  C   LIG A   1      -7.374   3.202 131.703  0.00  0.00    +0.466 C 
ATOM     18  O   LIG A   1      -7.109   4.216 130.712  0.00  0.00    -0.453 OA
ATOM     19  C   LIG A   1      -7.488   3.570 129.577  0.00  0.00    +0.167 A 
ATOM     20  C   LIG A   1      -7.401   4.080 128.298  0.00  0.00    +0.056 A 
ENDBRANCH   4  12
BRANCH   9  21
ATOM     21  O   LIG A   1      -7.994  -1.427 123.131  0.00  0.00    -0.492 OA
ATOM     22  C   LIG A   1      -6.676  -1.760 122.705  0.00  0.00    +0.277 C 
ENDBRANCH   9  21
BRANCH   1  23
ATOM     23  C   LIG A   1      -6.965   2.817 122.410  0.00  0.00    +0.045 C 
BRANCH  23  25
ATOM     24  C   LIG A   1      -5.149   4.242 121.393  0.00  0.00    +0.004 C 
ATOM     25  C   LIG A   1      -5.913   3.902 122.437  0.00  0.00    -0.033 C 
ENDBRANCH  23  25
ENDBRANCH   1  23
TORSDOF 4
ENDMDL
MODEL 2
REMARK VINA RESULT:      -7.3      2.937      4.834
REMARK  Name = NuBBE_264
REMARK  6 active torsions:
REMARK  status: ('A' for Active; 'I' for Inactive)
REMARK    1  A    between atoms: C_2  and  C_3
REMARK    2  A    between atoms: C_3  and  C_4
REMARK    3  A    between atoms: C_7  and  C_9
REMARK    4  A    between atoms: C_18  and  C_20
REMARK    5  A    between atoms: C_23  and  O_24
REMARK    6  A    between atoms: O_24  and  C_25
REMARK                            x       y       z     vdW  Elec       q    Type
REMARK                         _______ _______ _______ _____ _____    ______ ____
ROOT
ATOM      1  C   LIG A   1      -7.395  -1.791 124.893  0.00  0.00    +0.059 C 
ATOM      2  C   LIG A   1      -6.361  -0.887 125.514  0.00  0.00    +0.113 C 
ATOM      3  O   LIG A   1      -5.681  -1.443 126.577  0.00  0.00    -0.487 OA
ATOM      4  C   LIG A   1      -6.550  -2.468 127.111  0.00  0.00    +0.207 C 
ATOM      5  C   LIG A   1      -7.517  -2.883 125.983  0.00  0.00    +0.049 C 
ATOM      6  C   LIG A   1      -8.921  -3.323 126.378  0.00  0.00    +0.013 C 
ATOM      7  C   LIG A   1      -6.209   0.404 125.192  0.00  0.00    +0.096 C 
ATOM      8  C   LIG A   1      -7.165   1.002 124.231  0.00  0.00    +0.223 C 
ATOM      9  C   LIG A   1      -8.523   0.337 124.159  0.00  0.00    +0.164 C 
ATOM     10  C   LIG A   1      -8.612  -0.958 124.520  0.00  0.00    +0.038 C 
ATOM     11  O   LIG A   1      -6.852   1.995 123.597  0.00  0.00    -0.284 OA
ENDROOT
BRANCH   4  12
ATOM     12  C   LIG A   1      -7.117  -2.062 128.462  0.00  0.00    -0.003 A 
ATOM     13  C   LIG A   1      -7.120  -3.002 129.527  0.00  0.00    +0.011 A 
ATOM     14  C   LIG A   1      -7.521  -2.641 130.820  0.00  0.00    +0.050 A 
ATOM     15  C   LIG A   1      -7.919  -1.341 131.027  0.00  0.00    +0.166 A 
ATOM     16  O   LIG A   1      -8.303  -0.801 132.214  0.00  0.00    -0.453 OA
ATOM     17  C   LIG A   1      -8.566   0.562 131.819  0.00  0.00    +0.466 C 
ATOM     18  O   LIG A   1      -8.359   0.803 130.413  0.00  0.00    -0.453 OA
ATOM     19  C   LIG A   1      -7.947  -0.427 130.001  0.00  0.00    +0.167 A 
ATOM     20  C   LIG A   1      -7.565  -0.755 128.717  0.00  0.00    +0.056 A 
ENDBRANCH   4  12
BRANCH   9  21
ATOM     21  O   LIG A   1      -9.641   0.974 123.646  0.00  0.00    -0.492 OA
ATOM     22  C   LIG A   1     -10.182   0.404 122.457  0.00  0.00    +0.277 C 
ENDBRANCH   9  21
BRANCH   1  23
ATOM     23  C   LIG A   1      -6.801  -2.421 123.584  0.00  0.00    +0.045 C 
BRANCH  23  25
ATOM     24  C   LIG A   1      -4.770  -3.911 123.716  0.00  0.00    +0.004 C 
ATOM     25  C   LIG A   1      -5.316  -2.691 123.645  0.00  0.00    -0.033 C 
ENDBRANCH  23  25
ENDBRANCH   1  23
TORSDOF 4
ENDMDL
MODEL 3
REMARK VINA RESULT:      -7.3      2.721      5.318
REMARK  Name = NuBBE_264
REMARK  6 active torsions:
REMARK  status: ('A' for Active; 'I' for Inactive)
REMARK    1  A    between atoms: C_2  and  C_3
REMARK    2  A    between atoms: C_3  and  C_4
REMARK    3  A    between atoms: C_7  and  C_9
REMARK    4  A    between atoms: C_18  and  C_20
REMARK    5  A    between atoms: C_23  and  O_24
REMARK    6  A    between atoms: O_24  and  C_25
REMARK                            x       y       z     vdW  Elec       q    Type
REMARK                         _______ _______ _______ _____ _____    ______ ____
ROOT
ATOM      1  C   LIG A   1      -8.111   2.520 123.999  0.00  0.00    +0.059 C 
ATOM      2  C   LIG A   1      -6.807   1.839 124.328  0.00  0.00    +0.113 C 
ATOM      3  O   LIG A   1      -6.701   0.548 123.852  0.00  0.00    -0.487 OA
ATOM      4  C   LIG A   1      -8.057   0.071 123.697  0.00  0.00    +0.207 C 
ATOM      5  C   LIG A   1      -8.966   1.308 123.555  0.00  0.00    +0.049 C 
ATOM      6  C   LIG A   1     -10.383   1.214 124.104  0.00  0.00    +0.013 C 
ATOM      7  C   LIG A   1      -5.883   2.354 125.148  0.00  0.00    +0.096 C 
ATOM      8  C   LIG A   1      -6.193   3.627 125.840  0.00  0.00    +0.223 C 
ATOM      9  C   LIG A   1      -7.664   3.919 126.044  0.00  0.00    +0.164 C 
ATOM     10  C   LIG A   1      -8.544   3.350 125.198  0.00  0.00    +0.038 C 
ATOM     11  O   LIG A   1      -5.288   4.338 126.243  0.00  0.00    -0.284 OA
ENDROOT
BRANCH   4  12
ATOM     12  C   LIG A   1      -8.392  -0.982 124.742  0.00  0.00    -0.003 A 
ATOM     13  C   LIG A   1      -9.027  -2.187 124.337  0.00  0.00    +0.011 A 
ATOM     14  C   LIG A   1      -9.252  -3.235 125.240  0.00  0.00    +0.050 A 
ATOM     15  C   LIG A   1      -8.838  -3.057 126.540  0.00  0.00    +0.166 A 
ATOM     16  O   LIG A   1      -8.936  -3.972 127.541  0.00  0.00    -0.453 OA
ATOM     17  C   LIG A   1      -8.328  -3.246 128.631  0.00  0.00    +0.466 C 
ATOM     18  O   LIG A   1      -7.904  -1.917 128.269  0.00  0.00    -0.453 OA
ATOM     19  C   LIG A   1      -8.248  -1.888 126.953  0.00  0.00    +0.167 A 
ATOM     20  C   LIG A   1      -8.021  -0.837 126.089  0.00  0.00    +0.056 A 
ENDBRANCH   4  12
BRANCH   9  21
ATOM     21  O   LIG A   1      -8.123   4.818 126.993  0.00  0.00    -0.492 OA
ATOM     22  C   LIG A   1      -8.089   4.360 128.342  0.00  0.00    +0.277 C 
ENDBRANCH   9  21
BRANCH   1  23
ATOM     23  C   LIG A   1      -7.891   3.481 122.780  0.00  0.00    +0.045 C 
BRANCH  23  25
ATOM     24  C   LIG A   1      -8.789   3.891 120.458  0.00  0.00    +0.004 C 
ATOM     25  C   LIG A   1      -8.725   3.143 121.566  0.00  0.00    -0.033 C 
ENDBRANCH  23  25
ENDBRANCH   1  23
TORSDOF 4
ENDMDL
MODEL 4
REMARK VINA RESULT:      -7.2      5.551      8.546
REMARK  Name = NuBBE_264
REMARK  6 active torsions:
REMARK  status: ('A' for Active; 'I' for Inactive)
REMARK    1  A    between atoms: C_2  and  C_3
REMARK    2  A    between atoms: C_3  and  C_4
REMARK    3  A    between atoms: C_7  and  C_9
REMARK    4  A    between atoms: C_18  and  C_20
REMARK    5  A    between atoms: C_23  and  O_24
REMARK    6  A    between atoms: O_24  and  C_25
REMARK                            x       y       z     vdW  Elec       q    Type
REMARK                         _______ _______ _______ _____ _____    ______ ____
ROOT
ATOM      1  C   LIG A   1      -7.833   4.494 131.575  0.00  0.00    +0.059 C 
ATOM      2  C   LIG A   1      -7.583   5.962 131.808  0.00  0.00    +0.113 C 
ATOM      3  O   LIG A   1      -8.686   6.667 132.242  0.00  0.00    -0.487 OA
ATOM      4  C   LIG A   1      -9.838   5.917 131.794  0.00  0.00    +0.207 C 
ATOM      5  C   LIG A   1      -9.380   4.460 131.577  0.00  0.00    +0.049 C 
ATOM      6  C   LIG A   1     -10.064   3.658 130.477  0.00  0.00    +0.013 C 
ATOM      7  C   LIG A   1      -6.447   6.587 131.473  0.00  0.00    +0.096 C 
ATOM      8  C   LIG A   1      -5.408   5.812 130.756  0.00  0.00    +0.223 C 
ATOM      9  C   LIG A   1      -5.908   4.627 129.958  0.00  0.00    +0.164 C 
ATOM     10  C   LIG A   1      -7.070   4.059 130.333  0.00  0.00    +0.038 C 
ATOM     11  O   LIG A   1      -4.243   6.171 130.796  0.00  0.00    -0.284 OA
ENDROOT
BRANCH   4  12
ATOM     12  C   LIG A   1     -10.564   6.642 130.671  0.00  0.00    -0.003 A 
ATOM     13  C   LIG A   1      -9.822   7.456 129.774  0.00  0.00    +0.011 A 
ATOM     14  C   LIG A   1     -10.425   8.050 128.657  0.00  0.00    +0.050 A 
ATOM     15  C   LIG A   1     -11.767   7.821 128.457  0.00  0.00    +0.166 A 
ATOM     16  O   LIG A   1     -12.509   8.280 127.415  0.00  0.00    -0.453 OA
ATOM     17  C   LIG A   1     -13.797   7.708 127.728  0.00  0.00    +0.466 C 
ATOM     18  O   LIG A   1     -13.805   6.947 128.952  0.00  0.00    -0.453 OA
ATOM     19  C   LIG A   1     -12.504   7.060 129.332  0.00  0.00    +0.167 A 
ATOM     20  C   LIG A   1     -11.939   6.468 130.443  0.00  0.00    +0.056 A 
ENDBRANCH   4  12
BRANCH   9  21
ATOM     21  O   LIG A   1      -5.174   4.052 128.934  0.00  0.00    -0.492 OA
ATOM     22  C   LIG A   1      -5.101   2.629 128.953  0.00  0.00    +0.277 C 
ENDBRANCH   9  21
BRANCH   1  23
ATOM     23  C   LIG A   1      -7.290   3.683 132.804  0.00  0.00    +0.045 C 
BRANCH  23  25
ATOM     24  C   LIG A   1      -7.920   4.641 135.051  0.00  0.00    +0.004 C 
ATOM     25  C   LIG A   1      -8.146   3.790 134.044  0.00  0.00    -0.033 C 
ENDBRANCH  23  25
ENDBRANCH   1  23
TORSDOF 4
ENDMDL
MODEL 5
REMARK VINA RESULT:      -7.1      3.191      5.035
REMARK  Name = NuBBE_264
REMARK  6 active torsions:
REMARK  status: ('A' for Active; 'I' for Inactive)
REMARK    1  A    between atoms: C_2  and  C_3
REMARK    2  A    between atoms: C_3  and  C_4
REMARK    3  A    between atoms: C_7  and  C_9
REMARK    4  A    between atoms: C_18  and  C_20
REMARK    5  A    between atoms: C_23  and  O_24
REMARK    6  A    between atoms: O_24  and  C_25
REMARK                            x       y       z     vdW  Elec       q    Type
REMARK                         _______ _______ _______ _____ _____    ______ ____
ROOT
ATOM      1  C   LIG A   1      -7.350  -1.776 125.077  0.00  0.00    +0.059 C 
ATOM      2  C   LIG A   1      -6.356  -0.736 125.528  0.00  0.00    +0.113 C 
ATOM      3  O   LIG A   1      -5.529  -1.144 126.554  0.00  0.00    -0.487 OA
ATOM      4  C   LIG A   1      -6.241  -2.199 127.241  0.00  0.00    +0.207 C 
ATOM      5  C   LIG A   1      -7.263  -2.786 126.247  0.00  0.00    +0.049 C 
ATOM      6  C   LIG A   1      -8.574  -3.319 126.810  0.00  0.00    +0.013 C 
ATOM      7  C   LIG A   1      -6.362   0.533 125.104  0.00  0.00    +0.096 C 
ATOM      8  C   LIG A   1      -7.456   0.966 124.205  0.00  0.00    +0.223 C 
ATOM      9  C   LIG A   1      -8.744   0.177 124.314  0.00  0.00    +0.164 C 
ATOM     10  C   LIG A   1      -8.671  -1.088 124.771  0.00  0.00    +0.038 C 
ATOM     11  O   LIG A   1      -7.301   1.930 123.475  0.00  0.00    -0.284 OA
ENDROOT
BRANCH   4  12
ATOM     12  C   LIG A   1      -6.716  -1.740 128.612  0.00  0.00    -0.003 A 
ATOM     13  C   LIG A   1      -7.398  -0.499 128.732  0.00  0.00    +0.011 A 
ATOM     14  C   LIG A   1      -7.957  -0.087 129.949  0.00  0.00    +0.050 A 
ATOM     15  C   LIG A   1      -7.821  -0.926 131.031  0.00  0.00    +0.166 A 
ATOM     16  O   LIG A   1      -8.328  -0.714 132.275  0.00  0.00    -0.453 OA
ATOM     17  C   LIG A   1      -7.897  -1.915 132.951  0.00  0.00    +0.466 C 
ATOM     18  O   LIG A   1      -7.129  -2.801 132.112  0.00  0.00    -0.453 OA
ATOM     19  C   LIG A   1      -7.141  -2.116 130.937  0.00  0.00    +0.167 A 
ATOM     20  C   LIG A   1      -6.574  -2.544 129.754  0.00  0.00    +0.056 A 
ENDBRANCH   4  12
BRANCH   9  21
ATOM     21  O   LIG A   1      -9.961   0.668 123.873  0.00  0.00    -0.492 OA
ATOM     22  C   LIG A   1     -10.264   0.419 122.502  0.00  0.00    +0.277 C 
ENDBRANCH   9  21
BRANCH   1  23
ATOM     23  C   LIG A   1      -6.822  -2.450 123.763  0.00  0.00    +0.045 C 
BRANCH  23  25
ATOM     24  C   LIG A   1      -4.560  -3.555 123.592  0.00  0.00    +0.004 C 
ATOM     25  C   LIG A   1      -5.836  -3.572 123.994  0.00  0.00    -0.033 C 
ENDBRANCH  23  25
ENDBRANCH   1  23
TORSDOF 4
ENDMDL
MODEL 6
REMARK VINA RESULT:      -6.7      2.967      5.115
REMARK  Name = NuBBE_264
REMARK  6 active torsions:
REMARK  status: ('A' for Active; 'I' for Inactive)
REMARK    1  A    between atoms: C_2  and  C_3
REMARK    2  A    between atoms: C_3  and  C_4
REMARK    3  A    between atoms: C_7  and  C_9
REMARK    4  A    between atoms: C_18  and  C_20
REMARK    5  A    between atoms: C_23  and  O_24
REMARK    6  A    between atoms: O_24  and  C_25
REMARK                            x       y       z     vdW  Elec       q    Type
REMARK                         _______ _______ _______ _____ _____    ______ ____
ROOT
ATOM      1  C   LIG A   1      -7.721  -0.898 126.330  0.00  0.00    +0.059 C 
ATOM      2  C   LIG A   1      -6.376  -1.188 125.713  0.00  0.00    +0.113 C 
ATOM      3  O   LIG A   1      -5.308  -1.031 126.571  0.00  0.00    -0.487 OA
ATOM      4  C   LIG A   1      -5.752  -0.106 127.591  0.00  0.00    +0.207 C 
ATOM      5  C   LIG A   1      -7.293  -0.165 127.625  0.00  0.00    +0.049 C 
ATOM      6  C   LIG A   1      -8.044   1.109 127.988  0.00  0.00    +0.013 C 
ATOM      7  C   LIG A   1      -6.190  -1.419 124.407  0.00  0.00    +0.096 C 
ATOM      8  C   LIG A   1      -7.356  -1.299 123.502  0.00  0.00    +0.223 C 
ATOM      9  C   LIG A   1      -8.465  -0.386 123.980  0.00  0.00    +0.164 C 
ATOM     10  C   LIG A   1      -8.584  -0.178 125.305  0.00  0.00    +0.038 C 
ATOM     11  O   LIG A   1      -7.358  -1.880 122.430  0.00  0.00    -0.284 OA
ENDROOT
BRANCH   4  12
ATOM     12  C   LIG A   1      -5.064   1.243 127.448  0.00  0.00    -0.003 A 
ATOM     13  C   LIG A   1      -5.088   1.907 126.193  0.00  0.00    +0.011 A 
ATOM     14  C   LIG A   1      -4.571   3.200 126.040  0.00  0.00    +0.050 A 
ATOM     15  C   LIG A   1      -4.033   3.809 127.150  0.00  0.00    +0.166 A 
ATOM     16  O   LIG A   1      -3.523   5.068 127.203  0.00  0.00    -0.453 OA
ATOM     17  C   LIG A   1      -3.149   5.151 128.594  0.00  0.00    +0.466 C 
ATOM     18  O   LIG A   1      -3.420   3.943 129.334  0.00  0.00    -0.453 OA
ATOM     19  C   LIG A   1      -3.978   3.169 128.364  0.00  0.00    +0.167 A 
ATOM     20  C   LIG A   1      -4.472   1.893 128.543  0.00  0.00    +0.056 A 
ENDBRANCH   4  12
BRANCH   9  21
ATOM     21  O   LIG A   1      -9.410   0.153 123.123  0.00  0.00    -0.492 OA
ATOM     22  C   LIG A   1      -9.998   1.380 123.550  0.00  0.00    +0.277 C 
ENDBRANCH   9  21
BRANCH   1  23
ATOM     23  C   LIG A   1      -8.415  -2.255 126.701  0.00  0.00    +0.045 C 
BRANCH  23  25
ATOM     24  C   LIG A   1      -8.690  -3.589 128.825  0.00  0.00    +0.004 C 
ATOM     25  C   LIG A   1      -7.929  -2.867 127.994  0.00  0.00    -0.033 C 
ENDBRANCH  23  25
ENDBRANCH   1  23
TORSDOF 4
ENDMDL
MODEL 7
REMARK VINA RESULT:      -6.5     10.681     14.801
REMARK  Name = NuBBE_264
REMARK  6 active torsions:
REMARK  status: ('A' for Active; 'I' for Inactive)
REMARK    1  A    between atoms: C_2  and  C_3
REMARK    2  A    between atoms: C_3  and  C_4
REMARK    3  A    between atoms: C_7  and  C_9
REMARK    4  A    between atoms: C_18  and  C_20
REMARK    5  A    between atoms: C_23  and  O_24
REMARK    6  A    between atoms: O_24  and  C_25
REMARK                            x       y       z     vdW  Elec       q    Type
REMARK                         _______ _______ _______ _____ _____    ______ ____
ROOT
ATOM      1  C   LIG A   1      -1.231  12.584 134.354  0.00  0.00    +0.059 C 
ATOM      2  C   LIG A   1      -0.638  12.444 132.975  0.00  0.00    +0.113 C 
ATOM      3  O   LIG A   1      -1.410  11.717 132.093  0.00  0.00    -0.487 OA
ATOM      4  C   LIG A   1      -2.239  10.857 132.907  0.00  0.00    +0.207 C 
ATOM      5  C   LIG A   1      -2.338  11.503 134.304  0.00  0.00    +0.049 C 
ATOM      6  C   LIG A   1      -2.465  10.578 135.507  0.00  0.00    +0.013 C 
ATOM      7  C   LIG A   1       0.601  12.836 132.653  0.00  0.00    +0.096 C 
ATOM      8  C   LIG A   1       1.471  13.361 133.730  0.00  0.00    +0.223 C 
ATOM      9  C   LIG A   1       1.147  12.877 135.128  0.00  0.00    +0.164 C 
ATOM     10  C   LIG A   1      -0.113  12.474 135.380  0.00  0.00    +0.038 C 
ATOM     11  O   LIG A   1       2.405  14.095 133.457  0.00  0.00    -0.284 OA
ENDROOT
BRANCH   4  12
ATOM     12  C   LIG A   1      -1.807   9.403 132.790  0.00  0.00    -0.003 A 
ATOM     13  C   LIG A   1      -0.508   9.027 133.227  0.00  0.00    +0.011 A 
ATOM     14  C   LIG A   1      -0.105   7.685 133.249  0.00  0.00    +0.050 A 
ATOM     15  C   LIG A   1      -1.011   6.739 132.829  0.00  0.00    +0.166 A 
ATOM     16  O   LIG A   1      -0.813   5.393 132.817  0.00  0.00    -0.453 OA
ATOM     17  C   LIG A   1      -2.088   4.937 132.316  0.00  0.00    +0.466 C 
ATOM     18  O   LIG A   1      -3.005   6.009 132.020  0.00  0.00    -0.453 OA
ATOM     19  C   LIG A   1      -2.260   7.089 132.379  0.00  0.00    +0.167 A 
ATOM     20  C   LIG A   1      -2.682   8.403 132.339  0.00  0.00    +0.056 A 
ENDBRANCH   4  12
BRANCH   9  21
ATOM     21  O   LIG A   1       2.061  12.928 136.167  0.00  0.00    -0.492 OA
ATOM     22  C   LIG A   1       3.132  11.991 136.092  0.00  0.00    +0.277 C 
ENDBRANCH   9  21
BRANCH   1  23
ATOM     23  C   LIG A   1      -1.889  14.003 134.483  0.00  0.00    +0.045 C 
BRANCH  23  25
ATOM     24  C   LIG A   1      -3.185  15.636 133.062  0.00  0.00    +0.004 C 
ATOM     25  C   LIG A   1      -2.759  14.392 133.310  0.00  0.00    -0.033 C 
ENDBRANCH  23  25
ENDBRANCH   1  23
TORSDOF 4
ENDMDL
MODEL 8
REMARK VINA RESULT:      -6.5      2.434      3.368
REMARK  Name = NuBBE_264
REMARK  6 active torsions:
REMARK  status: ('A' for Active; 'I' for Inactive)
REMARK    1  A    between atoms: C_2  and  C_3
REMARK    2  A    between atoms: C_3  and  C_4
REMARK    3  A    between atoms: C_7  and  C_9
REMARK    4  A    between atoms: C_18  and  C_20
REMARK    5  A    between atoms: C_23  and  O_24
REMARK    6  A    between atoms: O_24  and  C_25
REMARK                            x       y       z     vdW  Elec       q    Type
REMARK                         _______ _______ _______ _____ _____    ______ ____
ROOT
ATOM      1  C   LIG A   1      -7.096   0.530 124.613  0.00  0.00    +0.059 C 
ATOM      2  C   LIG A   1      -8.451  -0.040 124.948  0.00  0.00    +0.113 C 
ATOM      3  O   LIG A   1      -9.079   0.571 126.014  0.00  0.00    -0.487 OA
ATOM      4  C   LIG A   1      -8.026   1.158 126.811  0.00  0.00    +0.207 C 
ATOM      5  C   LIG A   1      -6.809   1.361 125.886  0.00  0.00    +0.049 C 
ATOM      6  C   LIG A   1      -5.421   1.239 126.502  0.00  0.00    +0.013 C 
ATOM      7  C   LIG A   1      -8.954  -1.146 124.387  0.00  0.00    +0.096 C 
ATOM      8  C   LIG A   1      -8.099  -1.904 123.445  0.00  0.00    +0.223 C 
ATOM      9  C   LIG A   1      -6.607  -1.740 123.639  0.00  0.00    +0.164 C 
ATOM     10  C   LIG A   1      -6.167  -0.613 124.231  0.00  0.00    +0.038 C 
ATOM     11  O   LIG A   1      -8.607  -2.637 122.614  0.00  0.00    -0.284 OA
ENDROOT
BRANCH   4  12
ATOM     12  C   LIG A   1      -7.845   0.408 128.122  0.00  0.00    -0.003 A 
ATOM     13  C   LIG A   1      -8.088   1.082 129.349  0.00  0.00    +0.011 A 
ATOM     14  C   LIG A   1      -8.050   0.406 130.575  0.00  0.00    +0.050 A 
ATOM     15  C   LIG A   1      -7.764  -0.939 130.555  0.00  0.00    +0.166 A 
ATOM     16  O   LIG A   1      -7.721  -1.764 131.635  0.00  0.00    -0.453 OA
ATOM     17  C   LIG A   1      -7.410  -3.023 131.002  0.00  0.00    +0.466 C 
ATOM     18  O   LIG A   1      -7.252  -2.923 129.572  0.00  0.00    -0.453 OA
ATOM     19  C   LIG A   1      -7.500  -1.600 129.380  0.00  0.00    +0.167 A 
ATOM     20  C   LIG A   1      -7.523  -0.959 128.158  0.00  0.00    +0.056 A 
ENDBRANCH   4  12
BRANCH   9  21
ATOM     21  O   LIG A   1      -5.684  -2.647 123.145  0.00  0.00    -0.492 OA
ATOM     22  C   LIG A   1      -5.112  -3.529 124.107  0.00  0.00    +0.277 C 
ENDBRANCH   9  21
BRANCH   1  23
ATOM     23  C   LIG A   1      -7.238   1.490 123.381  0.00  0.00    +0.045 C 
BRANCH  23  25
ATOM     24  C   LIG A   1      -6.082   3.698 122.984  0.00  0.00    +0.004 C 
ATOM     25  C   LIG A   1      -6.932   2.939 123.685  0.00  0.00    -0.033 C 
ENDBRANCH  23  25
ENDBRANCH   1  23
TORSDOF 4
ENDMDL
MODEL 9
REMARK VINA RESULT:      -6.5      2.341      6.655
REMARK  Name = NuBBE_264
REMARK  6 active torsions:
REMARK  status: ('A' for Active; 'I' for Inactive)
REMARK    1  A    between atoms: C_2  and  C_3
REMARK    2  A    between atoms: C_3  and  C_4
REMARK    3  A    between atoms: C_7  and  C_9
REMARK    4  A    between atoms: C_18  and  C_20
REMARK    5  A    between atoms: C_23  and  O_24
REMARK    6  A    between atoms: O_24  and  C_25
REMARK                            x       y       z     vdW  Elec       q    Type
REMARK                         _______ _______ _______ _____ _____    ______ ____
ROOT
ATOM      1  C   LIG A   1      -5.128   2.939 127.345  0.00  0.00    +0.059 C 
ATOM      2  C   LIG A   1      -5.236   1.774 128.297  0.00  0.00    +0.113 C 
ATOM      3  O   LIG A   1      -4.916   0.553 127.741  0.00  0.00    -0.487 OA
ATOM      4  C   LIG A   1      -5.134   0.694 126.319  0.00  0.00    +0.207 C 
ATOM      5  C   LIG A   1      -5.047   2.198 125.989  0.00  0.00    +0.049 C 
ATOM      6  C   LIG A   1      -5.911   2.726 124.851  0.00  0.00    +0.013 C 
ATOM      7  C   LIG A   1      -5.753   1.863 129.528  0.00  0.00    +0.096 C 
ATOM      8  C   LIG A   1      -6.329   3.160 129.953  0.00  0.00    +0.223 C 
ATOM      9  C   LIG A   1      -6.824   4.053 128.836  0.00  0.00    +0.164 C 
ATOM     10  C   LIG A   1      -6.279   3.897 127.614  0.00  0.00    +0.038 C 
ATOM     11  O   LIG A   1      -6.424   3.426 131.139  0.00  0.00    -0.284 OA
ENDROOT
BRANCH   4  12
ATOM     12  C   LIG A   1      -6.353  -0.096 125.868  0.00  0.00    -0.003 A 
ATOM     13  C   LIG A   1      -7.620   0.188 126.445  0.00  0.00    +0.011 A 
ATOM     14  C   LIG A   1      -8.790  -0.428 125.982  0.00  0.00    +0.050 A 
ATOM     15  C   LIG A   1      -8.672  -1.325 124.946  0.00  0.00    +0.166 A 
ATOM     16  O   LIG A   1      -9.695  -1.988 124.343  0.00  0.00    -0.453 OA
ATOM     17  C   LIG A   1      -8.977  -2.739 123.340  0.00  0.00    +0.466 C 
ATOM     18  O   LIG A   1      -7.551  -2.530 123.379  0.00  0.00    -0.453 OA
ATOM     19  C   LIG A   1      -7.451  -1.631 124.395  0.00  0.00    +0.167 A 
ATOM     20  C   LIG A   1      -6.282  -1.046 124.836  0.00  0.00    +0.056 A 
ENDBRANCH   4  12
BRANCH   9  21
ATOM     21  O   LIG A   1      -7.730   5.080 129.045  0.00  0.00    -0.492 OA
ATOM     22  C   LIG A   1      -8.975   4.694 129.622  0.00  0.00    +0.277 C 
ENDBRANCH   9  21
BRANCH   1  23
ATOM     23  C   LIG A   1      -3.779   3.692 127.613  0.00  0.00    +0.045 C 
BRANCH  23  25
ATOM     24  C   LIG A   1      -1.522   2.989 126.731  0.00  0.00    +0.004 C 
ATOM     25  C   LIG A   1      -2.740   3.506 126.531  0.00  0.00    -0.033 C 
ENDBRANCH  23  25
ENDBRANCH   1  23
TORSDOF 4
ENDMDL
