MODEL 1
REMARK VINA RESULT:      -7.7      0.000      0.000
REMARK  Name = NuBBE_249
REMARK  12 active torsions:
REMARK  status: ('A' for Active; 'I' for Inactive)
REMARK    1  A    between atoms: O_1  and  C_2
REMARK    2  A    between atoms: C_2  and  C_3
REMARK    3  A    between atoms: C_5  and  C_6
REMARK    4  A    between atoms: C_6  and  C_7
REMARK    5  A    between atoms: C_8  and  C_9
REMARK    6  A    between atoms: C_8  and  C_10
REMARK    7  A    between atoms: C_13  and  C_14
REMARK    8  A    between atoms: C_13  and  C_20
REMARK    9  A    between atoms: C_14  and  C_15
REMARK   10  A    between atoms: C_15  and  C_16
REMARK   11  A    between atoms: C_17  and  C_18
REMARK   12  A    between atoms: C_17  and  C_19
REMARK                            x       y       z     vdW  Elec       q    Type
REMARK                         _______ _______ _______ _____ _____    ______ ____
ROOT
ATOM      1  C   LIG A   1      -5.827   3.472 125.207  0.00  0.00    +0.060 A 
ATOM      2  C   LIG A   1      -5.744   3.474 123.809  0.00  0.00    +0.022 A 
ATOM      3  C   LIG A   1      -6.564   2.626 123.041  0.00  0.00    -0.001 A 
ATOM      4  C   LIG A   1      -7.498   1.802 123.700  0.00  0.00    +0.132 A 
ATOM      5  O   LIG A   1      -8.260   0.985 122.912  0.00  0.00    -0.481 OA
ATOM      6  C   LIG A   1      -9.242   0.115 123.517  0.00  0.00    +0.127 C 
ATOM      7  C   LIG A   1     -10.576   0.506 122.863  0.00  0.00    +0.060 C 
ATOM      8  C   LIG A   1      -9.393   0.239 125.016  0.00  0.00    +0.021 C 
ATOM      9  C   LIG A   1      -8.626   1.032 125.767  0.00  0.00    +0.011 C 
ATOM     10  C   LIG A   1      -7.617   1.836 125.096  0.00  0.00    +0.018 A 
ATOM     11  C   LIG A   1      -6.775   2.665 125.846  0.00  0.00    +0.026 A 
ENDROOT
BRANCH   1  12
ATOM     12  C   LIG A   1      -4.973   4.340 126.059  0.00  0.00    +0.337 C 
ATOM     13  O   LIG A   1      -5.422   5.238 126.746  0.00  0.00    -0.245 OA
BRANCH  12  14
ATOM     14  O   LIG A   1      -3.662   4.013 126.043  0.00  0.00    -0.477 OA
ATOM     15  H   LIG A   1      -3.088   4.611 125.532  0.00  0.00    +0.295 HD
ENDBRANCH  12  14
ENDBRANCH   1  12
BRANCH   3  16
ATOM     16  C   LIG A   1      -6.440   2.643 121.529  0.00  0.00    +0.066 C 
BRANCH  16  17
ATOM     17  C   LIG A   1      -5.769   3.887 121.007  0.00  0.00    -0.023 C 
ATOM     18  C   LIG A   1      -6.099   4.634 119.933  0.00  0.00    -0.079 C 
ATOM     19  C   LIG A   1      -7.263   4.378 119.016  0.00  0.00    +0.038 C 
ATOM     20  C   LIG A   1      -5.278   5.844 119.558  0.00  0.00    +0.038 C 
ENDBRANCH  16  17
ENDBRANCH   3  16
BRANCH   6  21
ATOM     21  C   LIG A   1      -8.877  -1.343 123.140  0.00  0.00    +0.056 C 
BRANCH  21  22
ATOM     22  C   LIG A   1      -8.525  -2.222 124.355  0.00  0.00    +0.031 C 
BRANCH  22  23
ATOM     23  C   LIG A   1      -7.288  -3.050 124.113  0.00  0.00    -0.028 C 
ATOM     24  C   LIG A   1      -6.000  -2.700 124.305  0.00  0.00    -0.080 C 
ATOM     25  C   LIG A   1      -5.518  -1.361 124.793  0.00  0.00    +0.038 C 
ATOM     26  C   LIG A   1      -4.889  -3.683 124.034  0.00  0.00    +0.038 C 
ENDBRANCH  22  23
ENDBRANCH  21  22
ENDBRANCH   6  21
TORSDOF 7
ENDMDL
MODEL 2
REMARK VINA RESULT:      -7.6      4.157      7.148
REMARK  Name = NuBBE_249
REMARK  12 active torsions:
REMARK  status: ('A' for Active; 'I' for Inactive)
REMARK    1  A    between atoms: O_1  and  C_2
REMARK    2  A    between atoms: C_2  and  C_3
REMARK    3  A    between atoms: C_5  and  C_6
REMARK    4  A    between atoms: C_6  and  C_7
REMARK    5  A    between atoms: C_8  and  C_9
REMARK    6  A    between atoms: C_8  and  C_10
REMARK    7  A    between atoms: C_13  and  C_14
REMARK    8  A    between atoms: C_13  and  C_20
REMARK    9  A    between atoms: C_14  and  C_15
REMARK   10  A    between atoms: C_15  and  C_16
REMARK   11  A    between atoms: C_17  and  C_18
REMARK   12  A    between atoms: C_17  and  C_19
REMARK                            x       y       z     vdW  Elec       q    Type
REMARK                         _______ _______ _______ _____ _____    ______ ____
ROOT
ATOM      1  C   LIG A   1      -8.615  -2.256 124.793  0.00  0.00    +0.060 A 
ATOM      2  C   LIG A   1      -7.383  -1.590 124.762  0.00  0.00    +0.022 A 
ATOM      3  C   LIG A   1      -6.590  -1.497 125.920  0.00  0.00    -0.001 A 
ATOM      4  C   LIG A   1      -7.036  -2.118 127.103  0.00  0.00    +0.132 A 
ATOM      5  O   LIG A   1      -6.238  -1.986 128.206  0.00  0.00    -0.481 OA
ATOM      6  C   LIG A   1      -6.629  -2.599 129.454  0.00  0.00    +0.127 C 
ATOM      7  C   LIG A   1      -5.463  -3.530 129.821  0.00  0.00    +0.060 C 
ATOM      8  C   LIG A   1      -7.898  -3.420 129.412  0.00  0.00    +0.021 C 
ATOM      9  C   LIG A   1      -8.670  -3.520 128.328  0.00  0.00    +0.011 C 
ATOM     10  C   LIG A   1      -8.244  -2.827 127.123  0.00  0.00    +0.018 A 
ATOM     11  C   LIG A   1      -9.035  -2.887 125.970  0.00  0.00    +0.026 A 
ENDROOT
BRANCH   1  12
ATOM     12  C   LIG A   1      -9.493  -2.368 123.598  0.00  0.00    +0.337 C 
ATOM     13  O   LIG A   1      -9.632  -1.466 122.795  0.00  0.00    -0.245 OA
BRANCH  12  14
ATOM     14  O   LIG A   1     -10.081  -3.576 123.457  0.00  0.00    -0.477 OA
ATOM     15  H   LIG A   1     -10.870  -3.594 122.886  0.00  0.00    +0.295 HD
ENDBRANCH  12  14
ENDBRANCH   1  12
BRANCH   3  16
ATOM     16  C   LIG A   1      -5.266  -0.757 125.856  0.00  0.00    +0.066 C 
BRANCH  16  17
ATOM     17  C   LIG A   1      -5.428   0.741 125.870  0.00  0.00    -0.023 C 
ATOM     18  C   LIG A   1      -5.231   1.599 126.892  0.00  0.00    -0.079 C 
ATOM     19  C   LIG A   1      -4.767   1.222 128.272  0.00  0.00    +0.038 C 
ATOM     20  C   LIG A   1      -5.473   3.078 126.710  0.00  0.00    +0.038 C 
ENDBRANCH  16  17
ENDBRANCH   3  16
BRANCH   6  21
ATOM     21  C   LIG A   1      -6.760  -1.474 130.512  0.00  0.00    +0.056 C 
BRANCH  21  22
ATOM     22  C   LIG A   1      -8.138  -0.786 130.510  0.00  0.00    +0.031 C 
BRANCH  22  23
ATOM     23  C   LIG A   1      -8.019   0.714 130.413  0.00  0.00    -0.028 C 
ATOM     24  C   LIG A   1      -8.202   1.496 129.330  0.00  0.00    -0.080 C 
ATOM     25  C   LIG A   1      -8.550   1.015 127.948  0.00  0.00    +0.038 C 
ATOM     26  C   LIG A   1      -8.068   2.995 129.434  0.00  0.00    +0.038 C 
ENDBRANCH  22  23
ENDBRANCH  21  22
ENDBRANCH   6  21
TORSDOF 7
ENDMDL
MODEL 3
REMARK VINA RESULT:      -7.5      2.136      6.886
REMARK  Name = NuBBE_249
REMARK  12 active torsions:
REMARK  status: ('A' for Active; 'I' for Inactive)
REMARK    1  A    between atoms: O_1  and  C_2
REMARK    2  A    between atoms: C_2  and  C_3
REMARK    3  A    between atoms: C_5  and  C_6
REMARK    4  A    between atoms: C_6  and  C_7
REMARK    5  A    between atoms: C_8  and  C_9
REMARK    6  A    between atoms: C_8  and  C_10
REMARK    7  A    between atoms: C_13  and  C_14
REMARK    8  A    between atoms: C_13  and  C_20
REMARK    9  A    between atoms: C_14  and  C_15
REMARK   10  A    between atoms: C_15  and  C_16
REMARK   11  A    between atoms: C_17  and  C_18
REMARK   12  A    between atoms: C_17  and  C_19
REMARK                            x       y       z     vdW  Elec       q    Type
REMARK                         _______ _______ _______ _____ _____    ______ ____
ROOT
ATOM      1  C   LIG A   1      -8.278  -1.682 124.098  0.00  0.00    +0.060 A 
ATOM      2  C   LIG A   1      -7.110  -1.533 124.856  0.00  0.00    +0.022 A 
ATOM      3  C   LIG A   1      -6.498  -0.272 124.987  0.00  0.00    -0.001 A 
ATOM      4  C   LIG A   1      -7.100   0.844 124.375  0.00  0.00    +0.132 A 
ATOM      5  O   LIG A   1      -6.459   2.044 124.518  0.00  0.00    -0.481 OA
ATOM      6  C   LIG A   1      -7.020   3.234 123.921  0.00  0.00    +0.127 C 
ATOM      7  C   LIG A   1      -7.215   4.210 125.092  0.00  0.00    +0.060 C 
ATOM      8  C   LIG A   1      -8.349   3.055 123.225  0.00  0.00    +0.021 C 
ATOM      9  C   LIG A   1      -8.948   1.870 123.084  0.00  0.00    +0.011 C 
ATOM     10  C   LIG A   1      -8.296   0.705 123.659  0.00  0.00    +0.018 A 
ATOM     11  C   LIG A   1      -8.877  -0.560 123.515  0.00  0.00    +0.026 A 
ENDROOT
BRANCH   1  12
ATOM     12  C   LIG A   1      -8.953  -2.995 123.921  0.00  0.00    +0.337 C 
ATOM     13  O   LIG A   1      -8.504  -4.033 124.368  0.00  0.00    -0.245 OA
BRANCH  12  14
ATOM     14  O   LIG A   1     -10.132  -2.926 123.264  0.00  0.00    -0.477 OA
ATOM     15  H   LIG A   1     -10.149  -3.351 122.388  0.00  0.00    +0.295 HD
ENDBRANCH  12  14
ENDBRANCH   1  12
BRANCH   3  16
ATOM     16  C   LIG A   1      -5.225  -0.147 125.804  0.00  0.00    +0.066 C 
BRANCH  16  17
ATOM     17  C   LIG A   1      -5.467   0.385 127.193  0.00  0.00    -0.023 C 
ATOM     18  C   LIG A   1      -5.016   1.529 127.746  0.00  0.00    -0.079 C 
ATOM     19  C   LIG A   1      -4.167   2.559 127.053  0.00  0.00    +0.038 C 
ATOM     20  C   LIG A   1      -5.352   1.875 129.176  0.00  0.00    +0.038 C 
ENDBRANCH  16  17
ENDBRANCH   3  16
BRANCH   6  21
ATOM     21  C   LIG A   1      -5.974   3.802 122.929  0.00  0.00    +0.056 C 
BRANCH  21  22
ATOM     22  C   LIG A   1      -5.991   3.108 121.554  0.00  0.00    +0.031 C 
BRANCH  22  23
ATOM     23  C   LIG A   1      -5.689   4.070 120.433  0.00  0.00    -0.028 C 
ATOM     24  C   LIG A   1      -6.539   4.577 119.517  0.00  0.00    -0.080 C 
ATOM     25  C   LIG A   1      -8.005   4.255 119.408  0.00  0.00    +0.038 C 
ATOM     26  C   LIG A   1      -6.055   5.560 118.481  0.00  0.00    +0.038 C 
ENDBRANCH  22  23
ENDBRANCH  21  22
ENDBRANCH   6  21
TORSDOF 7
ENDMDL
MODEL 4
REMARK VINA RESULT:      -7.4      4.110      6.379
REMARK  Name = NuBBE_249
REMARK  12 active torsions:
REMARK  status: ('A' for Active; 'I' for Inactive)
REMARK    1  A    between atoms: O_1  and  C_2
REMARK    2  A    between atoms: C_2  and  C_3
REMARK    3  A    between atoms: C_5  and  C_6
REMARK    4  A    between atoms: C_6  and  C_7
REMARK    5  A    between atoms: C_8  and  C_9
REMARK    6  A    between atoms: C_8  and  C_10
REMARK    7  A    between atoms: C_13  and  C_14
REMARK    8  A    between atoms: C_13  and  C_20
REMARK    9  A    between atoms: C_14  and  C_15
REMARK   10  A    between atoms: C_15  and  C_16
REMARK   11  A    between atoms: C_17  and  C_18
REMARK   12  A    between atoms: C_17  and  C_19
REMARK                            x       y       z     vdW  Elec       q    Type
REMARK                         _______ _______ _______ _____ _____    ______ ____
ROOT
ATOM      1  C   LIG A   1      -8.753   1.071 124.933  0.00  0.00    +0.060 A 
ATOM      2  C   LIG A   1      -8.723  -0.190 124.324  0.00  0.00    +0.022 A 
ATOM      3  C   LIG A   1      -8.358  -1.333 125.060  0.00  0.00    -0.001 A 
ATOM      4  C   LIG A   1      -8.060  -1.194 126.430  0.00  0.00    +0.132 A 
ATOM      5  O   LIG A   1      -7.696  -2.330 127.098  0.00  0.00    -0.481 OA
ATOM      6  C   LIG A   1      -7.380  -2.266 128.505  0.00  0.00    +0.127 C 
ATOM      7  C   LIG A   1      -8.350  -3.251 129.176  0.00  0.00    +0.060 C 
ATOM      8  C   LIG A   1      -7.552  -0.912 129.156  0.00  0.00    +0.021 C 
ATOM      9  C   LIG A   1      -7.893   0.187 128.479  0.00  0.00    +0.011 C 
ATOM     10  C   LIG A   1      -8.138   0.059 127.052  0.00  0.00    +0.018 A 
ATOM     11  C   LIG A   1      -8.476   1.189 126.300  0.00  0.00    +0.026 A 
ENDROOT
BRANCH   1  12
ATOM     12  C   LIG A   1      -9.120   2.307 124.193  0.00  0.00    +0.337 C 
ATOM     13  O   LIG A   1      -9.371   2.313 123.003  0.00  0.00    -0.245 OA
BRANCH  12  14
ATOM     14  O   LIG A   1      -9.199   3.411 124.967  0.00  0.00    -0.477 OA
ATOM     15  H   LIG A   1     -10.095   3.768 125.098  0.00  0.00    +0.295 HD
ENDBRANCH  12  14
ENDBRANCH   1  12
BRANCH   3  16
ATOM     16  C   LIG A   1      -8.323  -2.682 124.367  0.00  0.00    +0.066 C 
BRANCH  16  17
ATOM     17  C   LIG A   1      -6.947  -3.294 124.339  0.00  0.00    -0.023 C 
ATOM     18  C   LIG A   1      -5.918  -3.017 123.511  0.00  0.00    -0.079 C 
ATOM     19  C   LIG A   1      -5.931  -1.982 122.420  0.00  0.00    +0.038 C 
ATOM     20  C   LIG A   1      -4.613  -3.765 123.630  0.00  0.00    +0.038 C 
ENDBRANCH  16  17
ENDBRANCH   3  16
BRANCH   6  21
ATOM     21  C   LIG A   1      -5.921  -2.758 128.685  0.00  0.00    +0.056 C 
BRANCH  21  22
ATOM     22  C   LIG A   1      -5.299  -2.358 130.036  0.00  0.00    +0.031 C 
BRANCH  22  23
ATOM     23  C   LIG A   1      -5.108  -3.546 130.943  0.00  0.00    -0.028 C 
ATOM     24  C   LIG A   1      -5.832  -3.894 132.025  0.00  0.00    -0.080 C 
ATOM     25  C   LIG A   1      -7.002  -3.128 132.582  0.00  0.00    +0.038 C 
ATOM     26  C   LIG A   1      -5.506  -5.148 132.797  0.00  0.00    +0.038 C 
ENDBRANCH  22  23
ENDBRANCH  21  22
ENDBRANCH   6  21
TORSDOF 7
ENDMDL
MODEL 5
REMARK VINA RESULT:      -7.3      3.048      7.411
REMARK  Name = NuBBE_249
REMARK  12 active torsions:
REMARK  status: ('A' for Active; 'I' for Inactive)
REMARK    1  A    between atoms: O_1  and  C_2
REMARK    2  A    between atoms: C_2  and  C_3
REMARK    3  A    between atoms: C_5  and  C_6
REMARK    4  A    between atoms: C_6  and  C_7
REMARK    5  A    between atoms: C_8  and  C_9
REMARK    6  A    between atoms: C_8  and  C_10
REMARK    7  A    between atoms: C_13  and  C_14
REMARK    8  A    between atoms: C_13  and  C_20
REMARK    9  A    between atoms: C_14  and  C_15
REMARK   10  A    between atoms: C_15  and  C_16
REMARK   11  A    between atoms: C_17  and  C_18
REMARK   12  A    between atoms: C_17  and  C_19
REMARK                            x       y       z     vdW  Elec       q    Type
REMARK                         _______ _______ _______ _____ _____    ______ ____
ROOT
ATOM      1  C   LIG A   1      -5.207  -3.337 124.221  0.00  0.00    +0.060 A 
ATOM      2  C   LIG A   1      -5.013  -2.818 125.508  0.00  0.00    +0.022 A 
ATOM      3  C   LIG A   1      -5.772  -1.723 125.960  0.00  0.00    -0.001 A 
ATOM      4  C   LIG A   1      -6.757  -1.180 125.113  0.00  0.00    +0.132 A 
ATOM      5  O   LIG A   1      -7.457  -0.108 125.592  0.00  0.00    -0.481 OA
ATOM      6  C   LIG A   1      -8.485   0.500 124.780  0.00  0.00    +0.127 C 
ATOM      7  C   LIG A   1      -9.762   0.418 125.631  0.00  0.00    +0.060 C 
ATOM      8  C   LIG A   1      -8.755  -0.171 123.452  0.00  0.00    +0.021 C 
ATOM      9  C   LIG A   1      -8.048  -1.208 122.998  0.00  0.00    +0.011 C 
ATOM     10  C   LIG A   1      -6.986  -1.730 123.844  0.00  0.00    +0.018 A 
ATOM     11  C   LIG A   1      -6.205  -2.801 123.399  0.00  0.00    +0.026 A 
ENDROOT
BRANCH   1  12
ATOM     12  C   LIG A   1      -4.420  -4.484 123.695  0.00  0.00    +0.337 C 
ATOM     13  O   LIG A   1      -3.253  -4.389 123.370  0.00  0.00    -0.245 OA
BRANCH  12  14
ATOM     14  O   LIG A   1      -5.102  -5.650 123.657  0.00  0.00    -0.477 OA
ATOM     15  H   LIG A   1      -4.558  -6.455 123.725  0.00  0.00    +0.295 HD
ENDBRANCH  12  14
ENDBRANCH   1  12
BRANCH   3  16
ATOM     16  C   LIG A   1      -5.527  -1.177 127.355  0.00  0.00    +0.066 C 
BRANCH  16  17
ATOM     17  C   LIG A   1      -5.489  -2.252 128.410  0.00  0.00    -0.023 C 
ATOM     18  C   LIG A   1      -6.522  -2.881 129.008  0.00  0.00    -0.079 C 
ATOM     19  C   LIG A   1      -7.978  -2.644 128.713  0.00  0.00    +0.038 C 
ATOM     20  C   LIG A   1      -6.275  -3.924 130.070  0.00  0.00    +0.038 C 
ENDBRANCH  16  17
ENDBRANCH   3  16
BRANCH   6  21
ATOM     21  C   LIG A   1      -8.096   1.983 124.554  0.00  0.00    +0.056 C 
BRANCH  21  22
ATOM     22  C   LIG A   1      -6.717   2.162 123.891  0.00  0.00    +0.031 C 
BRANCH  22  23
ATOM     23  C   LIG A   1      -6.834   2.656 122.472  0.00  0.00    -0.028 C 
ATOM     24  C   LIG A   1      -6.124   3.629 121.867  0.00  0.00    -0.080 C 
ATOM     25  C   LIG A   1      -5.053   4.466 122.512  0.00  0.00    +0.038 C 
ATOM     26  C   LIG A   1      -6.364   3.966 120.416  0.00  0.00    +0.038 C 
ENDBRANCH  22  23
ENDBRANCH  21  22
ENDBRANCH   6  21
TORSDOF 7
ENDMDL
MODEL 6
REMARK VINA RESULT:      -7.3      2.366      4.945
REMARK  Name = NuBBE_249
REMARK  12 active torsions:
REMARK  status: ('A' for Active; 'I' for Inactive)
REMARK    1  A    between atoms: O_1  and  C_2
REMARK    2  A    between atoms: C_2  and  C_3
REMARK    3  A    between atoms: C_5  and  C_6
REMARK    4  A    between atoms: C_6  and  C_7
REMARK    5  A    between atoms: C_8  and  C_9
REMARK    6  A    between atoms: C_8  and  C_10
REMARK    7  A    between atoms: C_13  and  C_14
REMARK    8  A    between atoms: C_13  and  C_20
REMARK    9  A    between atoms: C_14  and  C_15
REMARK   10  A    between atoms: C_15  and  C_16
REMARK   11  A    between atoms: C_17  and  C_18
REMARK   12  A    between atoms: C_17  and  C_19
REMARK                            x       y       z     vdW  Elec       q    Type
REMARK                         _______ _______ _______ _____ _____    ______ ____
ROOT
ATOM      1  C   LIG A   1      -5.652   4.054 122.201  0.00  0.00    +0.060 A 
ATOM      2  C   LIG A   1      -6.401   2.876 122.084  0.00  0.00    +0.022 A 
ATOM      3  C   LIG A   1      -6.754   2.135 123.227  0.00  0.00    -0.001 A 
ATOM      4  C   LIG A   1      -6.376   2.617 124.495  0.00  0.00    +0.132 A 
ATOM      5  O   LIG A   1      -6.728   1.855 125.574  0.00  0.00    -0.481 OA
ATOM      6  C   LIG A   1      -6.378   2.288 126.906  0.00  0.00    +0.127 C 
ATOM      7  C   LIG A   1      -7.714   2.379 127.658  0.00  0.00    +0.060 C 
ATOM      8  C   LIG A   1      -5.687   3.630 127.000  0.00  0.00    +0.021 C 
ATOM      9  C   LIG A   1      -5.338   4.349 125.931  0.00  0.00    +0.011 C 
ATOM     10  C   LIG A   1      -5.670   3.822 124.617  0.00  0.00    +0.018 A 
ATOM     11  C   LIG A   1      -5.303   4.533 123.469  0.00  0.00    +0.026 A 
ENDROOT
BRANCH   1  12
ATOM     12  C   LIG A   1      -5.245   4.863 121.022  0.00  0.00    +0.337 C 
ATOM     13  O   LIG A   1      -4.475   5.801 121.099  0.00  0.00    -0.245 OA
BRANCH  12  14
ATOM     14  O   LIG A   1      -5.765   4.433 119.851  0.00  0.00    -0.477 OA
ATOM     15  H   LIG A   1      -5.549   4.976 119.073  0.00  0.00    +0.295 HD
ENDBRANCH  12  14
ENDBRANCH   1  12
BRANCH   3  16
ATOM     16  C   LIG A   1      -7.554   0.856 123.064  0.00  0.00    +0.066 C 
BRANCH  16  17
ATOM     17  C   LIG A   1      -6.723  -0.387 123.256  0.00  0.00    -0.023 C 
ATOM     18  C   LIG A   1      -7.108  -1.677 123.177  0.00  0.00    -0.079 C 
ATOM     19  C   LIG A   1      -8.494  -2.156 122.846  0.00  0.00    +0.038 C 
ATOM     20  C   LIG A   1      -6.119  -2.790 123.429  0.00  0.00    +0.038 C 
ENDBRANCH  16  17
ENDBRANCH   3  16
BRANCH   6  21
ATOM     21  C   LIG A   1      -5.488   1.189 127.542  0.00  0.00    +0.056 C 
BRANCH  21  22
ATOM     22  C   LIG A   1      -5.443  -0.115 126.723  0.00  0.00    +0.031 C 
BRANCH  22  23
ATOM     23  C   LIG A   1      -6.122  -1.254 127.440  0.00  0.00    -0.028 C 
ATOM     24  C   LIG A   1      -7.402  -1.664 127.329  0.00  0.00    -0.080 C 
ATOM     25  C   LIG A   1      -8.454  -1.033 126.457  0.00  0.00    +0.038 C 
ATOM     26  C   LIG A   1      -7.898  -2.855 128.111  0.00  0.00    +0.038 C 
ENDBRANCH  22  23
ENDBRANCH  21  22
ENDBRANCH   6  21
TORSDOF 7
ENDMDL
MODEL 7
REMARK VINA RESULT:      -7.2      2.601      6.189
REMARK  Name = NuBBE_249
REMARK  12 active torsions:
REMARK  status: ('A' for Active; 'I' for Inactive)
REMARK    1  A    between atoms: O_1  and  C_2
REMARK    2  A    between atoms: C_2  and  C_3
REMARK    3  A    between atoms: C_5  and  C_6
REMARK    4  A    between atoms: C_6  and  C_7
REMARK    5  A    between atoms: C_8  and  C_9
REMARK    6  A    between atoms: C_8  and  C_10
REMARK    7  A    between atoms: C_13  and  C_14
REMARK    8  A    between atoms: C_13  and  C_20
REMARK    9  A    between atoms: C_14  and  C_15
REMARK   10  A    between atoms: C_15  and  C_16
REMARK   11  A    between atoms: C_17  and  C_18
REMARK   12  A    between atoms: C_17  and  C_19
REMARK                            x       y       z     vdW  Elec       q    Type
REMARK                         _______ _______ _______ _____ _____    ______ ____
ROOT
ATOM      1  C   LIG A   1      -9.195   1.684 123.777  0.00  0.00    +0.060 A 
ATOM      2  C   LIG A   1      -8.332   2.301 122.861  0.00  0.00    +0.022 A 
ATOM      3  C   LIG A   1      -7.103   2.838 123.286  0.00  0.00    -0.001 A 
ATOM      4  C   LIG A   1      -6.736   2.714 124.639  0.00  0.00    +0.132 A 
ATOM      5  O   LIG A   1      -5.539   3.266 125.006  0.00  0.00    -0.481 OA
ATOM      6  C   LIG A   1      -5.095   3.174 126.377  0.00  0.00    +0.127 C 
ATOM      7  C   LIG A   1      -3.733   2.467 126.306  0.00  0.00    +0.060 C 
ATOM      8  C   LIG A   1      -5.991   2.386 127.306  0.00  0.00    +0.021 C 
ATOM      9  C   LIG A   1      -7.163   1.870 126.929  0.00  0.00    +0.011 C 
ATOM     10  C   LIG A   1      -7.575   2.053 125.547  0.00  0.00    +0.018 A 
ATOM     11  C   LIG A   1      -8.806   1.548 125.114  0.00  0.00    +0.026 A 
ENDROOT
BRANCH   1  12
ATOM     12  C   LIG A   1     -10.508   1.113 123.378  0.00  0.00    +0.337 C 
ATOM     13  O   LIG A   1     -10.649   0.403 122.401  0.00  0.00    -0.245 OA
BRANCH  12  14
ATOM     14  O   LIG A   1     -11.519   1.411 124.223  0.00  0.00    -0.477 OA
ATOM     15  H   LIG A   1     -11.359   1.197 125.159  0.00  0.00    +0.295 HD
ENDBRANCH  12  14
ENDBRANCH   1  12
BRANCH   3  16
ATOM     16  C   LIG A   1      -6.197   3.511 122.270  0.00  0.00    +0.066 C 
BRANCH  16  17
ATOM     17  C   LIG A   1      -6.853   3.692 120.925  0.00  0.00    -0.023 C 
ATOM     18  C   LIG A   1      -6.457   4.464 119.893  0.00  0.00    -0.079 C 
ATOM     19  C   LIG A   1      -5.218   5.317 119.865  0.00  0.00    +0.038 C 
ATOM     20  C   LIG A   1      -7.273   4.528 118.625  0.00  0.00    +0.038 C 
ENDBRANCH  16  17
ENDBRANCH   3  16
BRANCH   6  21
ATOM     21  C   LIG A   1      -4.914   4.617 126.913  0.00  0.00    +0.056 C 
BRANCH  21  22
ATOM     22  C   LIG A   1      -3.524   4.876 127.523  0.00  0.00    +0.031 C 
BRANCH  22  23
ATOM     23  C   LIG A   1      -3.482   4.542 128.992  0.00  0.00    -0.028 C 
ATOM     24  C   LIG A   1      -2.837   5.197 129.978  0.00  0.00    -0.080 C 
ATOM     25  C   LIG A   1      -1.978   6.420 129.803  0.00  0.00    +0.038 C 
ATOM     26  C   LIG A   1      -2.938   4.727 131.408  0.00  0.00    +0.038 C 
ENDBRANCH  22  23
ENDBRANCH  21  22
ENDBRANCH   6  21
TORSDOF 7
ENDMDL
MODEL 8
REMARK VINA RESULT:      -7.2      2.782      5.138
REMARK  Name = NuBBE_249
REMARK  12 active torsions:
REMARK  status: ('A' for Active; 'I' for Inactive)
REMARK    1  A    between atoms: O_1  and  C_2
REMARK    2  A    between atoms: C_2  and  C_3
REMARK    3  A    between atoms: C_5  and  C_6
REMARK    4  A    between atoms: C_6  and  C_7
REMARK    5  A    between atoms: C_8  and  C_9
REMARK    6  A    between atoms: C_8  and  C_10
REMARK    7  A    between atoms: C_13  and  C_14
REMARK    8  A    between atoms: C_13  and  C_20
REMARK    9  A    between atoms: C_14  and  C_15
REMARK   10  A    between atoms: C_15  and  C_16
REMARK   11  A    between atoms: C_17  and  C_18
REMARK   12  A    between atoms: C_17  and  C_19
REMARK                            x       y       z     vdW  Elec       q    Type
REMARK                         _______ _______ _______ _____ _____    ______ ____
ROOT
ATOM      1  C   LIG A   1      -7.914   1.818 123.727  0.00  0.00    +0.060 A 
ATOM      2  C   LIG A   1      -6.831   1.632 124.597  0.00  0.00    +0.022 A 
ATOM      3  C   LIG A   1      -6.541   0.357 125.117  0.00  0.00    -0.001 A 
ATOM      4  C   LIG A   1      -7.334  -0.737 124.721  0.00  0.00    +0.132 A 
ATOM      5  O   LIG A   1      -7.023  -1.952 125.266  0.00  0.00    -0.481 OA
ATOM      6  C   LIG A   1      -7.790  -3.120 124.902  0.00  0.00    +0.127 C 
ATOM      7  C   LIG A   1      -6.761  -4.110 124.335  0.00  0.00    +0.060 C 
ATOM      8  C   LIG A   1      -8.865  -2.903 123.862  0.00  0.00    +0.021 C 
ATOM      9  C   LIG A   1      -9.161  -1.703 123.355  0.00  0.00    +0.011 C 
ATOM     10  C   LIG A   1      -8.387  -0.561 123.812  0.00  0.00    +0.018 A 
ATOM     11  C   LIG A   1      -8.679   0.717 123.325  0.00  0.00    +0.026 A 
ENDROOT
BRANCH   1  12
ATOM     12  C   LIG A   1      -8.266   3.148 123.163  0.00  0.00    +0.337 C 
ATOM     13  O   LIG A   1      -8.792   3.283 122.075  0.00  0.00    -0.245 OA
BRANCH  12  14
ATOM     14  O   LIG A   1      -7.996   4.185 123.984  0.00  0.00    -0.477 OA
ATOM     15  H   LIG A   1      -7.474   3.967 124.777  0.00  0.00    +0.295 HD
ENDBRANCH  12  14
ENDBRANCH   1  12
BRANCH   3  16
ATOM     16  C   LIG A   1      -5.369   0.193 126.067  0.00  0.00    +0.066 C 
BRANCH  16  17
ATOM     17  C   LIG A   1      -5.418   1.146 127.233  0.00  0.00    -0.023 C 
ATOM     18  C   LIG A   1      -4.652   2.232 127.464  0.00  0.00    -0.079 C 
ATOM     19  C   LIG A   1      -3.567   2.745 126.557  0.00  0.00    +0.038 C 
ATOM     20  C   LIG A   1      -4.842   3.053 128.716  0.00  0.00    +0.038 C 
ENDBRANCH  16  17
ENDBRANCH   3  16
BRANCH   6  21
ATOM     21  C   LIG A   1      -8.417  -3.696 126.198  0.00  0.00    +0.056 C 
BRANCH  21  22
ATOM     22  C   LIG A   1      -8.451  -2.690 127.364  0.00  0.00    +0.031 C 
BRANCH  22  23
ATOM     23  C   LIG A   1      -7.943  -3.297 128.647  0.00  0.00    -0.028 C 
ATOM     24  C   LIG A   1      -6.699  -3.237 129.163  0.00  0.00    -0.080 C 
ATOM     25  C   LIG A   1      -5.519  -2.550 128.530  0.00  0.00    +0.038 C 
ATOM     26  C   LIG A   1      -6.384  -3.886 130.487  0.00  0.00    +0.038 C 
ENDBRANCH  22  23
ENDBRANCH  21  22
ENDBRANCH   6  21
TORSDOF 7
ENDMDL
MODEL 9
REMARK VINA RESULT:      -7.1      2.075      5.181
REMARK  Name = NuBBE_249
REMARK  12 active torsions:
REMARK  status: ('A' for Active; 'I' for Inactive)
REMARK    1  A    between atoms: O_1  and  C_2
REMARK    2  A    between atoms: C_2  and  C_3
REMARK    3  A    between atoms: C_5  and  C_6
REMARK    4  A    between atoms: C_6  and  C_7
REMARK    5  A    between atoms: C_8  and  C_9
REMARK    6  A    between atoms: C_8  and  C_10
REMARK    7  A    between atoms: C_13  and  C_14
REMARK    8  A    between atoms: C_13  and  C_20
REMARK    9  A    between atoms: C_14  and  C_15
REMARK   10  A    between atoms: C_15  and  C_16
REMARK   11  A    between atoms: C_17  and  C_18
REMARK   12  A    between atoms: C_17  and  C_19
REMARK                            x       y       z     vdW  Elec       q    Type
REMARK                         _______ _______ _______ _____ _____    ______ ____
ROOT
ATOM      1  C   LIG A   1      -6.509   3.908 121.462  0.00  0.00    +0.060 A 
ATOM      2  C   LIG A   1      -7.628   3.191 121.905  0.00  0.00    +0.022 A 
ATOM      3  C   LIG A   1      -7.723   2.768 123.244  0.00  0.00    -0.001 A 
ATOM      4  C   LIG A   1      -6.693   3.111 124.141  0.00  0.00    +0.132 A 
ATOM      5  O   LIG A   1      -6.824   2.665 125.427  0.00  0.00    -0.481 OA
ATOM      6  C   LIG A   1      -5.809   2.981 126.404  0.00  0.00    +0.127 C 
ATOM      7  C   LIG A   1      -6.555   3.717 127.528  0.00  0.00    +0.060 C 
ATOM      8  C   LIG A   1      -4.685   3.868 125.920  0.00  0.00    +0.021 C 
ATOM      9  C   LIG A   1      -4.569   4.279 124.655  0.00  0.00    +0.011 C 
ATOM     10  C   LIG A   1      -5.598   3.872 123.711  0.00  0.00    +0.018 A 
ATOM     11  C   LIG A   1      -5.505   4.261 122.370  0.00  0.00    +0.026 A 
ENDROOT
BRANCH   1  12
ATOM     12  C   LIG A   1      -6.358   4.364 120.054  0.00  0.00    +0.337 C 
ATOM     13  O   LIG A   1      -7.193   4.144 119.197  0.00  0.00    -0.245 OA
BRANCH  12  14
ATOM     14  O   LIG A   1      -5.240   5.086 119.824  0.00  0.00    -0.477 OA
ATOM     15  H   LIG A   1      -5.059   5.794 120.467  0.00  0.00    +0.295 HD
ENDBRANCH  12  14
ENDBRANCH   1  12
BRANCH   3  16
ATOM     16  C   LIG A   1      -8.942   1.981 123.688  0.00  0.00    +0.066 C 
BRANCH  16  17
ATOM     17  C   LIG A   1      -8.897   0.536 123.263  0.00  0.00    -0.023 C 
ATOM     18  C   LIG A   1      -9.073  -0.569 124.017  0.00  0.00    -0.079 C 
ATOM     19  C   LIG A   1      -9.386  -0.581 125.488  0.00  0.00    +0.038 C 
ATOM     20  C   LIG A   1      -8.963  -1.943 123.403  0.00  0.00    +0.038 C 
ENDBRANCH  16  17
ENDBRANCH   3  16
BRANCH   6  21
ATOM     21  C   LIG A   1      -5.235   1.644 126.939  0.00  0.00    +0.056 C 
BRANCH  21  22
ATOM     22  C   LIG A   1      -6.137   0.429 126.653  0.00  0.00    +0.031 C 
BRANCH  22  23
ATOM     23  C   LIG A   1      -5.610  -0.408 125.516  0.00  0.00    -0.028 C 
ATOM     24  C   LIG A   1      -5.777  -1.730 125.307  0.00  0.00    -0.080 C 
ATOM     25  C   LIG A   1      -6.527  -2.673 126.208  0.00  0.00    +0.038 C 
ATOM     26  C   LIG A   1      -5.195  -2.394 124.084  0.00  0.00    +0.038 C 
ENDBRANCH  22  23
ENDBRANCH  21  22
ENDBRANCH   6  21
TORSDOF 7
ENDMDL
