MODEL 1
REMARK VINA RESULT:      -5.5      0.000      0.000
REMARK  Name = NuBBE_2128
REMARK  3 active torsions:
REMARK  status: ('A' for Active; 'I' for Inactive)
REMARK    1  A    between atoms: C_1  and  C_2
REMARK    2  A    between atoms: C_2  and  C_3
REMARK    3  A    between atoms: C_3  and  C_4
REMARK                            x       y       z     vdW  Elec       q    Type
REMARK                         _______ _______ _______ _____ _____    ______ ____
ROOT
ATOM      1  C   LIG A   1     -12.592   8.365 129.381  0.00  0.00    -0.011 C 
ATOM      2  C   LIG A   1     -13.352   7.225 128.677  0.00  0.00    +0.003 C 
ATOM      3  C   LIG A   1     -13.118   7.194 127.166  0.00  0.00    +0.000 C 
ATOM      4  C   LIG A   1     -11.632   7.166 126.821  0.00  0.00    +0.000 C 
ATOM      5  C   LIG A   1     -10.856   8.282 127.514  0.00  0.00    +0.000 C 
ATOM      6  C   LIG A   1     -11.099   8.279 129.021  0.00  0.00    +0.003 C 
ENDROOT
BRANCH   1   7
ATOM      7  C   LIG A   1     -13.235   9.733 129.059  0.00  0.00    +0.003 C 
BRANCH   7   9
ATOM      8  C   LIG A   1     -13.834  12.045 129.859  0.00  0.00    +0.004 C 
ATOM      9  C   LIG A   1     -13.344  10.664 130.268  0.00  0.00    -0.003 C 
ENDBRANCH   7   9
ENDBRANCH   1   7
TORSDOF 2
ENDMDL
MODEL 2
REMARK VINA RESULT:      -5.4     12.651     14.421
REMARK  Name = NuBBE_2128
REMARK  3 active torsions:
REMARK  status: ('A' for Active; 'I' for Inactive)
REMARK    1  A    between atoms: C_1  and  C_2
REMARK    2  A    between atoms: C_2  and  C_3
REMARK    3  A    between atoms: C_3  and  C_4
REMARK                            x       y       z     vdW  Elec       q    Type
REMARK                         _______ _______ _______ _____ _____    ______ ____
ROOT
ATOM      1  C   LIG A   1      -6.514  -1.990 123.986  0.00  0.00    -0.011 C 
ATOM      2  C   LIG A   1      -7.714  -1.357 123.257  0.00  0.00    +0.003 C 
ATOM      3  C   LIG A   1      -8.745  -2.388 122.795  0.00  0.00    +0.000 C 
ATOM      4  C   LIG A   1      -9.202  -3.288 123.940  0.00  0.00    +0.000 C 
ATOM      5  C   LIG A   1      -8.029  -3.920 124.683  0.00  0.00    +0.000 C 
ATOM      6  C   LIG A   1      -7.026  -2.865 125.144  0.00  0.00    +0.003 C 
ENDROOT
BRANCH   1   7
ATOM      7  C   LIG A   1      -5.602  -2.740 122.990  0.00  0.00    +0.003 C 
BRANCH   7   9
ATOM      8  C   LIG A   1      -4.364  -4.884 123.457  0.00  0.00    +0.004 C 
ATOM      9  C   LIG A   1      -4.368  -3.373 123.638  0.00  0.00    -0.003 C 
ENDBRANCH   7   9
ENDBRANCH   1   7
TORSDOF 2
ENDMDL
MODEL 3
REMARK VINA RESULT:      -5.2     12.538     13.263
REMARK  Name = NuBBE_2128
REMARK  3 active torsions:
REMARK  status: ('A' for Active; 'I' for Inactive)
REMARK    1  A    between atoms: C_1  and  C_2
REMARK    2  A    between atoms: C_2  and  C_3
REMARK    3  A    between atoms: C_3  and  C_4
REMARK                            x       y       z     vdW  Elec       q    Type
REMARK                         _______ _______ _______ _____ _____    ______ ____
ROOT
ATOM      1  C   LIG A   1      -8.754  -3.629 124.625  0.00  0.00    -0.011 C 
ATOM      2  C   LIG A   1      -9.409  -3.119 123.327  0.00  0.00    +0.003 C 
ATOM      3  C   LIG A   1      -8.810  -1.800 122.834  0.00  0.00    +0.000 C 
ATOM      4  C   LIG A   1      -7.292  -1.881 122.696  0.00  0.00    +0.000 C 
ATOM      5  C   LIG A   1      -6.621  -2.393 123.967  0.00  0.00    +0.000 C 
ATOM      6  C   LIG A   1      -7.231  -3.716 124.426  0.00  0.00    +0.003 C 
ENDROOT
BRANCH   1   7
ATOM      7  C   LIG A   1      -9.180  -2.762 125.831  0.00  0.00    +0.003 C 
BRANCH   7   9
ATOM      8  C   LIG A   1      -9.005  -4.037 127.997  0.00  0.00    +0.004 C 
ATOM      9  C   LIG A   1      -8.347  -3.006 127.091  0.00  0.00    -0.003 C 
ENDBRANCH   7   9
ENDBRANCH   1   7
TORSDOF 2
ENDMDL
MODEL 4
REMARK VINA RESULT:      -5.0      1.829      3.812
REMARK  Name = NuBBE_2128
REMARK  3 active torsions:
REMARK  status: ('A' for Active; 'I' for Inactive)
REMARK    1  A    between atoms: C_1  and  C_2
REMARK    2  A    between atoms: C_2  and  C_3
REMARK    3  A    between atoms: C_3  and  C_4
REMARK                            x       y       z     vdW  Elec       q    Type
REMARK                         _______ _______ _______ _____ _____    ______ ____
ROOT
ATOM      1  C   LIG A   1     -10.831   8.122 128.994  0.00  0.00    -0.011 C 
ATOM      2  C   LIG A   1     -10.994   8.261 127.469  0.00  0.00    +0.003 C 
ATOM      3  C   LIG A   1     -11.970   7.243 126.877  0.00  0.00    +0.000 C 
ATOM      4  C   LIG A   1     -13.322   7.273 127.584  0.00  0.00    +0.000 C 
ATOM      5  C   LIG A   1     -13.186   7.145 129.099  0.00  0.00    +0.000 C 
ATOM      6  C   LIG A   1     -12.216   8.183 129.662  0.00  0.00    +0.003 C 
ENDROOT
BRANCH   1   7
ATOM      7  C   LIG A   1     -10.022   6.853 129.346  0.00  0.00    +0.003 C 
BRANCH   7   9
ATOM      8  C   LIG A   1      -9.719   6.291 131.783  0.00  0.00    +0.004 C 
ATOM      9  C   LIG A   1      -9.130   7.011 130.579  0.00  0.00    -0.003 C 
ENDBRANCH   7   9
ENDBRANCH   1   7
TORSDOF 2
ENDMDL
MODEL 5
REMARK VINA RESULT:      -4.8      1.666      3.000
REMARK  Name = NuBBE_2128
REMARK  3 active torsions:
REMARK  status: ('A' for Active; 'I' for Inactive)
REMARK    1  A    between atoms: C_1  and  C_2
REMARK    2  A    between atoms: C_2  and  C_3
REMARK    3  A    between atoms: C_3  and  C_4
REMARK                            x       y       z     vdW  Elec       q    Type
REMARK                         _______ _______ _______ _____ _____    ______ ____
ROOT
ATOM      1  C   LIG A   1     -12.100   7.429 128.759  0.00  0.00    -0.011 C 
ATOM      2  C   LIG A   1     -10.686   6.837 128.910  0.00  0.00    +0.003 C 
ATOM      3  C   LIG A   1     -10.100   7.040 130.308  0.00  0.00    +0.000 C 
ATOM      4  C   LIG A   1     -11.036   6.528 131.398  0.00  0.00    +0.000 C 
ATOM      5  C   LIG A   1     -12.446   7.095 131.264  0.00  0.00    +0.000 C 
ATOM      6  C   LIG A   1     -13.010   6.864 129.863  0.00  0.00    +0.003 C 
ENDROOT
BRANCH   1   7
ATOM      7  C   LIG A   1     -12.046   8.973 128.721  0.00  0.00    +0.003 C 
BRANCH   7   9
ATOM      8  C   LIG A   1     -13.431  10.786 129.788  0.00  0.00    +0.004 C 
ATOM      9  C   LIG A   1     -13.422   9.640 128.787  0.00  0.00    -0.003 C 
ENDBRANCH   7   9
ENDBRANCH   1   7
TORSDOF 2
ENDMDL
MODEL 6
REMARK VINA RESULT:      -4.8      1.996      3.659
REMARK  Name = NuBBE_2128
REMARK  3 active torsions:
REMARK  status: ('A' for Active; 'I' for Inactive)
REMARK    1  A    between atoms: C_1  and  C_2
REMARK    2  A    between atoms: C_2  and  C_3
REMARK    3  A    between atoms: C_3  and  C_4
REMARK                            x       y       z     vdW  Elec       q    Type
REMARK                         _______ _______ _______ _____ _____    ______ ____
ROOT
ATOM      1  C   LIG A   1     -12.702   7.955 129.801  0.00  0.00    -0.011 C 
ATOM      2  C   LIG A   1     -12.721   7.481 131.266  0.00  0.00    +0.003 C 
ATOM      3  C   LIG A   1     -11.747   6.332 131.535  0.00  0.00    +0.000 C 
ATOM      4  C   LIG A   1     -10.330   6.668 131.078  0.00  0.00    +0.000 C 
ATOM      5  C   LIG A   1     -10.287   7.149 129.630  0.00  0.00    +0.000 C 
ATOM      6  C   LIG A   1     -11.259   8.304 129.397  0.00  0.00    +0.003 C 
ENDROOT
BRANCH   1   7
ATOM      7  C   LIG A   1     -13.375   6.913 128.879  0.00  0.00    +0.003 C 
BRANCH   7   9
ATOM      8  C   LIG A   1     -12.591   6.982 126.486  0.00  0.00    +0.004 C 
ATOM      9  C   LIG A   1     -13.663   7.431 127.468  0.00  0.00    -0.003 C 
ENDBRANCH   7   9
ENDBRANCH   1   7
TORSDOF 2
ENDMDL
MODEL 7
REMARK VINA RESULT:      -4.5     11.484     13.888
REMARK  Name = NuBBE_2128
REMARK  3 active torsions:
REMARK  status: ('A' for Active; 'I' for Inactive)
REMARK    1  A    between atoms: C_1  and  C_2
REMARK    2  A    between atoms: C_2  and  C_3
REMARK    3  A    between atoms: C_3  and  C_4
REMARK                            x       y       z     vdW  Elec       q    Type
REMARK                         _______ _______ _______ _____ _____    ______ ____
ROOT
ATOM      1  C   LIG A   1      -7.596  -3.071 123.622  0.00  0.00    -0.011 C 
ATOM      2  C   LIG A   1      -7.972  -3.769 124.942  0.00  0.00    +0.003 C 
ATOM      3  C   LIG A   1      -8.179  -2.789 126.099  0.00  0.00    +0.000 C 
ATOM      4  C   LIG A   1      -9.181  -1.694 125.745  0.00  0.00    +0.000 C 
ATOM      5  C   LIG A   1      -8.834  -0.993 124.434  0.00  0.00    +0.000 C 
ATOM      6  C   LIG A   1      -8.647  -1.996 123.297  0.00  0.00    +0.003 C 
ENDROOT
BRANCH   1   7
ATOM      7  C   LIG A   1      -6.148  -2.534 123.680  0.00  0.00    +0.003 C 
BRANCH   7   9
ATOM      8  C   LIG A   1      -4.431  -4.364 123.463  0.00  0.00    +0.004 C 
ATOM      9  C   LIG A   1      -5.178  -3.453 124.426  0.00  0.00    -0.003 C 
ENDBRANCH   7   9
ENDBRANCH   1   7
TORSDOF 2
ENDMDL
MODEL 8
REMARK VINA RESULT:      -4.4     12.298     13.473
REMARK  Name = NuBBE_2128
REMARK  3 active torsions:
REMARK  status: ('A' for Active; 'I' for Inactive)
REMARK    1  A    between atoms: C_1  and  C_2
REMARK    2  A    between atoms: C_2  and  C_3
REMARK    3  A    between atoms: C_3  and  C_4
REMARK                            x       y       z     vdW  Elec       q    Type
REMARK                         _______ _______ _______ _____ _____    ______ ____
ROOT
ATOM      1  C   LIG A   1      -7.148  -2.225 125.313  0.00  0.00    -0.011 C 
ATOM      2  C   LIG A   1      -5.684  -2.687 125.193  0.00  0.00    +0.003 C 
ATOM      3  C   LIG A   1      -5.353  -3.269 123.818  0.00  0.00    +0.000 C 
ATOM      4  C   LIG A   1      -5.727  -2.313 122.689  0.00  0.00    +0.000 C 
ATOM      5  C   LIG A   1      -7.173  -1.834 122.793  0.00  0.00    +0.000 C 
ATOM      6  C   LIG A   1      -7.469  -1.246 124.171  0.00  0.00    +0.003 C 
ENDROOT
BRANCH   1   7
ATOM      7  C   LIG A   1      -8.102  -3.438 125.384  0.00  0.00    +0.003 C 
BRANCH   7   9
ATOM      8  C   LIG A   1      -8.692  -3.673 127.822  0.00  0.00    +0.004 C 
ATOM      9  C   LIG A   1      -9.202  -3.298 126.439  0.00  0.00    -0.003 C 
ENDBRANCH   7   9
ENDBRANCH   1   7
TORSDOF 2
ENDMDL
MODEL 9
REMARK VINA RESULT:      -4.4     10.420     12.816
REMARK  Name = NuBBE_2128
REMARK  3 active torsions:
REMARK  status: ('A' for Active; 'I' for Inactive)
REMARK    1  A    between atoms: C_1  and  C_2
REMARK    2  A    between atoms: C_2  and  C_3
REMARK    3  A    between atoms: C_3  and  C_4
REMARK                            x       y       z     vdW  Elec       q    Type
REMARK                         _______ _______ _______ _____ _____    ______ ____
ROOT
ATOM      1  C   LIG A   1      -8.131  -1.622 122.987  0.00  0.00    -0.011 C 
ATOM      2  C   LIG A   1      -6.648  -1.719 122.583  0.00  0.00    +0.003 C 
ATOM      3  C   LIG A   1      -5.767  -2.312 123.684  0.00  0.00    +0.000 C 
ATOM      4  C   LIG A   1      -6.298  -3.655 124.177  0.00  0.00    +0.000 C 
ATOM      5  C   LIG A   1      -7.769  -3.585 124.575  0.00  0.00    +0.000 C 
ATOM      6  C   LIG A   1      -8.625  -3.003 123.452  0.00  0.00    +0.003 C 
ENDROOT
BRANCH   1   7
ATOM      7  C   LIG A   1      -8.343  -0.499 124.027  0.00  0.00    +0.003 C 
BRANCH   7   9
ATOM      8  C   LIG A   1     -10.124   0.327 122.448  0.00  0.00    +0.004 C 
ATOM      9  C   LIG A   1      -9.073   0.727 123.473  0.00  0.00    -0.003 C 
ENDBRANCH   7   9
ENDBRANCH   1   7
TORSDOF 2
ENDMDL
