MODEL 1
REMARK VINA RESULT:      -8.5      0.000      0.000
REMARK  Name = NuBBE_2429
REMARK  12 active torsions:
REMARK  status: ('A' for Active; 'I' for Inactive)
REMARK    1  A    between atoms: O_1  and  C_2
REMARK    2  A    between atoms: C_4  and  C_35
REMARK    3  A    between atoms: C_4  and  C_36
REMARK    4  A    between atoms: C_11  and  C_29
REMARK    5  A    between atoms: C_12  and  C_28
REMARK    6  A    between atoms: C_13  and  C_17
REMARK    7  A    between atoms: C_17  and  C_19
REMARK    8  A    between atoms: C_17  and  C_25
REMARK    9  A    between atoms: C_19  and  C_20
REMARK   10  A    between atoms: C_20  and  C_21
REMARK   11  A    between atoms: C_22  and  C_23
REMARK   12  A    between atoms: C_22  and  C_24
REMARK                            x       y       z     vdW  Elec       q    Type
REMARK                         _______ _______ _______ _____ _____    ______ ____
ROOT
ATOM      1  C   LIG A   1      -9.147  -2.680 123.434  0.00  0.00    +0.120 C 
ATOM      2  C   LIG A   1      -8.342  -2.891 124.739  0.00  0.00    -0.006 C 
ATOM      3  C   LIG A   1      -7.158  -1.861 124.734  0.00  0.00    +0.004 C 
ATOM      4  C   LIG A   1      -7.620  -0.387 124.559  0.00  0.00    -0.019 C 
ATOM      5  C   LIG A   1      -6.996   0.745 125.415  0.00  0.00    -0.019 C 
ATOM      6  C   LIG A   1      -6.256   0.231 126.659  0.00  0.00    +0.002 C 
ATOM      7  C   LIG A   1      -5.649   1.382 127.522  0.00  0.00    -0.023 C 
ATOM      8  C   LIG A   1      -6.831   2.333 128.014  0.00  0.00    -0.023 C 
ATOM      9  C   LIG A   1      -7.133   1.863 129.505  0.00  0.00    -0.002 C 
ATOM     10  C   LIG A   1      -5.687   1.611 129.990  0.00  0.00    +0.005 C 
ATOM     11  C   LIG A   1      -5.038   0.837 128.849  0.00  0.00    +0.008 C 
ATOM     12  C   LIG A   1      -8.045   2.332 127.056  0.00  0.00    +0.008 C 
ATOM     13  C   LIG A   1      -7.651   2.111 125.606  0.00  0.00    +0.008 C 
ATOM     14  C   LIG A   1      -6.371   3.827 128.079  0.00  0.00    +0.012 C 
ATOM     15  C   LIG A   1      -4.516   2.080 126.736  0.00  0.00    +0.012 C 
ATOM     16  C   LIG A   1      -5.305  -0.913 126.297  0.00  0.00    +0.005 C 
ATOM     17  C   LIG A   1      -6.152  -2.112 125.884  0.00  0.00    +0.005 C 
ATOM     18  C   LIG A   1      -6.548   0.514 123.987  0.00  0.00    +0.015 C 
ATOM     19  C   LIG A   1      -9.049  -0.183 124.094  0.00  0.00    +0.010 C 
ATOM     20  C   LIG A   1      -9.592  -1.247 123.156  0.00  0.00    +0.032 C 
ATOM     21  C   LIG A   1      -9.239  -2.792 125.997  0.00  0.00    +0.014 C 
ATOM     22  C   LIG A   1      -7.786  -4.341 124.716  0.00  0.00    +0.014 C 
ENDROOT
BRANCH   1  23
ATOM     23  O   LIG A   1     -10.286  -3.542 123.395  0.00  0.00    -0.391 OA
ATOM     24  H   LIG A   1     -10.779  -3.341 122.581  0.00  0.00    +0.210 HD
ENDBRANCH   1  23
BRANCH   9  25
ATOM     25  C   LIG A   1      -8.023   0.598 129.846  0.00  0.00    -0.010 C 
ATOM     26  C   LIG A   1      -8.995   0.729 131.028  0.00  0.00    +0.008 C 
BRANCH  25  27
ATOM     27  C   LIG A   1      -7.167  -0.681 130.113  0.00  0.00    +0.007 C 
BRANCH  27  28
ATOM     28  C   LIG A   1      -7.601  -1.918 129.317  0.00  0.00    +0.027 C 
BRANCH  28  29
ATOM     29  C   LIG A   1      -7.167  -3.183 130.000  0.00  0.00    -0.028 C 
ATOM     30  C   LIG A   1      -5.932  -3.718 129.976  0.00  0.00    -0.080 C 
ATOM     31  C   LIG A   1      -4.768  -3.147 129.210  0.00  0.00    +0.038 C 
ATOM     32  C   LIG A   1      -5.622  -4.986 130.728  0.00  0.00    +0.038 C 
ENDBRANCH  28  29
ENDBRANCH  27  28
ENDBRANCH  25  27
ENDBRANCH   9  25
TORSDOF 5
ENDMDL
MODEL 2
REMARK VINA RESULT:      -8.3      2.399      5.841
REMARK  Name = NuBBE_2429
REMARK  12 active torsions:
REMARK  status: ('A' for Active; 'I' for Inactive)
REMARK    1  A    between atoms: O_1  and  C_2
REMARK    2  A    between atoms: C_4  and  C_35
REMARK    3  A    between atoms: C_4  and  C_36
REMARK    4  A    between atoms: C_11  and  C_29
REMARK    5  A    between atoms: C_12  and  C_28
REMARK    6  A    between atoms: C_13  and  C_17
REMARK    7  A    between atoms: C_17  and  C_19
REMARK    8  A    between atoms: C_17  and  C_25
REMARK    9  A    between atoms: C_19  and  C_20
REMARK   10  A    between atoms: C_20  and  C_21
REMARK   11  A    between atoms: C_22  and  C_23
REMARK   12  A    between atoms: C_22  and  C_24
REMARK                            x       y       z     vdW  Elec       q    Type
REMARK                         _______ _______ _______ _____ _____    ______ ____
ROOT
ATOM      1  C   LIG A   1      -6.348  -3.336 129.669  0.00  0.00    +0.120 C 
ATOM      2  C   LIG A   1      -5.530  -2.488 128.665  0.00  0.00    -0.006 C 
ATOM      3  C   LIG A   1      -6.111  -2.763 127.233  0.00  0.00    +0.004 C 
ATOM      4  C   LIG A   1      -7.639  -2.494 127.124  0.00  0.00    -0.019 C 
ATOM      5  C   LIG A   1      -8.226  -1.756 125.892  0.00  0.00    -0.019 C 
ATOM      6  C   LIG A   1      -7.170  -0.992 125.080  0.00  0.00    +0.002 C 
ATOM      7  C   LIG A   1      -7.778  -0.238 123.855  0.00  0.00    -0.023 C 
ATOM      8  C   LIG A   1      -8.850   0.819 124.382  0.00  0.00    -0.023 C 
ATOM      9  C   LIG A   1      -8.074   2.209 124.394  0.00  0.00    -0.002 C 
ATOM     10  C   LIG A   1      -7.269   2.062 123.083  0.00  0.00    +0.005 C 
ATOM     11  C   LIG A   1      -6.709   0.646 123.143  0.00  0.00    +0.008 C 
ATOM     12  C   LIG A   1      -9.495   0.405 125.725  0.00  0.00    +0.008 C 
ATOM     13  C   LIG A   1      -9.605  -1.101 125.887  0.00  0.00    +0.008 C 
ATOM     14  C   LIG A   1     -10.048   0.961 123.387  0.00  0.00    +0.012 C 
ATOM     15  C   LIG A   1      -8.304  -1.260 122.823  0.00  0.00    +0.012 C 
ATOM     16  C   LIG A   1      -5.955  -1.876 124.791  0.00  0.00    +0.005 C 
ATOM     17  C   LIG A   1      -5.243  -2.139 126.113  0.00  0.00    +0.005 C 
ATOM     18  C   LIG A   1      -8.304  -3.264 126.004  0.00  0.00    +0.015 C 
ATOM     19  C   LIG A   1      -8.388  -2.343 128.432  0.00  0.00    +0.010 C 
ATOM     20  C   LIG A   1      -7.863  -3.175 129.589  0.00  0.00    +0.032 C 
ATOM     21  C   LIG A   1      -5.517  -0.988 129.047  0.00  0.00    +0.014 C 
ATOM     22  C   LIG A   1      -4.055  -2.968 128.741  0.00  0.00    +0.014 C 
ENDROOT
BRANCH   1  23
ATOM     23  O   LIG A   1      -5.919  -3.089 131.010  0.00  0.00    -0.391 OA
ATOM     24  H   LIG A   1      -6.715  -2.984 131.558  0.00  0.00    +0.210 HD
ENDBRANCH   1  23
BRANCH   9  25
ATOM     25  C   LIG A   1      -7.091   2.638 125.561  0.00  0.00    -0.010 C 
ATOM     26  C   LIG A   1      -7.732   3.182 126.845  0.00  0.00    +0.008 C 
BRANCH  25  27
ATOM     27  C   LIG A   1      -6.045   3.702 125.100  0.00  0.00    +0.007 C 
BRANCH  27  28
ATOM     28  C   LIG A   1      -5.092   4.181 126.203  0.00  0.00    +0.027 C 
BRANCH  28  29
ATOM     29  C   LIG A   1      -3.778   3.456 126.139  0.00  0.00    -0.028 C 
ATOM     30  C   LIG A   1      -2.672   3.748 126.849  0.00  0.00    -0.080 C 
ATOM     31  C   LIG A   1      -2.554   4.898 127.813  0.00  0.00    +0.038 C 
ATOM     32  C   LIG A   1      -1.420   2.922 126.707  0.00  0.00    +0.038 C 
ENDBRANCH  28  29
ENDBRANCH  27  28
ENDBRANCH  25  27
ENDBRANCH   9  25
TORSDOF 5
ENDMDL
MODEL 3
REMARK VINA RESULT:      -8.3      5.320      8.407
REMARK  Name = NuBBE_2429
REMARK  12 active torsions:
REMARK  status: ('A' for Active; 'I' for Inactive)
REMARK    1  A    between atoms: O_1  and  C_2
REMARK    2  A    between atoms: C_4  and  C_35
REMARK    3  A    between atoms: C_4  and  C_36
REMARK    4  A    between atoms: C_11  and  C_29
REMARK    5  A    between atoms: C_12  and  C_28
REMARK    6  A    between atoms: C_13  and  C_17
REMARK    7  A    between atoms: C_17  and  C_19
REMARK    8  A    between atoms: C_17  and  C_25
REMARK    9  A    between atoms: C_19  and  C_20
REMARK   10  A    between atoms: C_20  and  C_21
REMARK   11  A    between atoms: C_22  and  C_23
REMARK   12  A    between atoms: C_22  and  C_24
REMARK                            x       y       z     vdW  Elec       q    Type
REMARK                         _______ _______ _______ _____ _____    ______ ____
ROOT
ATOM      1  C   LIG A   1      -2.203   5.258 128.918  0.00  0.00    +0.120 C 
ATOM      2  C   LIG A   1      -3.497   4.409 128.957  0.00  0.00    -0.006 C 
ATOM      3  C   LIG A   1      -3.558   3.706 130.359  0.00  0.00    +0.004 C 
ATOM      4  C   LIG A   1      -3.469   4.698 131.553  0.00  0.00    -0.019 C 
ATOM      5  C   LIG A   1      -4.393   4.535 132.787  0.00  0.00    -0.019 C 
ATOM      6  C   LIG A   1      -5.608   3.633 132.524  0.00  0.00    +0.002 C 
ATOM      7  C   LIG A   1      -6.541   3.494 133.768  0.00  0.00    -0.023 C 
ATOM      8  C   LIG A   1      -7.082   4.940 134.169  0.00  0.00    -0.023 C 
ATOM      9  C   LIG A   1      -8.541   5.014 133.536  0.00  0.00    -0.002 C 
ATOM     10  C   LIG A   1      -9.018   3.572 133.826  0.00  0.00    +0.005 C 
ATOM     11  C   LIG A   1      -7.836   2.699 133.424  0.00  0.00    +0.008 C 
ATOM     12  C   LIG A   1      -6.120   6.079 133.760  0.00  0.00    +0.008 C 
ATOM     13  C   LIG A   1      -4.661   5.658 133.787  0.00  0.00    +0.008 C 
ATOM     14  C   LIG A   1      -7.237   5.082 135.719  0.00  0.00    +0.012 C 
ATOM     15  C   LIG A   1      -5.803   2.726 134.889  0.00  0.00    +0.012 C 
ATOM     16  C   LIG A   1      -5.184   2.326 131.851  0.00  0.00    +0.005 C 
ATOM     17  C   LIG A   1      -4.696   2.660 130.445  0.00  0.00    +0.005 C 
ATOM     18  C   LIG A   1      -2.956   4.059 132.825  0.00  0.00    +0.015 C 
ATOM     19  C   LIG A   1      -3.010   6.104 131.223  0.00  0.00    +0.010 C 
ATOM     20  C   LIG A   1      -2.008   6.219 130.088  0.00  0.00    +0.032 C 
ATOM     21  C   LIG A   1      -4.754   5.254 128.636  0.00  0.00    +0.014 C 
ATOM     22  C   LIG A   1      -3.391   3.344 127.832  0.00  0.00    +0.014 C 
ENDROOT
BRANCH   1  23
ATOM     23  O   LIG A   1      -2.108   5.984 127.692  0.00  0.00    -0.391 OA
ATOM     24  H   LIG A   1      -1.164   6.089 127.485  0.00  0.00    +0.210 HD
ENDBRANCH   1  23
BRANCH   9  25
ATOM     25  C   LIG A   1      -8.803   5.349 132.010  0.00  0.00    -0.010 C 
ATOM     26  C   LIG A   1      -8.232   6.672 131.480  0.00  0.00    +0.008 C 
BRANCH  25  27
ATOM     27  C   LIG A   1     -10.322   5.343 131.648  0.00  0.00    +0.007 C 
BRANCH  27  28
ATOM     28  C   LIG A   1     -10.679   4.526 130.400  0.00  0.00    +0.027 C 
BRANCH  28  29
ATOM     29  C   LIG A   1     -10.047   3.165 130.442  0.00  0.00    -0.028 C 
ATOM     30  C   LIG A   1      -8.921   2.789 129.806  0.00  0.00    -0.080 C 
ATOM     31  C   LIG A   1      -8.116   3.679 128.895  0.00  0.00    +0.038 C 
ATOM     32  C   LIG A   1      -8.378   1.392 129.952  0.00  0.00    +0.038 C 
ENDBRANCH  28  29
ENDBRANCH  27  28
ENDBRANCH  25  27
ENDBRANCH   9  25
TORSDOF 5
ENDMDL
MODEL 4
REMARK VINA RESULT:      -8.3      2.444      5.979
REMARK  Name = NuBBE_2429
REMARK  12 active torsions:
REMARK  status: ('A' for Active; 'I' for Inactive)
REMARK    1  A    between atoms: O_1  and  C_2
REMARK    2  A    between atoms: C_4  and  C_35
REMARK    3  A    between atoms: C_4  and  C_36
REMARK    4  A    between atoms: C_11  and  C_29
REMARK    5  A    between atoms: C_12  and  C_28
REMARK    6  A    between atoms: C_13  and  C_17
REMARK    7  A    between atoms: C_17  and  C_19
REMARK    8  A    between atoms: C_17  and  C_25
REMARK    9  A    between atoms: C_19  and  C_20
REMARK   10  A    between atoms: C_20  and  C_21
REMARK   11  A    between atoms: C_22  and  C_23
REMARK   12  A    between atoms: C_22  and  C_24
REMARK                            x       y       z     vdW  Elec       q    Type
REMARK                         _______ _______ _______ _____ _____    ______ ____
ROOT
ATOM      1  C   LIG A   1      -5.058  -2.640 131.929  0.00  0.00    +0.120 C 
ATOM      2  C   LIG A   1      -6.502  -2.254 131.525  0.00  0.00    -0.006 C 
ATOM      3  C   LIG A   1      -6.443  -0.828 130.873  0.00  0.00    +0.004 C 
ATOM      4  C   LIG A   1      -5.452  -0.733 129.678  0.00  0.00    -0.019 C 
ATOM      5  C   LIG A   1      -5.844   0.023 128.383  0.00  0.00    -0.019 C 
ATOM      6  C   LIG A   1      -7.355   0.264 128.251  0.00  0.00    +0.002 C 
ATOM      7  C   LIG A   1      -7.738   1.008 126.933  0.00  0.00    -0.023 C 
ATOM      8  C   LIG A   1      -7.272   0.125 125.690  0.00  0.00    -0.023 C 
ATOM      9  C   LIG A   1      -8.590  -0.633 125.217  0.00  0.00    -0.002 C 
ATOM     10  C   LIG A   1      -9.618   0.508 125.397  0.00  0.00    +0.005 C 
ATOM     11  C   LIG A   1      -9.284   1.102 126.760  0.00  0.00    +0.008 C 
ATOM     12  C   LIG A   1      -6.063  -0.782 126.013  0.00  0.00    +0.008 C 
ATOM     13  C   LIG A   1      -5.130  -0.175 127.048  0.00  0.00    +0.008 C 
ATOM     14  C   LIG A   1      -6.796   1.022 124.499  0.00  0.00    +0.012 C 
ATOM     15  C   LIG A   1      -7.182   2.450 126.970  0.00  0.00    +0.012 C 
ATOM     16  C   LIG A   1      -7.933   0.843 129.544  0.00  0.00    +0.005 C 
ATOM     17  C   LIG A   1      -7.852  -0.236 130.618  0.00  0.00    +0.005 C 
ATOM     18  C   LIG A   1      -4.954   0.672 129.422  0.00  0.00    +0.015 C 
ATOM     19  C   LIG A   1      -4.470  -1.878 129.530  0.00  0.00    +0.010 C 
ATOM     20  C   LIG A   1      -4.009  -2.520 130.827  0.00  0.00    +0.032 C 
ATOM     21  C   LIG A   1      -7.154  -3.322 130.613  0.00  0.00    +0.014 C 
ATOM     22  C   LIG A   1      -7.355  -2.211 132.822  0.00  0.00    +0.014 C 
ENDROOT
BRANCH   1  23
ATOM     23  O   LIG A   1      -5.019  -3.960 132.473  0.00  0.00    -0.391 OA
ATOM     24  H   LIG A   1      -5.138  -3.885 133.436  0.00  0.00    +0.210 HD
ENDBRANCH   1  23
BRANCH   9  25
ATOM     25  C   LIG A   1      -9.136  -1.939 125.928  0.00  0.00    -0.010 C 
ATOM     26  C   LIG A   1      -8.313  -2.487 127.103  0.00  0.00    +0.008 C 
BRANCH  25  27
ATOM     27  C   LIG A   1      -9.334  -3.125 124.931  0.00  0.00    +0.007 C 
BRANCH  27  28
ATOM     28  C   LIG A   1      -8.413  -3.090 123.705  0.00  0.00    +0.027 C 
BRANCH  28  29
ATOM     29  C   LIG A   1      -7.066  -3.674 124.020  0.00  0.00    -0.028 C 
ATOM     30  C   LIG A   1      -5.883  -3.260 123.528  0.00  0.00    -0.080 C 
ATOM     31  C   LIG A   1      -5.716  -2.146 122.529  0.00  0.00    +0.038 C 
ATOM     32  C   LIG A   1      -4.596  -3.921 123.946  0.00  0.00    +0.038 C 
ENDBRANCH  28  29
ENDBRANCH  27  28
ENDBRANCH  25  27
ENDBRANCH   9  25
TORSDOF 5
ENDMDL
MODEL 5
REMARK VINA RESULT:      -8.2      2.493      6.896
REMARK  Name = NuBBE_2429
REMARK  12 active torsions:
REMARK  status: ('A' for Active; 'I' for Inactive)
REMARK    1  A    between atoms: O_1  and  C_2
REMARK    2  A    between atoms: C_4  and  C_35
REMARK    3  A    between atoms: C_4  and  C_36
REMARK    4  A    between atoms: C_11  and  C_29
REMARK    5  A    between atoms: C_12  and  C_28
REMARK    6  A    between atoms: C_13  and  C_17
REMARK    7  A    between atoms: C_17  and  C_19
REMARK    8  A    between atoms: C_17  and  C_25
REMARK    9  A    between atoms: C_19  and  C_20
REMARK   10  A    between atoms: C_20  and  C_21
REMARK   11  A    between atoms: C_22  and  C_23
REMARK   12  A    between atoms: C_22  and  C_24
REMARK                            x       y       z     vdW  Elec       q    Type
REMARK                         _______ _______ _______ _____ _____    ______ ____
ROOT
ATOM      1  C   LIG A   1      -6.906  -0.349 131.357  0.00  0.00    +0.120 C 
ATOM      2  C   LIG A   1      -6.427   0.329 130.051  0.00  0.00    -0.006 C 
ATOM      3  C   LIG A   1      -5.961  -0.807 129.073  0.00  0.00    +0.004 C 
ATOM      4  C   LIG A   1      -7.052  -1.884 128.812  0.00  0.00    -0.019 C 
ATOM      5  C   LIG A   1      -7.300  -2.427 127.380  0.00  0.00    -0.019 C 
ATOM      6  C   LIG A   1      -6.708  -1.536 126.279  0.00  0.00    +0.002 C 
ATOM      7  C   LIG A   1      -6.983  -2.084 124.843  0.00  0.00    -0.023 C 
ATOM      8  C   LIG A   1      -8.559  -2.163 124.615  0.00  0.00    -0.023 C 
ATOM      9  C   LIG A   1      -8.913  -0.848 123.789  0.00  0.00    -0.002 C 
ATOM     10  C   LIG A   1      -7.694  -0.808 122.840  0.00  0.00    +0.005 C 
ATOM     11  C   LIG A   1      -6.502  -1.083 123.750  0.00  0.00    +0.008 C 
ATOM     12  C   LIG A   1      -9.350  -2.356 125.930  0.00  0.00    +0.008 C 
ATOM     13  C   LIG A   1      -8.580  -3.152 126.969  0.00  0.00    +0.008 C 
ATOM     14  C   LIG A   1      -8.947  -3.391 123.728  0.00  0.00    +0.012 C 
ATOM     15  C   LIG A   1      -6.214  -3.409 124.636  0.00  0.00    +0.012 C 
ATOM     16  C   LIG A   1      -5.257  -1.167 126.593  0.00  0.00    +0.005 C 
ATOM     17  C   LIG A   1      -5.260  -0.249 127.810  0.00  0.00    +0.005 C 
ATOM     18  C   LIG A   1      -6.485  -3.219 128.381  0.00  0.00    +0.015 C 
ATOM     19  C   LIG A   1      -8.237  -1.880 129.756  0.00  0.00    +0.010 C 
ATOM     20  C   LIG A   1      -7.937  -1.461 131.184  0.00  0.00    +0.032 C 
ATOM     21  C   LIG A   1      -7.510   1.256 129.448  0.00  0.00    +0.014 C 
ATOM     22  C   LIG A   1      -5.225   1.244 130.412  0.00  0.00    +0.014 C 
ENDROOT
BRANCH   1  23
ATOM     23  O   LIG A   1      -7.409   0.620 132.278  0.00  0.00    -0.391 OA
ATOM     24  H   LIG A   1      -7.956   1.247 131.775  0.00  0.00    +0.210 HD
ENDBRANCH   1  23
BRANCH   9  25
ATOM     25  C   LIG A   1      -9.091   0.574 124.465  0.00  0.00    -0.010 C 
ATOM     26  C   LIG A   1      -9.757   0.608 125.848  0.00  0.00    +0.008 C 
BRANCH  25  27
ATOM     27  C   LIG A   1      -9.887   1.569 123.564  0.00  0.00    +0.007 C 
BRANCH  27  28
ATOM     28  C   LIG A   1      -9.015   2.476 122.687  0.00  0.00    +0.027 C 
BRANCH  28  29
ATOM     29  C   LIG A   1      -7.913   3.109 123.486  0.00  0.00    -0.028 C 
ATOM     30  C   LIG A   1      -6.679   3.414 123.041  0.00  0.00    -0.080 C 
ATOM     31  C   LIG A   1      -6.177   3.127 121.651  0.00  0.00    +0.038 C 
ATOM     32  C   LIG A   1      -5.671   4.074 123.945  0.00  0.00    +0.038 C 
ENDBRANCH  28  29
ENDBRANCH  27  28
ENDBRANCH  25  27
ENDBRANCH   9  25
TORSDOF 5
ENDMDL
MODEL 6
REMARK VINA RESULT:      -8.2      6.142      8.925
REMARK  Name = NuBBE_2429
REMARK  12 active torsions:
REMARK  status: ('A' for Active; 'I' for Inactive)
REMARK    1  A    between atoms: O_1  and  C_2
REMARK    2  A    between atoms: C_4  and  C_35
REMARK    3  A    between atoms: C_4  and  C_36
REMARK    4  A    between atoms: C_11  and  C_29
REMARK    5  A    between atoms: C_12  and  C_28
REMARK    6  A    between atoms: C_13  and  C_17
REMARK    7  A    between atoms: C_17  and  C_19
REMARK    8  A    between atoms: C_17  and  C_25
REMARK    9  A    between atoms: C_19  and  C_20
REMARK   10  A    between atoms: C_20  and  C_21
REMARK   11  A    between atoms: C_22  and  C_23
REMARK   12  A    between atoms: C_22  and  C_24
REMARK                            x       y       z     vdW  Elec       q    Type
REMARK                         _______ _______ _______ _____ _____    ______ ____
ROOT
ATOM      1  C   LIG A   1     -10.839   4.473 130.641  0.00  0.00    +0.120 C 
ATOM      2  C   LIG A   1     -10.114   5.582 131.442  0.00  0.00    -0.006 C 
ATOM      3  C   LIG A   1      -9.248   4.877 132.545  0.00  0.00    +0.004 C 
ATOM      4  C   LIG A   1      -8.259   3.822 131.973  0.00  0.00    -0.019 C 
ATOM      5  C   LIG A   1      -6.802   3.736 132.498  0.00  0.00    -0.019 C 
ATOM      6  C   LIG A   1      -6.354   4.993 133.258  0.00  0.00    +0.002 C 
ATOM      7  C   LIG A   1      -4.880   4.902 133.763  0.00  0.00    -0.023 C 
ATOM      8  C   LIG A   1      -3.916   4.720 132.506  0.00  0.00    -0.023 C 
ATOM      9  C   LIG A   1      -3.346   6.179 132.220  0.00  0.00    -0.002 C 
ATOM     10  C   LIG A   1      -3.132   6.658 133.674  0.00  0.00    +0.005 C 
ATOM     11  C   LIG A   1      -4.410   6.247 134.396  0.00  0.00    +0.008 C 
ATOM     12  C   LIG A   1      -4.609   4.030 131.309  0.00  0.00    +0.008 C 
ATOM     13  C   LIG A   1      -5.677   3.038 131.737  0.00  0.00    +0.008 C 
ATOM     14  C   LIG A   1      -2.697   3.801 132.850  0.00  0.00    +0.012 C 
ATOM     15  C   LIG A   1      -4.769   3.809 134.850  0.00  0.00    +0.012 C 
ATOM     16  C   LIG A   1      -7.398   5.407 134.298  0.00  0.00    +0.005 C 
ATOM     17  C   LIG A   1      -8.639   5.884 133.551  0.00  0.00    +0.005 C 
ATOM     18  C   LIG A   1      -7.860   2.766 132.981  0.00  0.00    +0.015 C 
ATOM     19  C   LIG A   1      -8.495   3.389 130.540  0.00  0.00    +0.010 C 
ATOM     20  C   LIG A   1      -9.946   3.364 130.092  0.00  0.00    +0.032 C 
ATOM     21  C   LIG A   1      -9.297   6.522 130.523  0.00  0.00    +0.014 C 
ATOM     22  C   LIG A   1     -11.204   6.466 132.108  0.00  0.00    +0.014 C 
ENDROOT
BRANCH   1  23
ATOM     23  O   LIG A   1     -11.602   5.036 129.571  0.00  0.00    -0.391 OA
ATOM     24  H   LIG A   1     -12.542   4.891 129.773  0.00  0.00    +0.210 HD
ENDBRANCH   1  23
BRANCH   9  25
ATOM     25  C   LIG A   1      -4.159   7.282 131.425  0.00  0.00    -0.010 C 
ATOM     26  C   LIG A   1      -5.493   6.848 130.801  0.00  0.00    +0.008 C 
BRANCH  25  27
ATOM     27  C   LIG A   1      -3.321   7.932 130.278  0.00  0.00    +0.007 C 
BRANCH  27  28
ATOM     28  C   LIG A   1      -3.663   7.426 128.871  0.00  0.00    +0.027 C 
BRANCH  28  29
ATOM     29  C   LIG A   1      -2.834   6.229 128.507  0.00  0.00    -0.028 C 
ATOM     30  C   LIG A   1      -3.284   5.087 127.951  0.00  0.00    -0.080 C 
ATOM     31  C   LIG A   1      -4.727   4.802 127.635  0.00  0.00    +0.038 C 
ATOM     32  C   LIG A   1      -2.337   3.966 127.612  0.00  0.00    +0.038 C 
ENDBRANCH  28  29
ENDBRANCH  27  28
ENDBRANCH  25  27
ENDBRANCH   9  25
TORSDOF 5
ENDMDL
MODEL 7
REMARK VINA RESULT:      -8.2      4.702      8.701
REMARK  Name = NuBBE_2429
REMARK  12 active torsions:
REMARK  status: ('A' for Active; 'I' for Inactive)
REMARK    1  A    between atoms: O_1  and  C_2
REMARK    2  A    between atoms: C_4  and  C_35
REMARK    3  A    between atoms: C_4  and  C_36
REMARK    4  A    between atoms: C_11  and  C_29
REMARK    5  A    between atoms: C_12  and  C_28
REMARK    6  A    between atoms: C_13  and  C_17
REMARK    7  A    between atoms: C_17  and  C_19
REMARK    8  A    between atoms: C_17  and  C_25
REMARK    9  A    between atoms: C_19  and  C_20
REMARK   10  A    between atoms: C_20  and  C_21
REMARK   11  A    between atoms: C_22  and  C_23
REMARK   12  A    between atoms: C_22  and  C_24
REMARK                            x       y       z     vdW  Elec       q    Type
REMARK                         _______ _______ _______ _____ _____    ______ ____
ROOT
ATOM      1  C   LIG A   1      -9.019   3.547 133.094  0.00  0.00    +0.120 C 
ATOM      2  C   LIG A   1      -8.629   4.257 131.774  0.00  0.00    -0.006 C 
ATOM      3  C   LIG A   1      -7.674   5.447 132.144  0.00  0.00    +0.004 C 
ATOM      4  C   LIG A   1      -6.430   5.009 132.967  0.00  0.00    -0.019 C 
ATOM      5  C   LIG A   1      -5.025   5.580 132.643  0.00  0.00    -0.019 C 
ATOM      6  C   LIG A   1      -4.937   6.227 131.253  0.00  0.00    +0.002 C 
ATOM      7  C   LIG A   1      -3.513   6.780 130.931  0.00  0.00    -0.023 C 
ATOM      8  C   LIG A   1      -2.470   5.574 130.978  0.00  0.00    -0.023 C 
ATOM      9  C   LIG A   1      -2.260   5.164 129.454  0.00  0.00    -0.002 C 
ATOM     10  C   LIG A   1      -2.244   6.570 128.812  0.00  0.00    +0.005 C 
ATOM     11  C   LIG A   1      -3.419   7.292 129.462  0.00  0.00    +0.008 C 
ATOM     12  C   LIG A   1      -2.912   4.430 131.920  0.00  0.00    +0.008 C 
ATOM     13  C   LIG A   1      -3.726   4.923 133.104  0.00  0.00    +0.008 C 
ATOM     14  C   LIG A   1      -1.083   6.039 131.532  0.00  0.00    +0.012 C 
ATOM     15  C   LIG A   1      -3.194   7.971 131.864  0.00  0.00    +0.012 C 
ATOM     16  C   LIG A   1      -6.102   7.192 131.022  0.00  0.00    +0.005 C 
ATOM     17  C   LIG A   1      -7.382   6.367 130.934  0.00  0.00    +0.005 C 
ATOM     18  C   LIG A   1      -5.838   6.125 133.799  0.00  0.00    +0.015 C 
ATOM     19  C   LIG A   1      -6.480   3.618 133.568  0.00  0.00    +0.010 C 
ATOM     20  C   LIG A   1      -7.856   3.134 133.991  0.00  0.00    +0.032 C 
ATOM     21  C   LIG A   1      -8.020   3.275 130.745  0.00  0.00    +0.014 C 
ATOM     22  C   LIG A   1      -9.934   4.803 131.133  0.00  0.00    +0.014 C 
ENDROOT
BRANCH   1  23
ATOM     23  O   LIG A   1      -9.840   2.407 132.833  0.00  0.00    -0.391 OA
ATOM     24  H   LIG A   1      -9.454   1.652 133.309  0.00  0.00    +0.210 HD
ENDBRANCH   1  23
BRANCH   9  25
ATOM     25  C   LIG A   1      -3.276   4.242 128.660  0.00  0.00    -0.010 C 
ATOM     26  C   LIG A   1      -4.288   3.444 129.494  0.00  0.00    +0.008 C 
BRANCH  25  27
ATOM     27  C   LIG A   1      -2.553   3.214 127.734  0.00  0.00    +0.007 C 
BRANCH  27  28
ATOM     28  C   LIG A   1      -2.706   3.488 126.232  0.00  0.00    +0.027 C 
BRANCH  28  29
ATOM     29  C   LIG A   1      -4.125   3.832 125.884  0.00  0.00    -0.028 C 
ATOM     30  C   LIG A   1      -5.163   2.975 125.831  0.00  0.00    -0.080 C 
ATOM     31  C   LIG A   1      -5.061   1.493 126.076  0.00  0.00    +0.038 C 
ATOM     32  C   LIG A   1      -6.549   3.456 125.491  0.00  0.00    +0.038 C 
ENDBRANCH  28  29
ENDBRANCH  27  28
ENDBRANCH  25  27
ENDBRANCH   9  25
TORSDOF 5
ENDMDL
MODEL 8
REMARK VINA RESULT:      -8.2      6.310      9.264
REMARK  Name = NuBBE_2429
REMARK  12 active torsions:
REMARK  status: ('A' for Active; 'I' for Inactive)
REMARK    1  A    between atoms: O_1  and  C_2
REMARK    2  A    between atoms: C_4  and  C_35
REMARK    3  A    between atoms: C_4  and  C_36
REMARK    4  A    between atoms: C_11  and  C_29
REMARK    5  A    between atoms: C_12  and  C_28
REMARK    6  A    between atoms: C_13  and  C_17
REMARK    7  A    between atoms: C_17  and  C_19
REMARK    8  A    between atoms: C_17  and  C_25
REMARK    9  A    between atoms: C_19  and  C_20
REMARK   10  A    between atoms: C_20  and  C_21
REMARK   11  A    between atoms: C_22  and  C_23
REMARK   12  A    between atoms: C_22  and  C_24
REMARK                            x       y       z     vdW  Elec       q    Type
REMARK                         _______ _______ _______ _____ _____    ______ ____
ROOT
ATOM      1  C   LIG A   1      -2.196   5.431 128.972  0.00  0.00    +0.120 C 
ATOM      2  C   LIG A   1      -3.448   4.522 128.914  0.00  0.00    -0.006 C 
ATOM      3  C   LIG A   1      -3.576   3.807 130.305  0.00  0.00    +0.004 C 
ATOM      4  C   LIG A   1      -3.620   4.794 131.506  0.00  0.00    -0.019 C 
ATOM      5  C   LIG A   1      -4.623   4.580 132.670  0.00  0.00    -0.019 C 
ATOM      6  C   LIG A   1      -5.771   3.623 132.317  0.00  0.00    +0.002 C 
ATOM      7  C   LIG A   1      -6.783   3.433 133.490  0.00  0.00    -0.023 C 
ATOM      8  C   LIG A   1      -7.420   4.848 133.855  0.00  0.00    -0.023 C 
ATOM      9  C   LIG A   1      -8.832   4.858 133.119  0.00  0.00    -0.002 C 
ATOM     10  C   LIG A   1      -9.259   3.393 133.369  0.00  0.00    +0.005 C 
ATOM     11  C   LIG A   1      -8.011   2.579 133.050  0.00  0.00    +0.008 C 
ATOM     12  C   LIG A   1      -6.487   6.034 133.520  0.00  0.00    +0.008 C 
ATOM     13  C   LIG A   1      -5.015   5.682 133.652  0.00  0.00    +0.008 C 
ATOM     14  C   LIG A   1      -7.693   4.972 135.390  0.00  0.00    +0.012 C 
ATOM     15  C   LIG A   1      -6.093   2.693 134.658  0.00  0.00    +0.012 C 
ATOM     16  C   LIG A   1      -5.238   2.342 131.672  0.00  0.00    +0.005 C 
ATOM     17  C   LIG A   1      -4.667   2.708 130.306  0.00  0.00    +0.005 C 
ATOM     18  C   LIG A   1      -3.172   4.172 132.810  0.00  0.00    +0.015 C 
ATOM     19  C   LIG A   1      -3.207   6.223 131.215  0.00  0.00    +0.010 C 
ATOM     20  C   LIG A   1      -2.132   6.392 130.156  0.00  0.00    +0.032 C 
ATOM     21  C   LIG A   1      -4.717   5.308 128.506  0.00  0.00    +0.014 C 
ATOM     22  C   LIG A   1      -3.211   3.470 127.796  0.00  0.00    +0.014 C 
ENDROOT
BRANCH   1  23
ATOM     23  O   LIG A   1      -2.048   6.168 127.758  0.00  0.00    -0.391 OA
ATOM     24  H   LIG A   1      -1.112   6.422 127.681  0.00  0.00    +0.210 HD
ENDBRANCH   1  23
BRANCH   9  25
ATOM     25  C   LIG A   1      -8.999   5.190 131.578  0.00  0.00    -0.010 C 
ATOM     26  C   LIG A   1      -8.756   6.645 131.151  0.00  0.00    +0.008 C 
BRANCH  25  27
ATOM     27  C   LIG A   1     -10.406   4.793 131.030  0.00  0.00    +0.007 C 
BRANCH  27  28
ATOM     28  C   LIG A   1     -11.451   5.915 131.077  0.00  0.00    +0.027 C 
BRANCH  28  29
ATOM     29  C   LIG A   1     -12.207   6.009 129.784  0.00  0.00    -0.028 C 
ATOM     30  C   LIG A   1     -12.689   7.135 129.223  0.00  0.00    -0.080 C 
ATOM     31  C   LIG A   1     -12.583   8.507 129.833  0.00  0.00    +0.038 C 
ATOM     32  C   LIG A   1     -13.412   7.093 127.902  0.00  0.00    +0.038 C 
ENDBRANCH  28  29
ENDBRANCH  27  28
ENDBRANCH  25  27
ENDBRANCH   9  25
TORSDOF 5
ENDMDL
MODEL 9
REMARK VINA RESULT:      -8.1      1.719      2.333
REMARK  Name = NuBBE_2429
REMARK  12 active torsions:
REMARK  status: ('A' for Active; 'I' for Inactive)
REMARK    1  A    between atoms: O_1  and  C_2
REMARK    2  A    between atoms: C_4  and  C_35
REMARK    3  A    between atoms: C_4  and  C_36
REMARK    4  A    between atoms: C_11  and  C_29
REMARK    5  A    between atoms: C_12  and  C_28
REMARK    6  A    between atoms: C_13  and  C_17
REMARK    7  A    between atoms: C_17  and  C_19
REMARK    8  A    between atoms: C_17  and  C_25
REMARK    9  A    between atoms: C_19  and  C_20
REMARK   10  A    between atoms: C_20  and  C_21
REMARK   11  A    between atoms: C_22  and  C_23
REMARK   12  A    between atoms: C_22  and  C_24
REMARK                            x       y       z     vdW  Elec       q    Type
REMARK                         _______ _______ _______ _____ _____    ______ ____
ROOT
ATOM      1  C   LIG A   1      -9.212   0.633 123.042  0.00  0.00    +0.120 C 
ATOM      2  C   LIG A   1      -8.496  -0.104 124.200  0.00  0.00    -0.006 C 
ATOM      3  C   LIG A   1      -7.120   0.613 124.435  0.00  0.00    +0.004 C 
ATOM      4  C   LIG A   1      -7.254   2.138 124.702  0.00  0.00    -0.019 C 
ATOM      5  C   LIG A   1      -6.420   2.824 125.815  0.00  0.00    -0.019 C 
ATOM      6  C   LIG A   1      -5.832   1.834 126.832  0.00  0.00    +0.002 C 
ATOM      7  C   LIG A   1      -5.012   2.538 127.958  0.00  0.00    -0.023 C 
ATOM      8  C   LIG A   1      -5.973   3.538 128.746  0.00  0.00    -0.023 C 
ATOM      9  C   LIG A   1      -6.398   2.738 130.056  0.00  0.00    -0.002 C 
ATOM     10  C   LIG A   1      -5.049   2.061 130.391  0.00  0.00    +0.005 C 
ATOM     11  C   LIG A   1      -4.558   1.525 129.051  0.00  0.00    +0.008 C 
ATOM     12  C   LIG A   1      -7.139   4.063 127.879  0.00  0.00    +0.008 C 
ATOM     13  C   LIG A   1      -6.773   4.185 126.410  0.00  0.00    +0.008 C 
ATOM     14  C   LIG A   1      -5.206   4.820 129.210  0.00  0.00    +0.012 C 
ATOM     15  C   LIG A   1      -3.740   3.177 127.354  0.00  0.00    +0.012 C 
ATOM     16  C   LIG A   1      -5.140   0.667 126.124  0.00  0.00    +0.005 C 
ATOM     17  C   LIG A   1      -6.214  -0.160 125.426  0.00  0.00    +0.005 C 
ATOM     18  C   LIG A   1      -6.003   2.919 124.363  0.00  0.00    +0.015 C 
ATOM     19  C   LIG A   1      -8.597   2.761 124.373  0.00  0.00    +0.010 C 
ATOM     20  C   LIG A   1      -9.335   2.146 123.197  0.00  0.00    +0.032 C 
ATOM     21  C   LIG A   1      -9.377  -0.179 125.471  0.00  0.00    +0.014 C 
ATOM     22  C   LIG A   1      -8.262  -1.571 123.747  0.00  0.00    +0.014 C 
ENDROOT
BRANCH   1  23
ATOM     23  O   LIG A   1     -10.507   0.077 122.810  0.00  0.00    -0.391 OA
ATOM     24  H   LIG A   1     -11.115   0.814 122.627  0.00  0.00    +0.210 HD
ENDBRANCH   1  23
BRANCH   9  25
ATOM     25  C   LIG A   1      -7.544   1.644 130.065  0.00  0.00    -0.010 C 
ATOM     26  C   LIG A   1      -8.991   2.153 130.139  0.00  0.00    +0.008 C 
BRANCH  25  27
ATOM     27  C   LIG A   1      -7.376   0.610 131.222  0.00  0.00    +0.007 C 
BRANCH  27  28
ATOM     28  C   LIG A   1      -7.592  -0.852 130.811  0.00  0.00    +0.027 C 
BRANCH  28  29
ATOM     29  C   LIG A   1      -6.407  -1.386 130.060  0.00  0.00    -0.028 C 
ATOM     30  C   LIG A   1      -6.431  -1.972 128.847  0.00  0.00    -0.080 C 
ATOM     31  C   LIG A   1      -7.679  -2.232 128.048  0.00  0.00    +0.038 C 
ATOM     32  C   LIG A   1      -5.160  -2.445 128.191  0.00  0.00    +0.038 C 
ENDBRANCH  28  29
ENDBRANCH  27  28
ENDBRANCH  25  27
ENDBRANCH   9  25
TORSDOF 5
ENDMDL
