MODEL 1
REMARK VINA RESULT:      -9.1      0.000      0.000
REMARK  Name = NuBBE_558
REMARK  14 active torsions:
REMARK  status: ('A' for Active; 'I' for Inactive)
REMARK    1  A    between atoms: O_1  and  C_2
REMARK    2  A    between atoms: C_6  and  O_7
REMARK    3  A    between atoms: C_10  and  O_11
REMARK    4  A    between atoms: O_11  and  C_12
REMARK    5  A    between atoms: C_15  and  C_37
REMARK    6  A    between atoms: C_17  and  O_25
REMARK    7  A    between atoms: C_19  and  O_24
REMARK    8  A    between atoms: C_21  and  O_23
REMARK    9  A    between atoms: O_25  and  C_26
REMARK   10  A    between atoms: C_26  and  C_27
REMARK   11  A    between atoms: C_28  and  C_29
REMARK   12  A    between atoms: C_31  and  O_32
REMARK   13  A    between atoms: C_38  and  C_40
REMARK   14  A    between atoms: C_43  and  O_46
REMARK                            x       y       z     vdW  Elec       q    Type
REMARK                         _______ _______ _______ _____ _____    ______ ____
ROOT
ATOM      1  O   LIG A   1      -7.048   4.533 127.861  0.00  0.00    -0.453 OA
ENDROOT
BRANCH   1   9
ATOM      2  C   LIG A   1      -1.660   5.641 131.257  0.00  0.00    +0.124 A 
ATOM      3  C   LIG A   1      -2.741   4.788 131.462  0.00  0.00    +0.092 A 
ATOM      4  C   LIG A   1      -3.741   4.696 130.490  0.00  0.00    +0.146 A 
ATOM      5  C   LIG A   1      -3.634   5.449 129.329  0.00  0.00    +0.109 A 
ATOM      6  C   LIG A   1      -2.533   6.292 129.124  0.00  0.00    +0.135 A 
ATOM      7  C   LIG A   1      -1.553   6.406 130.094  0.00  0.00    +0.091 A 
ATOM      8  C   LIG A   1      -4.691   5.342 128.342  0.00  0.00    +0.238 A 
ATOM      9  C   LIG A   1      -5.922   4.556 128.679  0.00  0.00    +0.214 A 
ATOM     10  C   LIG A   1      -5.864   3.838 129.828  0.00  0.00    +0.181 A 
ATOM     11  O   LIG A   1      -4.786   3.849 130.716  0.00  0.00    -0.451 OA
ATOM     12  O   LIG A   1      -4.498   5.942 127.285  0.00  0.00    -0.283 OA
BRANCH  10  13
ATOM     13  C   LIG A   1      -6.954   2.931 130.305  0.00  0.00    +0.021 A 
ATOM     14  C   LIG A   1      -6.963   1.556 130.015  0.00  0.00    +0.015 A 
ATOM     15  C   LIG A   1      -7.977   0.715 130.488  0.00  0.00    +0.046 A 
ATOM     16  C   LIG A   1      -8.980   1.239 131.290  0.00  0.00    +0.117 A 
ATOM     17  C   LIG A   1      -8.994   2.587 131.613  0.00  0.00    +0.046 A 
ATOM     18  C   LIG A   1      -7.980   3.427 131.132  0.00  0.00    +0.015 A 
BRANCH  16  19
ATOM     19  O   LIG A   1      -9.959   0.448 131.810  0.00  0.00    -0.507 OA
ATOM     20  H   LIG A   1     -10.818   0.797 131.517  0.00  0.00    +0.292 HD
ENDBRANCH  16  19
ENDBRANCH  10  13
BRANCH   2  21
ATOM     21  O   LIG A   1      -0.661   5.766 132.170  0.00  0.00    -0.506 OA
ATOM     22  H   LIG A   1      -0.979   6.289 132.922  0.00  0.00    +0.292 HD
ENDBRANCH   2  21
BRANCH   6  23
ATOM     23  O   LIG A   1      -2.359   7.037 127.990  0.00  0.00    -0.506 OA
ATOM     24  H   LIG A   1      -2.604   6.472 127.217  0.00  0.00    +0.292 HD
ENDBRANCH   6  23
ENDBRANCH   1   9
BRANCH   1  25
ATOM     25  C   LIG A   1      -7.168   3.529 126.842  0.00  0.00    +0.340 C 
ATOM     26  O   LIG A   1      -8.312   2.703 127.051  0.00  0.00    -0.333 OA
ATOM     27  C   LIG A   1      -8.246   1.532 126.231  0.00  0.00    +0.163 C 
ATOM     28  C   LIG A   1      -8.382   1.931 124.752  0.00  0.00    +0.236 C 
ATOM     29  C   LIG A   1      -7.572   3.197 124.369  0.00  0.00    +0.192 C 
ATOM     30  C   LIG A   1      -7.430   4.233 125.492  0.00  0.00    +0.215 C 
ATOM     31  C   LIG A   1      -9.364   0.591 126.658  0.00  0.00    +0.042 C 
BRANCH  30  32
ATOM     32  O   LIG A   1      -8.662   4.997 125.547  0.00  0.00    -0.383 OA
ATOM     33  H   LIG A   1      -9.282   4.530 124.955  0.00  0.00    +0.210 HD
ENDBRANCH  30  32
BRANCH  29  34
ATOM     34  O   LIG A   1      -8.209   3.828 123.237  0.00  0.00    -0.385 OA
ATOM     35  H   LIG A   1      -8.425   4.731 123.555  0.00  0.00    +0.210 HD
ENDBRANCH  29  34
BRANCH  28  36
ATOM     36  O   LIG A   1      -8.091   0.866 123.808  0.00  0.00    -0.453 OA
BRANCH  36  37
ATOM     37  C   LIG A   1      -9.133   0.195 123.270  0.00  0.00    +0.332 C 
ATOM     38  O   LIG A   1     -10.293   0.578 123.239  0.00  0.00    -0.246 OA
BRANCH  37  39
ATOM     39  C   LIG A   1      -8.795  -1.174 122.845  0.00  0.00    +0.092 C 
ATOM     40  C   LIG A   1      -8.456  -2.265 123.546  0.00  0.00    +0.015 C 
BRANCH  40  41
ATOM     41  C   LIG A   1      -8.249  -2.425 124.985  0.00  0.00    -0.021 A 
ATOM     42  C   LIG A   1      -7.039  -2.017 125.557  0.00  0.00    +0.053 A 
ATOM     43  C   LIG A   1      -6.774  -2.297 126.894  0.00  0.00    +0.117 A 
ATOM     44  C   LIG A   1      -7.721  -2.930 127.696  0.00  0.00    +0.045 A 
ATOM     45  C   LIG A   1      -8.940  -3.312 127.136  0.00  0.00    +0.004 A 
ATOM     46  C   LIG A   1      -9.197  -3.077 125.781  0.00  0.00    +0.008 A 
BRANCH  43  47
ATOM     47  O   LIG A   1      -5.547  -1.960 127.386  0.00  0.00    -0.507 OA
ATOM     48  H   LIG A   1      -5.201  -1.219 126.860  0.00  0.00    +0.292 HD
ENDBRANCH  43  47
ENDBRANCH  40  41
ENDBRANCH  37  39
ENDBRANCH  36  37
ENDBRANCH  28  36
ENDBRANCH   1  25
TORSDOF 13
ENDMDL
MODEL 2
REMARK VINA RESULT:      -9.0      3.984      8.436
REMARK  Name = NuBBE_558
REMARK  14 active torsions:
REMARK  status: ('A' for Active; 'I' for Inactive)
REMARK    1  A    between atoms: O_1  and  C_2
REMARK    2  A    between atoms: C_6  and  O_7
REMARK    3  A    between atoms: C_10  and  O_11
REMARK    4  A    between atoms: O_11  and  C_12
REMARK    5  A    between atoms: C_15  and  C_37
REMARK    6  A    between atoms: C_17  and  O_25
REMARK    7  A    between atoms: C_19  and  O_24
REMARK    8  A    between atoms: C_21  and  O_23
REMARK    9  A    between atoms: O_25  and  C_26
REMARK   10  A    between atoms: C_26  and  C_27
REMARK   11  A    between atoms: C_28  and  C_29
REMARK   12  A    between atoms: C_31  and  O_32
REMARK   13  A    between atoms: C_38  and  C_40
REMARK   14  A    between atoms: C_43  and  O_46
REMARK                            x       y       z     vdW  Elec       q    Type
REMARK                         _______ _______ _______ _____ _____    ______ ____
ROOT
ATOM      1  O   LIG A   1      -6.235   0.128 127.266  0.00  0.00    -0.453 OA
ENDROOT
BRANCH   1   9
ATOM      2  C   LIG A   1      -5.070  -4.120 131.998  0.00  0.00    +0.124 A 
ATOM      3  C   LIG A   1      -5.767  -4.220 130.796  0.00  0.00    +0.092 A 
ATOM      4  C   LIG A   1      -5.775  -3.138 129.912  0.00  0.00    +0.146 A 
ATOM      5  C   LIG A   1      -5.078  -1.983 130.241  0.00  0.00    +0.109 A 
ATOM      6  C   LIG A   1      -4.366  -1.899 131.446  0.00  0.00    +0.135 A 
ATOM      7  C   LIG A   1      -4.375  -2.958 132.336  0.00  0.00    +0.091 A 
ATOM      8  C   LIG A   1      -5.112  -0.872 129.311  0.00  0.00    +0.238 A 
ATOM      9  C   LIG A   1      -6.017  -0.951 128.119  0.00  0.00    +0.214 A 
ATOM     10  C   LIG A   1      -6.600  -2.157 127.902  0.00  0.00    +0.181 A 
ATOM     11  O   LIG A   1      -6.462  -3.265 128.740  0.00  0.00    -0.451 OA
ATOM     12  O   LIG A   1      -4.392   0.085 129.594  0.00  0.00    -0.283 OA
BRANCH  10  13
ATOM     13  C   LIG A   1      -7.476  -2.465 126.730  0.00  0.00    +0.021 A 
ATOM     14  C   LIG A   1      -6.964  -2.599 125.428  0.00  0.00    +0.015 A 
ATOM     15  C   LIG A   1      -7.792  -2.911 124.343  0.00  0.00    +0.046 A 
ATOM     16  C   LIG A   1      -9.145  -3.128 124.559  0.00  0.00    +0.117 A 
ATOM     17  C   LIG A   1      -9.684  -3.022 125.831  0.00  0.00    +0.046 A 
ATOM     18  C   LIG A   1      -8.851  -2.704 126.913  0.00  0.00    +0.015 A 
BRANCH  16  19
ATOM     19  O   LIG A   1      -9.977  -3.480 123.540  0.00  0.00    -0.507 OA
ATOM     20  H   LIG A   1      -9.634  -4.293 123.134  0.00  0.00    +0.292 HD
ENDBRANCH  16  19
ENDBRANCH  10  13
BRANCH   2  21
ATOM     21  O   LIG A   1      -5.030  -5.144 132.891  0.00  0.00    -0.506 OA
ATOM     22  H   LIG A   1      -4.315  -5.751 132.649  0.00  0.00    +0.292 HD
ENDBRANCH   2  21
BRANCH   6  23
ATOM     23  O   LIG A   1      -3.640  -0.800 131.813  0.00  0.00    -0.506 OA
ATOM     24  H   LIG A   1      -2.759  -1.113 132.134  0.00  0.00    +0.292 HD
ENDBRANCH   6  23
ENDBRANCH   1   9
BRANCH   1  25
ATOM     25  C   LIG A   1      -7.166   1.154 127.639  0.00  0.00    +0.340 C 
ATOM     26  O   LIG A   1      -7.425   1.144 129.041  0.00  0.00    -0.333 OA
ATOM     27  C   LIG A   1      -8.572   1.944 129.349  0.00  0.00    +0.163 C 
ATOM     28  C   LIG A   1      -8.255   3.423 129.074  0.00  0.00    +0.236 C 
ATOM     29  C   LIG A   1      -7.469   3.662 127.759  0.00  0.00    +0.192 C 
ATOM     30  C   LIG A   1      -6.512   2.528 127.369  0.00  0.00    +0.215 C 
ATOM     31  C   LIG A   1      -8.932   1.714 130.810  0.00  0.00    +0.042 C 
BRANCH  30  32
ATOM     32  O   LIG A   1      -5.303   2.679 128.157  0.00  0.00    -0.383 OA
ATOM     33  H   LIG A   1      -5.389   2.039 128.888  0.00  0.00    +0.210 HD
ENDBRANCH  30  32
BRANCH  29  34
ATOM     34  O   LIG A   1      -6.711   4.883 127.887  0.00  0.00    -0.385 OA
ATOM     35  H   LIG A   1      -5.859   4.686 127.441  0.00  0.00    +0.210 HD
ENDBRANCH  29  34
BRANCH  28  36
ATOM     36  O   LIG A   1      -9.407   4.308 129.117  0.00  0.00    -0.453 OA
BRANCH  36  37
ATOM     37  C   LIG A   1      -9.322   5.422 129.878  0.00  0.00    +0.332 C 
ATOM     38  O   LIG A   1      -8.410   6.235 129.858  0.00  0.00    -0.246 OA
BRANCH  37  39
ATOM     39  C   LIG A   1     -10.374   5.514 130.904  0.00  0.00    +0.092 C 
ATOM     40  C   LIG A   1     -11.574   6.111 130.898  0.00  0.00    +0.015 C 
BRANCH  40  41
ATOM     41  C   LIG A   1     -12.205   6.932 129.864  0.00  0.00    -0.021 A 
ATOM     42  C   LIG A   1     -12.234   8.324 130.013  0.00  0.00    +0.053 A 
ATOM     43  C   LIG A   1     -12.956   9.102 129.114  0.00  0.00    +0.117 A 
ATOM     44  C   LIG A   1     -13.608   8.525 128.027  0.00  0.00    +0.045 A 
ATOM     45  C   LIG A   1     -13.557   7.141 127.860  0.00  0.00    +0.004 A 
ATOM     46  C   LIG A   1     -12.872   6.345 128.785  0.00  0.00    +0.008 A 
BRANCH  43  47
ATOM     47  O   LIG A   1     -13.030  10.444 129.349  0.00  0.00    -0.507 OA
ATOM     48  H   LIG A   1     -12.174  10.740 129.699  0.00  0.00    +0.292 HD
ENDBRANCH  43  47
ENDBRANCH  40  41
ENDBRANCH  37  39
ENDBRANCH  36  37
ENDBRANCH  28  36
ENDBRANCH   1  25
TORSDOF 13
ENDMDL
MODEL 3
REMARK VINA RESULT:      -9.0      3.757      9.472
REMARK  Name = NuBBE_558
REMARK  14 active torsions:
REMARK  status: ('A' for Active; 'I' for Inactive)
REMARK    1  A    between atoms: O_1  and  C_2
REMARK    2  A    between atoms: C_6  and  O_7
REMARK    3  A    between atoms: C_10  and  O_11
REMARK    4  A    between atoms: O_11  and  C_12
REMARK    5  A    between atoms: C_15  and  C_37
REMARK    6  A    between atoms: C_17  and  O_25
REMARK    7  A    between atoms: C_19  and  O_24
REMARK    8  A    between atoms: C_21  and  O_23
REMARK    9  A    between atoms: O_25  and  C_26
REMARK   10  A    between atoms: C_26  and  C_27
REMARK   11  A    between atoms: C_28  and  C_29
REMARK   12  A    between atoms: C_31  and  O_32
REMARK   13  A    between atoms: C_38  and  C_40
REMARK   14  A    between atoms: C_43  and  O_46
REMARK                            x       y       z     vdW  Elec       q    Type
REMARK                         _______ _______ _______ _____ _____    ______ ____
ROOT
ATOM      1  O   LIG A   1      -7.101   1.089 128.433  0.00  0.00    -0.453 OA
ENDROOT
BRANCH   1   9
ATOM      2  C   LIG A   1      -9.248  -2.979 123.891  0.00  0.00    +0.124 A 
ATOM      3  C   LIG A   1      -8.760  -1.676 123.830  0.00  0.00    +0.092 A 
ATOM      4  C   LIG A   1      -8.275  -1.067 124.991  0.00  0.00    +0.146 A 
ATOM      5  C   LIG A   1      -8.277  -1.776 126.184  0.00  0.00    +0.109 A 
ATOM      6  C   LIG A   1      -8.754  -3.093 126.231  0.00  0.00    +0.135 A 
ATOM      7  C   LIG A   1      -9.259  -3.692 125.090  0.00  0.00    +0.091 A 
ATOM      8  C   LIG A   1      -7.777  -1.117 127.375  0.00  0.00    +0.238 A 
ATOM      9  C   LIG A   1      -7.432   0.340 127.307  0.00  0.00    +0.214 A 
ATOM     10  C   LIG A   1      -7.435   0.887 126.066  0.00  0.00    +0.181 A 
ATOM     11  O   LIG A   1      -7.799   0.208 124.901  0.00  0.00    -0.451 OA
ATOM     12  O   LIG A   1      -7.697  -1.820 128.382  0.00  0.00    -0.283 OA
BRANCH  10  13
ATOM     13  C   LIG A   1      -7.048   2.302 125.773  0.00  0.00    +0.021 A 
ATOM     14  C   LIG A   1      -5.706   2.703 125.665  0.00  0.00    +0.015 A 
ATOM     15  C   LIG A   1      -5.357   4.026 125.368  0.00  0.00    +0.046 A 
ATOM     16  C   LIG A   1      -6.358   4.959 125.139  0.00  0.00    +0.117 A 
ATOM     17  C   LIG A   1      -7.693   4.597 125.219  0.00  0.00    +0.046 A 
ATOM     18  C   LIG A   1      -8.036   3.273 125.523  0.00  0.00    +0.015 A 
BRANCH  16  19
ATOM     19  O   LIG A   1      -6.064   6.245 124.801  0.00  0.00    -0.507 OA
ATOM     20  H   LIG A   1      -5.725   6.250 123.890  0.00  0.00    +0.292 HD
ENDBRANCH  16  19
ENDBRANCH  10  13
BRANCH   2  21
ATOM     21  O   LIG A   1      -9.730  -3.616 122.791  0.00  0.00    -0.506 OA
ATOM     22  H   LIG A   1      -9.662  -4.574 122.921  0.00  0.00    +0.292 HD
ENDBRANCH   2  21
BRANCH   6  23
ATOM     23  O   LIG A   1      -8.756  -3.851 127.370  0.00  0.00    -0.506 OA
ATOM     24  H   LIG A   1      -9.678  -3.859 127.726  0.00  0.00    +0.292 HD
ENDBRANCH   6  23
ENDBRANCH   1   9
BRANCH   1  25
ATOM     25  C   LIG A   1      -7.977   2.137 128.873  0.00  0.00    +0.340 C 
ATOM     26  O   LIG A   1      -8.441   1.911 130.203  0.00  0.00    -0.333 OA
ATOM     27  C   LIG A   1      -9.541   2.775 130.508  0.00  0.00    +0.163 C 
ATOM     28  C   LIG A   1      -9.049   4.231 130.565  0.00  0.00    +0.236 C 
ATOM     29  C   LIG A   1      -8.059   4.602 129.431  0.00  0.00    +0.192 C 
ATOM     30  C   LIG A   1      -7.164   3.448 128.958  0.00  0.00    +0.215 C 
ATOM     31  C   LIG A   1     -10.134   2.335 131.839  0.00  0.00    +0.042 C 
BRANCH  30  32
ATOM     32  O   LIG A   1      -6.077   3.313 129.908  0.00  0.00    -0.383 OA
ATOM     33  H   LIG A   1      -6.209   4.032 130.556  0.00  0.00    +0.210 HD
ENDBRANCH  30  32
BRANCH  29  34
ATOM     34  O   LIG A   1      -7.217   5.682 129.888  0.00  0.00    -0.385 OA
ATOM     35  H   LIG A   1      -7.334   5.684 130.862  0.00  0.00    +0.210 HD
ENDBRANCH  29  34
BRANCH  28  36
ATOM     36  O   LIG A   1     -10.107   5.225 130.628  0.00  0.00    -0.453 OA
BRANCH  36  37
ATOM     37  C   LIG A   1     -10.041   6.159 131.603  0.00  0.00    +0.332 C 
ATOM     38  O   LIG A   1      -9.018   6.629 132.077  0.00  0.00    -0.246 OA
BRANCH  37  39
ATOM     39  C   LIG A   1     -11.348   6.472 132.206  0.00  0.00    +0.092 C 
ATOM     40  C   LIG A   1     -12.464   7.002 131.687  0.00  0.00    +0.015 C 
BRANCH  40  41
ATOM     41  C   LIG A   1     -12.720   7.505 130.337  0.00  0.00    -0.021 A 
ATOM     42  C   LIG A   1     -12.821   8.885 130.124  0.00  0.00    +0.053 A 
ATOM     43  C   LIG A   1     -13.207   9.368 128.878  0.00  0.00    +0.117 A 
ATOM     44  C   LIG A   1     -13.443   8.501 127.814  0.00  0.00    +0.045 A 
ATOM     45  C   LIG A   1     -13.315   7.127 128.015  0.00  0.00    +0.004 A 
ATOM     46  C   LIG A   1     -12.972   6.629 129.276  0.00  0.00    +0.008 A 
BRANCH  43  47
ATOM     47  O   LIG A   1     -13.378  10.715 128.741  0.00  0.00    -0.507 OA
ATOM     48  H   LIG A   1     -14.270  10.876 128.392  0.00  0.00    +0.292 HD
ENDBRANCH  43  47
ENDBRANCH  40  41
ENDBRANCH  37  39
ENDBRANCH  36  37
ENDBRANCH  28  36
ENDBRANCH   1  25
TORSDOF 13
ENDMDL
MODEL 4
REMARK VINA RESULT:      -9.0      3.864      8.262
REMARK  Name = NuBBE_558
REMARK  14 active torsions:
REMARK  status: ('A' for Active; 'I' for Inactive)
REMARK    1  A    between atoms: O_1  and  C_2
REMARK    2  A    between atoms: C_6  and  O_7
REMARK    3  A    between atoms: C_10  and  O_11
REMARK    4  A    between atoms: O_11  and  C_12
REMARK    5  A    between atoms: C_15  and  C_37
REMARK    6  A    between atoms: C_17  and  O_25
REMARK    7  A    between atoms: C_19  and  O_24
REMARK    8  A    between atoms: C_21  and  O_23
REMARK    9  A    between atoms: O_25  and  C_26
REMARK   10  A    between atoms: C_26  and  C_27
REMARK   11  A    between atoms: C_28  and  C_29
REMARK   12  A    between atoms: C_31  and  O_32
REMARK   13  A    between atoms: C_38  and  C_40
REMARK   14  A    between atoms: C_43  and  O_46
REMARK                            x       y       z     vdW  Elec       q    Type
REMARK                         _______ _______ _______ _____ _____    ______ ____
ROOT
ATOM      1  O   LIG A   1      -6.824   1.797 128.540  0.00  0.00    -0.453 OA
ENDROOT
BRANCH   1   9
ATOM      2  C   LIG A   1      -3.950  -3.145 131.557  0.00  0.00    +0.124 A 
ATOM      3  C   LIG A   1      -3.498  -1.882 131.183  0.00  0.00    +0.092 A 
ATOM      4  C   LIG A   1      -4.391  -0.972 130.611  0.00  0.00    +0.146 A 
ATOM      5  C   LIG A   1      -5.719  -1.339 130.436  0.00  0.00    +0.109 A 
ATOM      6  C   LIG A   1      -6.167  -2.607 130.832  0.00  0.00    +0.135 A 
ATOM      7  C   LIG A   1      -5.282  -3.520 131.375  0.00  0.00    +0.091 A 
ATOM      8  C   LIG A   1      -6.622  -0.379 129.831  0.00  0.00    +0.238 A 
ATOM      9  C   LIG A   1      -6.061   0.896 129.278  0.00  0.00    +0.214 A 
ATOM     10  C   LIG A   1      -4.757   1.137 129.564  0.00  0.00    +0.181 A 
ATOM     11  O   LIG A   1      -3.922   0.259 130.258  0.00  0.00    -0.451 OA
ATOM     12  O   LIG A   1      -7.807  -0.708 129.797  0.00  0.00    -0.283 OA
BRANCH  10  13
ATOM     13  C   LIG A   1      -4.029   2.384 129.170  0.00  0.00    +0.021 A 
ATOM     14  C   LIG A   1      -3.622   2.625 127.848  0.00  0.00    +0.015 A 
ATOM     15  C   LIG A   1      -2.962   3.806 127.488  0.00  0.00    +0.046 A 
ATOM     16  C   LIG A   1      -2.734   4.780 128.450  0.00  0.00    +0.117 A 
ATOM     17  C   LIG A   1      -3.137   4.585 129.762  0.00  0.00    +0.046 A 
ATOM     18  C   LIG A   1      -3.791   3.397 130.117  0.00  0.00    +0.015 A 
BRANCH  16  19
ATOM     19  O   LIG A   1      -2.137   5.962 128.135  0.00  0.00    -0.507 OA
ATOM     20  H   LIG A   1      -1.838   5.915 127.211  0.00  0.00    +0.292 HD
ENDBRANCH  16  19
ENDBRANCH  10  13
BRANCH   2  21
ATOM     21  O   LIG A   1      -3.122  -4.066 132.119  0.00  0.00    -0.506 OA
ATOM     22  H   LIG A   1      -3.435  -4.956 131.895  0.00  0.00    +0.292 HD
ENDBRANCH   2  21
BRANCH   6  23
ATOM     23  O   LIG A   1      -7.467  -3.015 130.710  0.00  0.00    -0.506 OA
ATOM     24  H   LIG A   1      -7.464  -3.990 130.550  0.00  0.00    +0.292 HD
ENDBRANCH   6  23
ENDBRANCH   1   9
BRANCH   1  25
ATOM     25  C   LIG A   1      -7.920   2.480 129.165  0.00  0.00    +0.340 C 
ATOM     26  O   LIG A   1      -7.720   2.618 130.571  0.00  0.00    -0.333 OA
ATOM     27  C   LIG A   1      -8.936   3.007 131.219  0.00  0.00    +0.163 C 
ATOM     28  C   LIG A   1      -9.314   4.434 130.789  0.00  0.00    +0.236 C 
ATOM     29  C   LIG A   1      -9.118   4.705 129.275  0.00  0.00    +0.192 C 
ATOM     30  C   LIG A   1      -7.962   3.928 128.629  0.00  0.00    +0.215 C 
ATOM     31  C   LIG A   1      -8.722   2.916 132.723  0.00  0.00    +0.042 C 
BRANCH  30  32
ATOM     32  O   LIG A   1      -6.730   4.624 128.948  0.00  0.00    -0.383 OA
ATOM     33  H   LIG A   1      -7.002   5.413 129.455  0.00  0.00    +0.210 HD
ENDBRANCH  30  32
BRANCH  29  34
ATOM     34  O   LIG A   1      -8.889   6.117 129.084  0.00  0.00    -0.385 OA
ATOM     35  H   LIG A   1      -9.527   6.549 129.691  0.00  0.00    +0.210 HD
ENDBRANCH  29  34
BRANCH  28  36
ATOM     36  O   LIG A   1     -10.647   4.853 131.187  0.00  0.00    -0.453 OA
BRANCH  36  37
ATOM     37  C   LIG A   1     -10.768   6.011 131.873  0.00  0.00    +0.332 C 
ATOM     38  O   LIG A   1      -9.944   6.476 132.644  0.00  0.00    -0.246 OA
BRANCH  37  39
ATOM     39  C   LIG A   1     -12.099   6.630 131.751  0.00  0.00    +0.092 C 
ATOM     40  C   LIG A   1     -12.703   7.251 130.728  0.00  0.00    +0.015 C 
BRANCH  40  41
ATOM     41  C   LIG A   1     -12.189   7.573 129.395  0.00  0.00    -0.021 A 
ATOM     42  C   LIG A   1     -12.699   6.898 128.280  0.00  0.00    +0.053 A 
ATOM     43  C   LIG A   1     -12.118   7.089 127.030  0.00  0.00    +0.117 A 
ATOM     44  C   LIG A   1     -11.069   7.988 126.855  0.00  0.00    +0.045 A 
ATOM     45  C   LIG A   1     -10.578   8.683 127.960  0.00  0.00    +0.004 A 
ATOM     46  C   LIG A   1     -11.124   8.464 129.229  0.00  0.00    +0.008 A 
BRANCH  43  47
ATOM     47  O   LIG A   1     -12.590   6.344 125.988  0.00  0.00    -0.507 OA
ATOM     48  H   LIG A   1     -13.502   6.078 126.191  0.00  0.00    +0.292 HD
ENDBRANCH  43  47
ENDBRANCH  40  41
ENDBRANCH  37  39
ENDBRANCH  36  37
ENDBRANCH  28  36
ENDBRANCH   1  25
TORSDOF 13
ENDMDL
MODEL 5
REMARK VINA RESULT:      -8.9      4.023      9.001
REMARK  Name = NuBBE_558
REMARK  14 active torsions:
REMARK  status: ('A' for Active; 'I' for Inactive)
REMARK    1  A    between atoms: O_1  and  C_2
REMARK    2  A    between atoms: C_6  and  O_7
REMARK    3  A    between atoms: C_10  and  O_11
REMARK    4  A    between atoms: O_11  and  C_12
REMARK    5  A    between atoms: C_15  and  C_37
REMARK    6  A    between atoms: C_17  and  O_25
REMARK    7  A    between atoms: C_19  and  O_24
REMARK    8  A    between atoms: C_21  and  O_23
REMARK    9  A    between atoms: O_25  and  C_26
REMARK   10  A    between atoms: C_26  and  C_27
REMARK   11  A    between atoms: C_28  and  C_29
REMARK   12  A    between atoms: C_31  and  O_32
REMARK   13  A    between atoms: C_38  and  C_40
REMARK   14  A    between atoms: C_43  and  O_46
REMARK                            x       y       z     vdW  Elec       q    Type
REMARK                         _______ _______ _______ _____ _____    ______ ____
ROOT
ATOM      1  O   LIG A   1      -8.657  -0.523 130.836  0.00  0.00    -0.453 OA
ENDROOT
BRANCH   1   9
ATOM      2  C   LIG A   1      -4.720  -5.053 133.238  0.00  0.00    +0.124 A 
ATOM      3  C   LIG A   1      -5.236  -4.837 131.962  0.00  0.00    +0.092 A 
ATOM      4  C   LIG A   1      -6.007  -3.698 131.714  0.00  0.00    +0.146 A 
ATOM      5  C   LIG A   1      -6.237  -2.794 132.742  0.00  0.00    +0.109 A 
ATOM      6  C   LIG A   1      -5.699  -3.012 134.018  0.00  0.00    +0.135 A 
ATOM      7  C   LIG A   1      -4.955  -4.150 134.275  0.00  0.00    +0.091 A 
ATOM      8  C   LIG A   1      -7.049  -1.626 132.460  0.00  0.00    +0.238 A 
ATOM      9  C   LIG A   1      -7.734  -1.523 131.132  0.00  0.00    +0.214 A 
ATOM     10  C   LIG A   1      -7.379  -2.456 130.213  0.00  0.00    +0.181 A 
ATOM     11  O   LIG A   1      -6.496  -3.510 130.455  0.00  0.00    -0.451 OA
ATOM     12  O   LIG A   1      -7.133  -0.801 133.370  0.00  0.00    -0.283 OA
BRANCH  10  13
ATOM     13  C   LIG A   1      -7.889  -2.484 128.807  0.00  0.00    +0.021 A 
ATOM     14  C   LIG A   1      -8.658  -3.550 128.312  0.00  0.00    +0.015 A 
ATOM     15  C   LIG A   1      -9.148  -3.554 127.001  0.00  0.00    +0.046 A 
ATOM     16  C   LIG A   1      -8.902  -2.464 126.178  0.00  0.00    +0.117 A 
ATOM     17  C   LIG A   1      -8.162  -1.385 126.637  0.00  0.00    +0.046 A 
ATOM     18  C   LIG A   1      -7.668  -1.390 127.948  0.00  0.00    +0.015 A 
BRANCH  16  19
ATOM     19  O   LIG A   1      -9.399  -2.405 124.912  0.00  0.00    -0.507 OA
ATOM     20  H   LIG A   1      -8.651  -2.346 124.294  0.00  0.00    +0.292 HD
ENDBRANCH  16  19
ENDBRANCH  10  13
BRANCH   2  21
ATOM     21  O   LIG A   1      -3.963  -6.144 133.530  0.00  0.00    -0.506 OA
ATOM     22  H   LIG A   1      -4.532  -6.928 133.564  0.00  0.00    +0.292 HD
ENDBRANCH   2  21
BRANCH   6  23
ATOM     23  O   LIG A   1      -5.868  -2.144 135.062  0.00  0.00    -0.506 OA
ATOM     24  H   LIG A   1      -6.339  -1.347 134.718  0.00  0.00    +0.292 HD
ENDBRANCH   6  23
ENDBRANCH   1   9
BRANCH   1  25
ATOM     25  C   LIG A   1      -8.334   0.848 131.111  0.00  0.00    +0.340 C 
ATOM     26  O   LIG A   1      -8.690   1.700 130.024  0.00  0.00    -0.333 OA
ATOM     27  C   LIG A   1      -8.085   2.989 130.172  0.00  0.00    +0.163 C 
ATOM     28  C   LIG A   1      -8.700   3.709 131.382  0.00  0.00    +0.236 C 
ATOM     29  C   LIG A   1      -8.901   2.796 132.619  0.00  0.00    +0.192 C 
ATOM     30  C   LIG A   1      -9.207   1.329 132.291  0.00  0.00    +0.215 C 
ATOM     31  C   LIG A   1      -8.311   3.769 128.885  0.00  0.00    +0.042 C 
BRANCH  30  32
ATOM     32  O   LIG A   1     -10.614   1.236 131.953  0.00  0.00    -0.383 OA
ATOM     33  H   LIG A   1     -10.725   1.784 131.153  0.00  0.00    +0.210 HD
ENDBRANCH  30  32
BRANCH  29  34
ATOM     34  O   LIG A   1      -9.982   3.326 133.415  0.00  0.00    -0.385 OA
ATOM     35  H   LIG A   1      -9.540   3.929 134.052  0.00  0.00    +0.210 HD
ENDBRANCH  29  34
BRANCH  28  36
ATOM     36  O   LIG A   1      -8.007   4.922 131.783  0.00  0.00    -0.453 OA
BRANCH  36  37
ATOM     37  C   LIG A   1      -8.731   6.057 131.897  0.00  0.00    +0.332 C 
ATOM     38  O   LIG A   1      -9.691   6.224 132.633  0.00  0.00    -0.246 OA
BRANCH  37  39
ATOM     39  C   LIG A   1      -8.372   7.085 130.904  0.00  0.00    +0.092 C 
ATOM     40  C   LIG A   1      -9.068   7.636 129.901  0.00  0.00    +0.015 C 
BRANCH  40  41
ATOM     41  C   LIG A   1     -10.419   7.335 129.425  0.00  0.00    -0.021 A 
ATOM     42  C   LIG A   1     -10.621   7.021 128.076  0.00  0.00    +0.053 A 
ATOM     43  C   LIG A   1     -11.914   6.878 127.583  0.00  0.00    +0.117 A 
ATOM     44  C   LIG A   1     -13.019   6.986 128.424  0.00  0.00    +0.045 A 
ATOM     45  C   LIG A   1     -12.820   7.271 129.775  0.00  0.00    +0.004 A 
ATOM     46  C   LIG A   1     -11.526   7.462 130.271  0.00  0.00    +0.008 A 
BRANCH  43  47
ATOM     47  O   LIG A   1     -12.065   6.660 126.245  0.00  0.00    -0.507 OA
ATOM     48  H   LIG A   1     -12.406   5.759 126.119  0.00  0.00    +0.292 HD
ENDBRANCH  43  47
ENDBRANCH  40  41
ENDBRANCH  37  39
ENDBRANCH  36  37
ENDBRANCH  28  36
ENDBRANCH   1  25
TORSDOF 13
ENDMDL
MODEL 6
REMARK VINA RESULT:      -8.9      3.342      6.169
REMARK  Name = NuBBE_558
REMARK  14 active torsions:
REMARK  status: ('A' for Active; 'I' for Inactive)
REMARK    1  A    between atoms: O_1  and  C_2
REMARK    2  A    between atoms: C_6  and  O_7
REMARK    3  A    between atoms: C_10  and  O_11
REMARK    4  A    between atoms: O_11  and  C_12
REMARK    5  A    between atoms: C_15  and  C_37
REMARK    6  A    between atoms: C_17  and  O_25
REMARK    7  A    between atoms: C_19  and  O_24
REMARK    8  A    between atoms: C_21  and  O_23
REMARK    9  A    between atoms: O_25  and  C_26
REMARK   10  A    between atoms: C_26  and  C_27
REMARK   11  A    between atoms: C_28  and  C_29
REMARK   12  A    between atoms: C_31  and  O_32
REMARK   13  A    between atoms: C_38  and  C_40
REMARK   14  A    between atoms: C_43  and  O_46
REMARK                            x       y       z     vdW  Elec       q    Type
REMARK                         _______ _______ _______ _____ _____    ______ ____
ROOT
ATOM      1  O   LIG A   1      -7.358   4.264 129.855  0.00  0.00    -0.453 OA
ENDROOT
BRANCH   1   9
ATOM      2  C   LIG A   1     -12.317   8.301 128.902  0.00  0.00    +0.124 A 
ATOM      3  C   LIG A   1     -11.585   7.963 130.038  0.00  0.00    +0.092 A 
ATOM      4  C   LIG A   1     -10.486   7.108 129.921  0.00  0.00    +0.146 A 
ATOM      5  C   LIG A   1     -10.133   6.619 128.671  0.00  0.00    +0.109 A 
ATOM      6  C   LIG A   1     -10.866   6.978 127.531  0.00  0.00    +0.135 A 
ATOM      7  C   LIG A   1     -11.971   7.804 127.645  0.00  0.00    +0.091 A 
ATOM      8  C   LIG A   1      -8.995   5.726 128.580  0.00  0.00    +0.238 A 
ATOM      9  C   LIG A   1      -8.347   5.244 129.842  0.00  0.00    +0.214 A 
ATOM     10  C   LIG A   1      -8.768   5.843 130.984  0.00  0.00    +0.181 A 
ATOM     11  O   LIG A   1      -9.785   6.798 131.049  0.00  0.00    -0.451 OA
ATOM     12  O   LIG A   1      -8.655   5.406 127.440  0.00  0.00    -0.283 OA
BRANCH  10  13
ATOM     13  C   LIG A   1      -8.198   5.561 132.338  0.00  0.00    +0.021 A 
ATOM     14  C   LIG A   1      -8.882   4.788 133.291  0.00  0.00    +0.015 A 
ATOM     15  C   LIG A   1      -8.328   4.512 134.546  0.00  0.00    +0.046 A 
ATOM     16  C   LIG A   1      -7.058   4.981 134.848  0.00  0.00    +0.117 A 
ATOM     17  C   LIG A   1      -6.344   5.732 133.927  0.00  0.00    +0.046 A 
ATOM     18  C   LIG A   1      -6.907   6.011 132.674  0.00  0.00    +0.015 A 
BRANCH  16  19
ATOM     19  O   LIG A   1      -6.461   4.697 136.039  0.00  0.00    -0.507 OA
ATOM     20  H   LIG A   1      -6.541   3.741 136.198  0.00  0.00    +0.292 HD
ENDBRANCH  16  19
ENDBRANCH  10  13
BRANCH   2  21
ATOM     21  O   LIG A   1     -13.394   9.128 128.963  0.00  0.00    -0.506 OA
ATOM     22  H   LIG A   1     -13.324   9.687 129.752  0.00  0.00    +0.292 HD
ENDBRANCH   2  21
BRANCH   6  23
ATOM     23  O   LIG A   1     -10.552   6.550 126.271  0.00  0.00    -0.506 OA
ATOM     24  H   LIG A   1      -9.585   6.704 126.132  0.00  0.00    +0.292 HD
ENDBRANCH   6  23
ENDBRANCH   1   9
BRANCH   1  25
ATOM     25  C   LIG A   1      -7.729   2.878 129.887  0.00  0.00    +0.340 C 
ATOM     26  O   LIG A   1      -7.550   2.257 128.616  0.00  0.00    -0.333 OA
ATOM     27  C   LIG A   1      -8.209   0.987 128.576  0.00  0.00    +0.163 C 
ATOM     28  C   LIG A   1      -7.504   0.011 129.532  0.00  0.00    +0.236 C 
ATOM     29  C   LIG A   1      -7.110   0.642 130.893  0.00  0.00    +0.192 C 
ATOM     30  C   LIG A   1      -6.757   2.135 130.830  0.00  0.00    +0.215 C 
ATOM     31  C   LIG A   1      -8.178   0.481 127.141  0.00  0.00    +0.042 C 
BRANCH  30  32
ATOM     32  O   LIG A   1      -5.394   2.246 130.346  0.00  0.00    -0.383 OA
ATOM     33  H   LIG A   1      -5.143   3.179 130.490  0.00  0.00    +0.210 HD
ENDBRANCH  30  32
BRANCH  29  34
ATOM     34  O   LIG A   1      -5.979  -0.078 131.427  0.00  0.00    -0.385 OA
ATOM     35  H   LIG A   1      -6.297  -0.421 132.290  0.00  0.00    +0.210 HD
ENDBRANCH  29  34
BRANCH  28  36
ATOM     36  O   LIG A   1      -8.218  -1.233 129.764  0.00  0.00    -0.453 OA
BRANCH  36  37
ATOM     37  C   LIG A   1      -7.567  -2.391 129.518  0.00  0.00    +0.332 C 
ATOM     38  O   LIG A   1      -6.356  -2.546 129.513  0.00  0.00    -0.246 OA
BRANCH  37  39
ATOM     39  C   LIG A   1      -8.454  -3.479 129.069  0.00  0.00    +0.092 C 
ATOM     40  C   LIG A   1      -8.822  -3.880 127.845  0.00  0.00    +0.015 C 
BRANCH  40  41
ATOM     41  C   LIG A   1      -8.499  -3.308 126.537  0.00  0.00    -0.021 A 
ATOM     42  C   LIG A   1      -9.482  -3.269 125.541  0.00  0.00    +0.053 A 
ATOM     43  C   LIG A   1      -9.147  -2.864 124.252  0.00  0.00    +0.117 A 
ATOM     44  C   LIG A   1      -7.857  -2.439 123.946  0.00  0.00    +0.045 A 
ATOM     45  C   LIG A   1      -6.883  -2.449 124.944  0.00  0.00    +0.004 A 
ATOM     46  C   LIG A   1      -7.198  -2.899 126.231  0.00  0.00    +0.008 A 
BRANCH  43  47
ATOM     47  O   LIG A   1     -10.115  -2.926 123.293  0.00  0.00    -0.507 OA
ATOM     48  H   LIG A   1     -10.906  -2.472 123.627  0.00  0.00    +0.292 HD
ENDBRANCH  43  47
ENDBRANCH  40  41
ENDBRANCH  37  39
ENDBRANCH  36  37
ENDBRANCH  28  36
ENDBRANCH   1  25
TORSDOF 13
ENDMDL
MODEL 7
REMARK VINA RESULT:      -8.8      3.443      5.165
REMARK  Name = NuBBE_558
REMARK  14 active torsions:
REMARK  status: ('A' for Active; 'I' for Inactive)
REMARK    1  A    between atoms: O_1  and  C_2
REMARK    2  A    between atoms: C_6  and  O_7
REMARK    3  A    between atoms: C_10  and  O_11
REMARK    4  A    between atoms: O_11  and  C_12
REMARK    5  A    between atoms: C_15  and  C_37
REMARK    6  A    between atoms: C_17  and  O_25
REMARK    7  A    between atoms: C_19  and  O_24
REMARK    8  A    between atoms: C_21  and  O_23
REMARK    9  A    between atoms: O_25  and  C_26
REMARK   10  A    between atoms: C_26  and  C_27
REMARK   11  A    between atoms: C_28  and  C_29
REMARK   12  A    between atoms: C_31  and  O_32
REMARK   13  A    between atoms: C_38  and  C_40
REMARK   14  A    between atoms: C_43  and  O_46
REMARK                            x       y       z     vdW  Elec       q    Type
REMARK                         _______ _______ _______ _____ _____    ______ ____
ROOT
ATOM      1  O   LIG A   1      -9.499   3.931 129.853  0.00  0.00    -0.453 OA
ENDROOT
BRANCH   1   9
ATOM      2  C   LIG A   1      -7.124   5.502 135.657  0.00  0.00    +0.124 A 
ATOM      3  C   LIG A   1      -7.977   6.167 134.779  0.00  0.00    +0.092 A 
ATOM      4  C   LIG A   1      -8.398   5.528 133.609  0.00  0.00    +0.146 A 
ATOM      5  C   LIG A   1      -7.967   4.234 133.347  0.00  0.00    +0.109 A 
ATOM      6  C   LIG A   1      -7.122   3.567 134.245  0.00  0.00    +0.135 A 
ATOM      7  C   LIG A   1      -6.682   4.205 135.392  0.00  0.00    +0.091 A 
ATOM      8  C   LIG A   1      -8.410   3.599 132.121  0.00  0.00    +0.238 A 
ATOM      9  C   LIG A   1      -9.176   4.409 131.120  0.00  0.00    +0.214 A 
ATOM     10  C   LIG A   1      -9.563   5.641 131.534  0.00  0.00    +0.181 A 
ATOM     11  O   LIG A   1      -9.236   6.201 132.771  0.00  0.00    -0.451 OA
ATOM     12  O   LIG A   1      -8.092   2.418 131.986  0.00  0.00    -0.283 OA
BRANCH  10  13
ATOM     13  C   LIG A   1     -10.398   6.576 130.716  0.00  0.00    +0.021 A 
ATOM     14  C   LIG A   1     -11.758   6.798 130.990  0.00  0.00    +0.015 A 
ATOM     15  C   LIG A   1     -12.522   7.693 130.232  0.00  0.00    +0.046 A 
ATOM     16  C   LIG A   1     -11.918   8.406 129.206  0.00  0.00    +0.117 A 
ATOM     17  C   LIG A   1     -10.574   8.227 128.918  0.00  0.00    +0.046 A 
ATOM     18  C   LIG A   1      -9.815   7.325 129.676  0.00  0.00    +0.015 A 
BRANCH  16  19
ATOM     19  O   LIG A   1     -12.611   9.320 128.474  0.00  0.00    -0.507 OA
ATOM     20  H   LIG A   1     -13.119   8.844 127.796  0.00  0.00    +0.292 HD
ENDBRANCH  16  19
ENDBRANCH  10  13
BRANCH   2  21
ATOM     21  O   LIG A   1      -6.687   6.079 136.808  0.00  0.00    -0.506 OA
ATOM     22  H   LIG A   1      -6.500   7.015 136.644  0.00  0.00    +0.292 HD
ENDBRANCH   2  21
BRANCH   6  23
ATOM     23  O   LIG A   1      -6.686   2.285 134.054  0.00  0.00    -0.506 OA
ATOM     24  H   LIG A   1      -5.698   2.295 134.075  0.00  0.00    +0.292 HD
ENDBRANCH   6  23
ENDBRANCH   1   9
BRANCH   1  25
ATOM     25  C   LIG A   1      -8.540   3.154 129.119  0.00  0.00    +0.340 C 
ATOM     26  O   LIG A   1      -9.164   2.375 128.100  0.00  0.00    -0.333 OA
ATOM     27  C   LIG A   1      -8.262   1.384 127.597  0.00  0.00    +0.163 C 
ATOM     28  C   LIG A   1      -7.113   2.073 126.841  0.00  0.00    +0.236 C 
ATOM     29  C   LIG A   1      -6.565   3.337 127.552  0.00  0.00    +0.192 C 
ATOM     30  C   LIG A   1      -7.608   4.123 128.359  0.00  0.00    +0.215 C 
ATOM     31  C   LIG A   1      -9.044   0.448 126.688  0.00  0.00    +0.042 C 
BRANCH  30  32
ATOM     32  O   LIG A   1      -8.367   4.935 127.428  0.00  0.00    -0.383 OA
ATOM     33  H   LIG A   1      -7.790   5.042 126.648  0.00  0.00    +0.210 HD
ENDBRANCH  30  32
BRANCH  29  34
ATOM     34  O   LIG A   1      -5.993   4.215 126.559  0.00  0.00    -0.385 OA
ATOM     35  H   LIG A   1      -5.163   4.537 126.971  0.00  0.00    +0.210 HD
ENDBRANCH  29  34
BRANCH  28  36
ATOM     36  O   LIG A   1      -6.008   1.197 126.491  0.00  0.00    -0.453 OA
BRANCH  36  37
ATOM     37  C   LIG A   1      -6.043   0.585 125.286  0.00  0.00    +0.332 C 
ATOM     38  O   LIG A   1      -6.724   0.923 124.330  0.00  0.00    -0.246 OA
BRANCH  37  39
ATOM     39  C   LIG A   1      -5.290  -0.681 125.249  0.00  0.00    +0.092 C 
ATOM     40  C   LIG A   1      -5.691  -1.957 125.326  0.00  0.00    +0.015 C 
BRANCH  40  41
ATOM     41  C   LIG A   1      -7.031  -2.506 125.541  0.00  0.00    -0.021 A 
ATOM     42  C   LIG A   1      -7.874  -2.712 124.443  0.00  0.00    +0.053 A 
ATOM     43  C   LIG A   1      -9.197  -3.094 124.647  0.00  0.00    +0.117 A 
ATOM     44  C   LIG A   1      -9.686  -3.330 125.929  0.00  0.00    +0.045 A 
ATOM     45  C   LIG A   1      -8.839  -3.153 127.023  0.00  0.00    +0.004 A 
ATOM     46  C   LIG A   1      -7.521  -2.725 126.832  0.00  0.00    +0.008 A 
BRANCH  43  47
ATOM     47  O   LIG A   1     -10.006  -3.197 123.553  0.00  0.00    -0.507 OA
ATOM     48  H   LIG A   1     -10.925  -3.266 123.859  0.00  0.00    +0.292 HD
ENDBRANCH  43  47
ENDBRANCH  40  41
ENDBRANCH  37  39
ENDBRANCH  36  37
ENDBRANCH  28  36
ENDBRANCH   1  25
TORSDOF 13
ENDMDL
MODEL 8
REMARK VINA RESULT:      -8.8      3.448      6.712
REMARK  Name = NuBBE_558
REMARK  14 active torsions:
REMARK  status: ('A' for Active; 'I' for Inactive)
REMARK    1  A    between atoms: O_1  and  C_2
REMARK    2  A    between atoms: C_6  and  O_7
REMARK    3  A    between atoms: C_10  and  O_11
REMARK    4  A    between atoms: O_11  and  C_12
REMARK    5  A    between atoms: C_15  and  C_37
REMARK    6  A    between atoms: C_17  and  O_25
REMARK    7  A    between atoms: C_19  and  O_24
REMARK    8  A    between atoms: C_21  and  O_23
REMARK    9  A    between atoms: O_25  and  C_26
REMARK   10  A    between atoms: C_26  and  C_27
REMARK   11  A    between atoms: C_28  and  C_29
REMARK   12  A    between atoms: C_31  and  O_32
REMARK   13  A    between atoms: C_38  and  C_40
REMARK   14  A    between atoms: C_43  and  O_46
REMARK                            x       y       z     vdW  Elec       q    Type
REMARK                         _______ _______ _______ _____ _____    ______ ____
ROOT
ATOM      1  O   LIG A   1      -9.393   3.845 129.616  0.00  0.00    -0.453 OA
ENDROOT
BRANCH   1   9
ATOM      2  C   LIG A   1      -7.182   5.362 135.499  0.00  0.00    +0.124 A 
ATOM      3  C   LIG A   1      -8.025   6.027 134.612  0.00  0.00    +0.092 A 
ATOM      4  C   LIG A   1      -8.407   5.400 133.422  0.00  0.00    +0.146 A 
ATOM      5  C   LIG A   1      -7.949   4.118 133.150  0.00  0.00    +0.109 A 
ATOM      6  C   LIG A   1      -7.114   3.450 134.058  0.00  0.00    +0.135 A 
ATOM      7  C   LIG A   1      -6.713   4.076 135.225  0.00  0.00    +0.091 A 
ATOM      8  C   LIG A   1      -8.352   3.495 131.905  0.00  0.00    +0.238 A 
ATOM      9  C   LIG A   1      -9.107   4.308 130.898  0.00  0.00    +0.214 A 
ATOM     10  C   LIG A   1      -9.525   5.528 131.321  0.00  0.00    +0.181 A 
ATOM     11  O   LIG A   1      -9.236   6.073 132.574  0.00  0.00    -0.451 OA
ATOM     12  O   LIG A   1      -8.012   2.321 131.759  0.00  0.00    -0.283 OA
BRANCH  10  13
ATOM     13  C   LIG A   1     -10.355   6.462 130.499  0.00  0.00    +0.021 A 
ATOM     14  C   LIG A   1     -11.757   6.483 130.579  0.00  0.00    +0.015 A 
ATOM     15  C   LIG A   1     -12.521   7.378 129.820  0.00  0.00    +0.046 A 
ATOM     16  C   LIG A   1     -11.881   8.291 128.995  0.00  0.00    +0.117 A 
ATOM     17  C   LIG A   1     -10.498   8.312 128.903  0.00  0.00    +0.046 A 
ATOM     18  C   LIG A   1      -9.739   7.409 129.660  0.00  0.00    +0.015 A 
BRANCH  16  19
ATOM     19  O   LIG A   1     -12.583   9.210 128.276  0.00  0.00    -0.507 OA
ATOM     20  H   LIG A   1     -12.529  10.063 128.738  0.00  0.00    +0.292 HD
ENDBRANCH  16  19
ENDBRANCH  10  13
BRANCH   2  21
ATOM     21  O   LIG A   1      -6.782   5.927 136.669  0.00  0.00    -0.506 OA
ATOM     22  H   LIG A   1      -5.990   6.462 136.511  0.00  0.00    +0.292 HD
ENDBRANCH   2  21
BRANCH   6  23
ATOM     23  O   LIG A   1      -6.653   2.178 133.857  0.00  0.00    -0.506 OA
ATOM     24  H   LIG A   1      -6.738   1.689 134.712  0.00  0.00    +0.292 HD
ENDBRANCH   6  23
ENDBRANCH   1   9
BRANCH   1  25
ATOM     25  C   LIG A   1      -8.328   3.377 128.775  0.00  0.00    +0.340 C 
ATOM     26  O   LIG A   1      -8.807   2.491 127.765  0.00  0.00    -0.333 OA
ATOM     27  C   LIG A   1      -7.719   1.795 127.146  0.00  0.00    +0.163 C 
ATOM     28  C   LIG A   1      -6.862   2.789 126.346  0.00  0.00    +0.236 C 
ATOM     29  C   LIG A   1      -6.611   4.132 127.079  0.00  0.00    +0.192 C 
ATOM     30  C   LIG A   1      -7.753   4.584 128.000  0.00  0.00    +0.215 C 
ATOM     31  C   LIG A   1      -8.300   0.711 126.249  0.00  0.00    +0.042 C 
BRANCH  30  32
ATOM     32  O   LIG A   1      -8.776   5.190 127.171  0.00  0.00    -0.383 OA
ATOM     33  H   LIG A   1      -8.983   4.525 126.487  0.00  0.00    +0.210 HD
ENDBRANCH  30  32
BRANCH  29  34
ATOM     34  O   LIG A   1      -6.378   5.161 126.094  0.00  0.00    -0.385 OA
ATOM     35  H   LIG A   1      -5.418   5.097 125.902  0.00  0.00    +0.210 HD
ENDBRANCH  29  34
BRANCH  28  36
ATOM     36  O   LIG A   1      -5.598   2.254 125.870  0.00  0.00    -0.453 OA
BRANCH  36  37
ATOM     37  C   LIG A   1      -4.595   2.109 126.764  0.00  0.00    +0.332 C 
ATOM     38  O   LIG A   1      -4.679   1.562 127.852  0.00  0.00    -0.246 OA
BRANCH  37  39
ATOM     39  C   LIG A   1      -3.369   2.837 126.394  0.00  0.00    +0.092 C 
ATOM     40  C   LIG A   1      -2.750   3.883 126.957  0.00  0.00    +0.015 C 
BRANCH  40  41
ATOM     41  C   LIG A   1      -3.142   4.690 128.113  0.00  0.00    -0.021 A 
ATOM     42  C   LIG A   1      -3.521   6.024 127.923  0.00  0.00    +0.053 A 
ATOM     43  C   LIG A   1      -3.755   6.842 129.025  0.00  0.00    +0.117 A 
ATOM     44  C   LIG A   1      -3.674   6.340 130.321  0.00  0.00    +0.045 A 
ATOM     45  C   LIG A   1      -3.325   5.004 130.512  0.00  0.00    +0.004 A 
ATOM     46  C   LIG A   1      -3.043   4.186 129.413  0.00  0.00    +0.008 A 
BRANCH  43  47
ATOM     47  O   LIG A   1      -4.035   8.157 128.794  0.00  0.00    -0.507 OA
ATOM     48  H   LIG A   1      -4.374   8.547 129.617  0.00  0.00    +0.292 HD
ENDBRANCH  43  47
ENDBRANCH  40  41
ENDBRANCH  37  39
ENDBRANCH  36  37
ENDBRANCH  28  36
ENDBRANCH   1  25
TORSDOF 13
ENDMDL
MODEL 9
REMARK VINA RESULT:      -8.8      3.748      8.795
REMARK  Name = NuBBE_558
REMARK  14 active torsions:
REMARK  status: ('A' for Active; 'I' for Inactive)
REMARK    1  A    between atoms: O_1  and  C_2
REMARK    2  A    between atoms: C_6  and  O_7
REMARK    3  A    between atoms: C_10  and  O_11
REMARK    4  A    between atoms: O_11  and  C_12
REMARK    5  A    between atoms: C_15  and  C_37
REMARK    6  A    between atoms: C_17  and  O_25
REMARK    7  A    between atoms: C_19  and  O_24
REMARK    8  A    between atoms: C_21  and  O_23
REMARK    9  A    between atoms: O_25  and  C_26
REMARK   10  A    between atoms: C_26  and  C_27
REMARK   11  A    between atoms: C_28  and  C_29
REMARK   12  A    between atoms: C_31  and  O_32
REMARK   13  A    between atoms: C_38  and  C_40
REMARK   14  A    between atoms: C_43  and  O_46
REMARK                            x       y       z     vdW  Elec       q    Type
REMARK                         _______ _______ _______ _____ _____    ______ ____
ROOT
ATOM      1  O   LIG A   1      -6.976   1.696 129.335  0.00  0.00    -0.453 OA
ENDROOT
BRANCH   1   9
ATOM      2  C   LIG A   1      -9.504   0.226 123.569  0.00  0.00    +0.124 A 
ATOM      3  C   LIG A   1      -9.125  -0.558 124.656  0.00  0.00    +0.092 A 
ATOM      4  C   LIG A   1      -8.683   0.059 125.830  0.00  0.00    +0.146 A 
ATOM      5  C   LIG A   1      -8.639   1.445 125.897  0.00  0.00    +0.109 A 
ATOM      6  C   LIG A   1      -9.038   2.225 124.803  0.00  0.00    +0.135 A 
ATOM      7  C   LIG A   1      -9.453   1.619 123.630  0.00  0.00    +0.091 A 
ATOM      8  C   LIG A   1      -8.166   2.058 127.123  0.00  0.00    +0.238 A 
ATOM      9  C   LIG A   1      -7.598   1.184 128.199  0.00  0.00    +0.214 A 
ATOM     10  C   LIG A   1      -7.750  -0.151 128.014  0.00  0.00    +0.181 A 
ATOM     11  O   LIG A   1      -8.322  -0.733 126.880  0.00  0.00    -0.451 OA
ATOM     12  O   LIG A   1      -8.248   3.285 127.173  0.00  0.00    -0.283 OA
BRANCH  10  13
ATOM     13  C   LIG A   1      -7.322  -1.189 129.002  0.00  0.00    +0.021 A 
ATOM     14  C   LIG A   1      -6.288  -2.099 128.730  0.00  0.00    +0.015 A 
ATOM     15  C   LIG A   1      -5.882  -3.051 129.673  0.00  0.00    +0.046 A 
ATOM     16  C   LIG A   1      -6.488  -3.077 130.920  0.00  0.00    +0.117 A 
ATOM     17  C   LIG A   1      -7.501  -2.184 131.232  0.00  0.00    +0.046 A 
ATOM     18  C   LIG A   1      -7.908  -1.237 130.281  0.00  0.00    +0.015 A 
BRANCH  16  19
ATOM     19  O   LIG A   1      -6.093  -3.955 131.883  0.00  0.00    -0.507 OA
ATOM     20  H   LIG A   1      -6.727  -4.692 131.901  0.00  0.00    +0.292 HD
ENDBRANCH  16  19
ENDBRANCH  10  13
BRANCH   2  21
ATOM     21  O   LIG A   1      -9.942  -0.325 122.406  0.00  0.00    -0.506 OA
ATOM     22  H   LIG A   1      -9.908  -1.290 122.477  0.00  0.00    +0.292 HD
ENDBRANCH   2  21
BRANCH   6  23
ATOM     23  O   LIG A   1      -9.042   3.593 124.818  0.00  0.00    -0.506 OA
ATOM     24  H   LIG A   1      -9.773   3.886 125.416  0.00  0.00    +0.292 HD
ENDBRANCH   6  23
ENDBRANCH   1   9
BRANCH   1  25
ATOM     25  C   LIG A   1      -7.528   2.847 129.991  0.00  0.00    +0.340 C 
ATOM     26  O   LIG A   1      -7.857   2.569 131.351  0.00  0.00    -0.333 OA
ATOM     27  C   LIG A   1      -8.684   3.604 131.893  0.00  0.00    +0.163 C 
ATOM     28  C   LIG A   1      -7.873   4.906 132.000  0.00  0.00    +0.236 C 
ATOM     29  C   LIG A   1      -6.978   5.190 130.766  0.00  0.00    +0.192 C 
ATOM     30  C   LIG A   1      -6.436   3.936 130.065  0.00  0.00    +0.215 C 
ATOM     31  C   LIG A   1      -9.186   3.147 133.255  0.00  0.00    +0.042 C 
BRANCH  30  32
ATOM     32  O   LIG A   1      -5.295   3.463 130.826  0.00  0.00    -0.383 OA
ATOM     33  H   LIG A   1      -4.720   4.243 130.942  0.00  0.00    +0.210 HD
ENDBRANCH  30  32
BRANCH  29  34
ATOM     34  O   LIG A   1      -5.862   6.005 131.182  0.00  0.00    -0.385 OA
ATOM     35  H   LIG A   1      -5.212   5.361 131.537  0.00  0.00    +0.210 HD
ENDBRANCH  29  34
BRANCH  28  36
ATOM     36  O   LIG A   1      -8.661   6.087 132.308  0.00  0.00    -0.453 OA
BRANCH  36  37
ATOM     37  C   LIG A   1      -9.643   6.436 131.447  0.00  0.00    +0.332 C 
ATOM     38  O   LIG A   1      -9.483   6.893 130.325  0.00  0.00    -0.246 OA
BRANCH  37  39
ATOM     39  C   LIG A   1     -10.990   6.380 132.038  0.00  0.00    +0.092 C 
ATOM     40  C   LIG A   1     -12.194   6.704 131.545  0.00  0.00    +0.015 C 
BRANCH  40  41
ATOM     41  C   LIG A   1     -12.547   7.289 130.251  0.00  0.00    -0.021 A 
ATOM     42  C   LIG A   1     -12.615   8.681 130.120  0.00  0.00    +0.053 A 
ATOM     43  C   LIG A   1     -13.091   9.243 128.939  0.00  0.00    +0.117 A 
ATOM     44  C   LIG A   1     -13.449   8.444 127.857  0.00  0.00    +0.045 A 
ATOM     45  C   LIG A   1     -13.355   7.058 127.975  0.00  0.00    +0.004 A 
ATOM     46  C   LIG A   1     -12.922   6.481 129.173  0.00  0.00    +0.008 A 
BRANCH  43  47
ATOM     47  O   LIG A   1     -13.223  10.601 128.888  0.00  0.00    -0.507 OA
ATOM     48  H   LIG A   1     -13.489  10.915 129.768  0.00  0.00    +0.292 HD
ENDBRANCH  43  47
ENDBRANCH  40  41
ENDBRANCH  37  39
ENDBRANCH  36  37
ENDBRANCH  28  36
ENDBRANCH   1  25
TORSDOF 13
ENDMDL
