MODEL 1
REMARK VINA RESULT:      -8.1      0.000      0.000
REMARK  Name = NuBBE_2169
REMARK  7 active torsions:
REMARK  status: ('A' for Active; 'I' for Inactive)
REMARK    1  A    between atoms: O_1  and  C_2
REMARK    2  A    between atoms: C_2  and  C_23
REMARK    3  A    between atoms: C_12  and  O_13
REMARK    4  A    between atoms: O_13  and  C_14
REMARK    5  A    between atoms: C_14  and  C_15
REMARK    6  A    between atoms: C_17  and  C_19
REMARK    7  A    between atoms: C_20  and  C_22
REMARK                            x       y       z     vdW  Elec       q    Type
REMARK                         _______ _______ _______ _____ _____    ______ ____
ROOT
ATOM      1  C   LIG A   1      -7.861   1.721 125.668  0.00  0.00    +0.123 C 
ATOM      2  C   LIG A   1      -8.106   0.331 125.082  0.00  0.00    +0.041 A 
ATOM      3  C   LIG A   1      -8.989   0.133 124.019  0.00  0.00    +0.173 A 
ATOM      4  O   LIG A   1      -9.829   1.078 123.501  0.00  0.00    -0.452 OA
ATOM      5  C   LIG A   1     -10.439   0.350 122.414  0.00  0.00    +0.466 C 
ATOM      6  O   LIG A   1     -10.029  -1.028 122.353  0.00  0.00    -0.453 OA
ATOM      7  C   LIG A   1      -9.119  -1.071 123.362  0.00  0.00    +0.167 A 
ATOM      8  C   LIG A   1      -8.378  -2.171 123.717  0.00  0.00    +0.050 A 
ATOM      9  C   LIG A   1      -7.505  -2.032 124.795  0.00  0.00    +0.011 A 
ATOM     10  C   LIG A   1      -7.366  -0.798 125.491  0.00  0.00    +0.003 A 
ATOM     11  C   LIG A   1      -6.452  -0.782 126.695  0.00  0.00    +0.210 C 
ATOM     12  C   LIG A   1      -6.039   0.610 127.210  0.00  0.00    +0.037 C 
ATOM     13  C   LIG A   1      -4.701   1.042 126.603  0.00  0.00    +0.012 C 
ATOM     14  C   LIG A   1      -7.160   1.676 127.074  0.00  0.00    +0.033 C 
ATOM     15  C   LIG A   1      -8.180   1.507 128.225  0.00  0.00    +0.011 C 
ENDROOT
BRANCH   1  16
ATOM     16  C   LIG A   1      -7.062   2.632 124.703  0.00  0.00    -0.008 A 
ATOM     17  C   LIG A   1      -6.869   2.294 123.349  0.00  0.00    +0.056 A 
ATOM     18  C   LIG A   1      -6.142   3.142 122.540  0.00  0.00    +0.167 A 
ATOM     19  C   LIG A   1      -5.609   4.314 123.010  0.00  0.00    +0.166 A 
ATOM     20  O   LIG A   1      -4.941   5.001 122.045  0.00  0.00    -0.453 OA
ATOM     21  C   LIG A   1      -5.140   4.135 120.908  0.00  0.00    +0.466 C 
ATOM     22  O   LIG A   1      -5.870   2.933 121.225  0.00  0.00    -0.453 OA
ATOM     23  C   LIG A   1      -5.768   4.699 124.321  0.00  0.00    +0.050 A 
ATOM     24  C   LIG A   1      -6.494   3.851 125.168  0.00  0.00    +0.010 A 
ENDBRANCH   1  16
BRANCH   1  25
ATOM     25  O   LIG A   1      -9.123   2.389 125.868  0.00  0.00    -0.379 OA
ATOM     26  H   LIG A   1      -9.340   2.865 125.048  0.00  0.00    +0.211 HD
ENDBRANCH   1  25
BRANCH  11  27
ATOM     27  O   LIG A   1      -7.189  -1.421 127.758  0.00  0.00    -0.457 OA
BRANCH  27  28
ATOM     28  C   LIG A   1      -6.566  -2.433 128.408  0.00  0.00    +0.304 C 
ATOM     29  C   LIG A   1      -7.538  -3.174 129.271  0.00  0.00    +0.136 C 
ATOM     30  O   LIG A   1      -5.372  -2.704 128.338  0.00  0.00    -0.251 OA
ENDBRANCH  27  28
ENDBRANCH  11  27
TORSDOF 4
ENDMDL
MODEL 2
REMARK VINA RESULT:      -8.0      3.222      6.073
REMARK  Name = NuBBE_2169
REMARK  7 active torsions:
REMARK  status: ('A' for Active; 'I' for Inactive)
REMARK    1  A    between atoms: O_1  and  C_2
REMARK    2  A    between atoms: C_2  and  C_23
REMARK    3  A    between atoms: C_12  and  O_13
REMARK    4  A    between atoms: O_13  and  C_14
REMARK    5  A    between atoms: C_14  and  C_15
REMARK    6  A    between atoms: C_17  and  C_19
REMARK    7  A    between atoms: C_20  and  C_22
REMARK                            x       y       z     vdW  Elec       q    Type
REMARK                         _______ _______ _______ _____ _____    ______ ____
ROOT
ATOM      1  C   LIG A   1      -6.595  -0.062 127.521  0.00  0.00    +0.123 C 
ATOM      2  C   LIG A   1      -7.115  -1.445 127.913  0.00  0.00    +0.041 A 
ATOM      3  C   LIG A   1      -6.750  -2.046 129.120  0.00  0.00    +0.173 A 
ATOM      4  O   LIG A   1      -5.804  -1.575 129.985  0.00  0.00    -0.452 OA
ATOM      5  C   LIG A   1      -5.895  -2.538 131.057  0.00  0.00    +0.466 C 
ATOM      6  O   LIG A   1      -6.817  -3.608 130.782  0.00  0.00    -0.453 OA
ATOM      7  C   LIG A   1      -7.317  -3.214 129.580  0.00  0.00    +0.167 A 
ATOM      8  C   LIG A   1      -8.290  -3.874 128.871  0.00  0.00    +0.050 A 
ATOM      9  C   LIG A   1      -8.664  -3.330 127.642  0.00  0.00    +0.011 A 
ATOM     10  C   LIG A   1      -8.082  -2.129 127.148  0.00  0.00    +0.003 A 
ATOM     11  C   LIG A   1      -8.502  -1.673 125.769  0.00  0.00    +0.210 C 
ATOM     12  C   LIG A   1      -8.149  -0.219 125.402  0.00  0.00    +0.037 C 
ATOM     13  C   LIG A   1      -9.318   0.720 125.707  0.00  0.00    +0.012 C 
ATOM     14  C   LIG A   1      -6.794   0.255 125.995  0.00  0.00    +0.033 C 
ATOM     15  C   LIG A   1      -5.630  -0.289 125.134  0.00  0.00    +0.011 C 
ENDROOT
BRANCH   1  16
ATOM     16  C   LIG A   1      -7.216   1.064 128.386  0.00  0.00    -0.008 A 
ATOM     17  C   LIG A   1      -6.919   2.423 128.161  0.00  0.00    +0.056 A 
ATOM     18  C   LIG A   1      -7.495   3.381 128.968  0.00  0.00    +0.167 A 
ATOM     19  C   LIG A   1      -8.361   3.052 129.979  0.00  0.00    +0.166 A 
ATOM     20  O   LIG A   1      -8.820   4.147 130.642  0.00  0.00    -0.453 OA
ATOM     21  C   LIG A   1      -8.161   5.203 129.912  0.00  0.00    +0.466 C 
ATOM     22  O   LIG A   1      -7.288   4.720 128.871  0.00  0.00    -0.453 OA
ATOM     23  C   LIG A   1      -8.693   1.743 130.243  0.00  0.00    +0.050 A 
ATOM     24  C   LIG A   1      -8.112   0.749 129.443  0.00  0.00    +0.010 A 
ENDBRANCH   1  16
BRANCH   1  25
ATOM     25  O   LIG A   1      -5.176   0.006 127.765  0.00  0.00    -0.379 OA
ATOM     26  H   LIG A   1      -4.722  -0.339 126.977  0.00  0.00    +0.211 HD
ENDBRANCH   1  25
BRANCH  11  27
ATOM     27  O   LIG A   1      -7.797  -2.523 124.841  0.00  0.00    -0.457 OA
BRANCH  27  28
ATOM     28  C   LIG A   1      -8.263  -2.555 123.569  0.00  0.00    +0.304 C 
ATOM     29  C   LIG A   1      -9.568  -3.285 123.510  0.00  0.00    +0.136 C 
ATOM     30  O   LIG A   1      -7.700  -2.085 122.585  0.00  0.00    -0.251 OA
ENDBRANCH  27  28
ENDBRANCH  11  27
TORSDOF 4
ENDMDL
MODEL 3
REMARK VINA RESULT:      -7.7      3.340      5.810
REMARK  Name = NuBBE_2169
REMARK  7 active torsions:
REMARK  status: ('A' for Active; 'I' for Inactive)
REMARK    1  A    between atoms: O_1  and  C_2
REMARK    2  A    between atoms: C_2  and  C_23
REMARK    3  A    between atoms: C_12  and  O_13
REMARK    4  A    between atoms: O_13  and  C_14
REMARK    5  A    between atoms: C_14  and  C_15
REMARK    6  A    between atoms: C_17  and  C_19
REMARK    7  A    between atoms: C_20  and  C_22
REMARK                            x       y       z     vdW  Elec       q    Type
REMARK                         _______ _______ _______ _____ _____    ______ ____
ROOT
ATOM      1  C   LIG A   1      -6.274  -1.095 128.042  0.00  0.00    +0.123 C 
ATOM      2  C   LIG A   1      -6.845  -0.158 129.107  0.00  0.00    +0.041 A 
ATOM      3  C   LIG A   1      -6.821   1.229 128.946  0.00  0.00    +0.173 A 
ATOM      4  O   LIG A   1      -6.172   1.900 127.949  0.00  0.00    -0.452 OA
ATOM      5  C   LIG A   1      -6.537   3.265 128.241  0.00  0.00    +0.466 C 
ATOM      6  O   LIG A   1      -7.314   3.400 129.445  0.00  0.00    -0.453 OA
ATOM      7  C   LIG A   1      -7.463   2.097 129.802  0.00  0.00    +0.167 A 
ATOM      8  C   LIG A   1      -8.176   1.647 130.886  0.00  0.00    +0.050 A 
ATOM      9  C   LIG A   1      -8.200   0.271 131.107  0.00  0.00    +0.011 A 
ATOM     10  C   LIG A   1      -7.535  -0.639 130.238  0.00  0.00    +0.003 A 
ATOM     11  C   LIG A   1      -7.559  -2.102 130.618  0.00  0.00    +0.210 C 
ATOM     12  C   LIG A   1      -7.157  -3.094 129.509  0.00  0.00    +0.037 C 
ATOM     13  C   LIG A   1      -8.391  -3.608 128.763  0.00  0.00    +0.012 C 
ATOM     14  C   LIG A   1      -6.040  -2.554 128.575  0.00  0.00    +0.033 C 
ATOM     15  C   LIG A   1      -4.665  -2.705 129.267  0.00  0.00    +0.011 C 
ENDROOT
BRANCH   1  16
ATOM     16  C   LIG A   1      -7.145  -1.127 126.761  0.00  0.00    -0.008 A 
ATOM     17  C   LIG A   1      -6.723  -1.790 125.591  0.00  0.00    +0.056 A 
ATOM     18  C   LIG A   1      -7.538  -1.778 124.479  0.00  0.00    +0.167 A 
ATOM     19  C   LIG A   1      -8.756  -1.150 124.479  0.00  0.00    +0.166 A 
ATOM     20  O   LIG A   1      -9.399  -1.269 123.287  0.00  0.00    -0.453 OA
ATOM     21  C   LIG A   1      -8.453  -2.069 122.548  0.00  0.00    +0.466 C 
ATOM     22  O   LIG A   1      -7.250  -2.364 123.287  0.00  0.00    -0.453 OA
ATOM     23  C   LIG A   1      -9.224  -0.490 125.593  0.00  0.00    +0.050 A 
ATOM     24  C   LIG A   1      -8.410  -0.478 126.735  0.00  0.00    +0.010 A 
ENDBRANCH   1  16
BRANCH   1  25
ATOM     25  O   LIG A   1      -4.984  -0.610 127.616  0.00  0.00    -0.379 OA
ATOM     26  H   LIG A   1      -4.314  -0.985 128.213  0.00  0.00    +0.211 HD
ENDBRANCH   1  25
BRANCH  11  27
ATOM     27  O   LIG A   1      -6.597  -2.249 131.682  0.00  0.00    -0.457 OA
BRANCH  27  28
ATOM     28  C   LIG A   1      -6.781  -3.289 132.530  0.00  0.00    +0.304 C 
ATOM     29  C   LIG A   1      -7.950  -3.029 133.428  0.00  0.00    +0.136 C 
ATOM     30  O   LIG A   1      -6.085  -4.298 132.593  0.00  0.00    -0.251 OA
ENDBRANCH  27  28
ENDBRANCH  11  27
TORSDOF 4
ENDMDL
MODEL 4
REMARK VINA RESULT:      -7.7      7.183      9.128
REMARK  Name = NuBBE_2169
REMARK  7 active torsions:
REMARK  status: ('A' for Active; 'I' for Inactive)
REMARK    1  A    between atoms: O_1  and  C_2
REMARK    2  A    between atoms: C_2  and  C_23
REMARK    3  A    between atoms: C_12  and  O_13
REMARK    4  A    between atoms: O_13  and  C_14
REMARK    5  A    between atoms: C_14  and  C_15
REMARK    6  A    between atoms: C_17  and  C_19
REMARK    7  A    between atoms: C_20  and  C_22
REMARK                            x       y       z     vdW  Elec       q    Type
REMARK                         _______ _______ _______ _____ _____    ______ ____
ROOT
ATOM      1  C   LIG A   1      -4.667   6.110 130.908  0.00  0.00    +0.123 C 
ATOM      2  C   LIG A   1      -4.632   4.673 130.388  0.00  0.00    +0.041 A 
ATOM      3  C   LIG A   1      -3.888   4.324 129.259  0.00  0.00    +0.173 A 
ATOM      4  O   LIG A   1      -3.261   5.202 128.421  0.00  0.00    -0.452 OA
ATOM      5  C   LIG A   1      -2.616   4.301 127.496  0.00  0.00    +0.466 C 
ATOM      6  O   LIG A   1      -2.935   2.918 127.736  0.00  0.00    -0.453 OA
ATOM      7  C   LIG A   1      -3.704   3.021 128.852  0.00  0.00    +0.167 A 
ATOM      8  C   LIG A   1      -4.249   1.966 129.540  0.00  0.00    +0.050 A 
ATOM      9  C   LIG A   1      -5.030   2.266 130.656  0.00  0.00    +0.011 A 
ATOM     10  C   LIG A   1      -5.238   3.607 131.084  0.00  0.00    +0.003 A 
ATOM     11  C   LIG A   1      -6.167   3.823 132.257  0.00  0.00    +0.210 C 
ATOM     12  C   LIG A   1      -6.102   5.211 132.923  0.00  0.00    +0.037 C 
ATOM     13  C   LIG A   1      -5.139   5.201 134.113  0.00  0.00    +0.012 C 
ATOM     14  C   LIG A   1      -5.844   6.365 131.917  0.00  0.00    +0.033 C 
ATOM     15  C   LIG A   1      -7.161   6.728 131.192  0.00  0.00    +0.011 C 
ENDROOT
BRANCH   1  16
ATOM     16  C   LIG A   1      -3.319   6.538 131.541  0.00  0.00    -0.008 A 
ATOM     17  C   LIG A   1      -3.088   7.857 131.978  0.00  0.00    +0.056 A 
ATOM     18  C   LIG A   1      -1.865   8.180 132.526  0.00  0.00    +0.167 A 
ATOM     19  C   LIG A   1      -0.866   7.253 132.671  0.00  0.00    +0.166 A 
ATOM     20  O   LIG A   1       0.249   7.779 133.242  0.00  0.00    -0.453 OA
ATOM     21  C   LIG A   1      -0.176   9.140 133.463  0.00  0.00    +0.466 C 
ATOM     22  O   LIG A   1      -1.505   9.412 132.975  0.00  0.00    -0.453 OA
ATOM     23  C   LIG A   1      -1.035   5.948 132.266  0.00  0.00    +0.050 A 
ATOM     24  C   LIG A   1      -2.266   5.595 131.696  0.00  0.00    +0.010 A 
ENDBRANCH   1  16
BRANCH   1  25
ATOM     25  O   LIG A   1      -4.877   7.016 129.806  0.00  0.00    -0.379 OA
ATOM     26  H   LIG A   1      -5.726   6.784 129.389  0.00  0.00    +0.211 HD
ENDBRANCH   1  25
BRANCH  11  27
ATOM     27  O   LIG A   1      -7.503   3.669 131.736  0.00  0.00    -0.457 OA
BRANCH  27  28
ATOM     28  C   LIG A   1      -8.314   2.800 132.385  0.00  0.00    +0.304 C 
ATOM     29  C   LIG A   1      -9.576   2.584 131.610  0.00  0.00    +0.136 C 
ATOM     30  O   LIG A   1      -8.083   2.274 133.470  0.00  0.00    -0.251 OA
ENDBRANCH  27  28
ENDBRANCH  11  27
TORSDOF 4
ENDMDL
MODEL 5
REMARK VINA RESULT:      -7.6      5.226      7.864
REMARK  Name = NuBBE_2169
REMARK  7 active torsions:
REMARK  status: ('A' for Active; 'I' for Inactive)
REMARK    1  A    between atoms: O_1  and  C_2
REMARK    2  A    between atoms: C_2  and  C_23
REMARK    3  A    between atoms: C_12  and  O_13
REMARK    4  A    between atoms: O_13  and  C_14
REMARK    5  A    between atoms: C_14  and  C_15
REMARK    6  A    between atoms: C_17  and  C_19
REMARK    7  A    between atoms: C_20  and  C_22
REMARK                            x       y       z     vdW  Elec       q    Type
REMARK                         _______ _______ _______ _____ _____    ______ ____
ROOT
ATOM      1  C   LIG A   1      -8.899   3.292 130.502  0.00  0.00    +0.123 C 
ATOM      2  C   LIG A   1      -7.378   3.398 130.390  0.00  0.00    +0.041 A 
ATOM      3  C   LIG A   1      -6.754   3.674 129.172  0.00  0.00    +0.173 A 
ATOM      4  O   LIG A   1      -7.375   3.718 127.956  0.00  0.00    -0.452 OA
ATOM      5  C   LIG A   1      -6.282   4.097 127.093  0.00  0.00    +0.466 C 
ATOM      6  O   LIG A   1      -5.020   4.186 127.780  0.00  0.00    -0.453 OA
ATOM      7  C   LIG A   1      -5.406   3.933 129.059  0.00  0.00    +0.167 A 
ATOM      8  C   LIG A   1      -4.576   3.935 130.153  0.00  0.00    +0.050 A 
ATOM      9  C   LIG A   1      -5.148   3.632 131.388  0.00  0.00    +0.011 A 
ATOM     10  C   LIG A   1      -6.537   3.353 131.521  0.00  0.00    +0.003 A 
ATOM     11  C   LIG A   1      -7.035   2.958 132.893  0.00  0.00    +0.210 C 
ATOM     12  C   LIG A   1      -8.561   3.009 133.097  0.00  0.00    +0.037 C 
ATOM     13  C   LIG A   1      -8.988   4.353 133.693  0.00  0.00    +0.012 C 
ATOM     14  C   LIG A   1      -9.367   2.601 131.833  0.00  0.00    +0.033 C 
ATOM     15  C   LIG A   1      -9.393   1.059 131.708  0.00  0.00    +0.011 C 
ENDROOT
BRANCH   1  16
ATOM     16  C   LIG A   1      -9.597   4.666 130.340  0.00  0.00    -0.008 A 
ATOM     17  C   LIG A   1     -10.979   4.773 130.089  0.00  0.00    +0.056 A 
ATOM     18  C   LIG A   1     -11.543   6.023 129.947  0.00  0.00    +0.167 A 
ATOM     19  C   LIG A   1     -10.800   7.171 130.053  0.00  0.00    +0.166 A 
ATOM     20  O   LIG A   1     -11.553   8.291 129.890  0.00  0.00    -0.453 OA
ATOM     21  C   LIG A   1     -12.861   7.712 129.694  0.00  0.00    +0.466 C 
ATOM     22  O   LIG A   1     -12.854   6.270 129.691  0.00  0.00    -0.453 OA
ATOM     23  C   LIG A   1      -9.447   7.129 130.301  0.00  0.00    +0.050 A 
ATOM     24  C   LIG A   1      -8.847   5.870 130.441  0.00  0.00    +0.010 A 
ENDBRANCH   1  16
BRANCH   1  25
ATOM     25  O   LIG A   1      -9.405   2.477 129.425  0.00  0.00    -0.379 OA
ATOM     26  H   LIG A   1     -10.249   2.090 129.717  0.00  0.00    +0.211 HD
ENDBRANCH   1  25
BRANCH  11  27
ATOM     27  O   LIG A   1      -6.633   1.585 133.078  0.00  0.00    -0.457 OA
BRANCH  27  28
ATOM     28  C   LIG A   1      -6.183   1.243 134.309  0.00  0.00    +0.304 C 
ATOM     29  C   LIG A   1      -5.433   2.382 134.925  0.00  0.00    +0.136 C 
ATOM     30  O   LIG A   1      -6.331   0.152 134.851  0.00  0.00    -0.251 OA
ENDBRANCH  27  28
ENDBRANCH  11  27
TORSDOF 4
ENDMDL
MODEL 6
REMARK VINA RESULT:      -7.5      7.004      9.111
REMARK  Name = NuBBE_2169
REMARK  7 active torsions:
REMARK  status: ('A' for Active; 'I' for Inactive)
REMARK    1  A    between atoms: O_1  and  C_2
REMARK    2  A    between atoms: C_2  and  C_23
REMARK    3  A    between atoms: C_12  and  O_13
REMARK    4  A    between atoms: O_13  and  C_14
REMARK    5  A    between atoms: C_14  and  C_15
REMARK    6  A    between atoms: C_17  and  C_19
REMARK    7  A    between atoms: C_20  and  C_22
REMARK                            x       y       z     vdW  Elec       q    Type
REMARK                         _______ _______ _______ _____ _____    ______ ____
ROOT
ATOM      1  C   LIG A   1      -4.743   6.814 130.621  0.00  0.00    +0.123 C 
ATOM      2  C   LIG A   1      -5.801   6.512 131.681  0.00  0.00    +0.041 A 
ATOM      3  C   LIG A   1      -7.163   6.674 131.420  0.00  0.00    +0.173 A 
ATOM      4  O   LIG A   1      -7.692   7.249 130.299  0.00  0.00    -0.452 OA
ATOM      5  C   LIG A   1      -9.106   7.092 130.538  0.00  0.00    +0.466 C 
ATOM      6  O   LIG A   1      -9.403   6.514 131.822  0.00  0.00    -0.453 OA
ATOM      7  C   LIG A   1      -8.151   6.266 132.289  0.00  0.00    +0.167 A 
ATOM      8  C   LIG A   1      -7.855   5.665 133.487  0.00  0.00    +0.050 A 
ATOM      9  C   LIG A   1      -6.507   5.512 133.809  0.00  0.00    +0.011 A 
ATOM     10  C   LIG A   1      -5.474   5.937 132.927  0.00  0.00    +0.003 A 
ATOM     11  C   LIG A   1      -4.049   5.796 133.410  0.00  0.00    +0.210 C 
ATOM     12  C   LIG A   1      -2.955   5.919 132.333  0.00  0.00    +0.037 C 
ATOM     13  C   LIG A   1      -2.559   4.541 131.796  0.00  0.00    +0.012 C 
ATOM     14  C   LIG A   1      -3.298   6.948 131.221  0.00  0.00    +0.033 C 
ATOM     15  C   LIG A   1      -3.014   8.380 131.733  0.00  0.00    +0.011 C 
ENDROOT
BRANCH   1  16
ATOM     16  C   LIG A   1      -4.749   5.773 129.473  0.00  0.00    -0.008 A 
ATOM     17  C   LIG A   1      -5.542   4.609 129.528  0.00  0.00    +0.056 A 
ATOM     18  C   LIG A   1      -5.499   3.715 128.479  0.00  0.00    +0.167 A 
ATOM     19  C   LIG A   1      -4.717   3.929 127.374  0.00  0.00    +0.166 A 
ATOM     20  O   LIG A   1      -4.833   2.931 126.458  0.00  0.00    -0.453 OA
ATOM     21  C   LIG A   1      -5.800   2.079 127.105  0.00  0.00    +0.466 C 
ATOM     22  O   LIG A   1      -6.199   2.552 128.408  0.00  0.00    -0.453 OA
ATOM     23  C   LIG A   1      -3.925   5.049 127.261  0.00  0.00    +0.050 A 
ATOM     24  C   LIG A   1      -3.942   5.970 128.319  0.00  0.00    +0.010 A 
ENDBRANCH   1  16
BRANCH   1  25
ATOM     25  O   LIG A   1      -5.038   8.078 129.992  0.00  0.00    -0.379 OA
ATOM     26  H   LIG A   1      -5.647   7.906 129.253  0.00  0.00    +0.211 HD
ENDBRANCH   1  25
BRANCH  11  27
ATOM     27  O   LIG A   1      -3.841   6.875 134.345  0.00  0.00    -0.457 OA
BRANCH  27  28
ATOM     28  C   LIG A   1      -3.022   6.623 135.393  0.00  0.00    +0.304 C 
ATOM     29  C   LIG A   1      -3.551   5.484 136.207  0.00  0.00    +0.136 C 
ATOM     30  O   LIG A   1      -2.003   7.245 135.675  0.00  0.00    -0.251 OA
ENDBRANCH  27  28
ENDBRANCH  11  27
TORSDOF 4
ENDMDL
MODEL 7
REMARK VINA RESULT:      -7.4      4.384      6.844
REMARK  Name = NuBBE_2169
REMARK  7 active torsions:
REMARK  status: ('A' for Active; 'I' for Inactive)
REMARK    1  A    between atoms: O_1  and  C_2
REMARK    2  A    between atoms: C_2  and  C_23
REMARK    3  A    between atoms: C_12  and  O_13
REMARK    4  A    between atoms: O_13  and  C_14
REMARK    5  A    between atoms: C_14  and  C_15
REMARK    6  A    between atoms: C_17  and  C_19
REMARK    7  A    between atoms: C_20  and  C_22
REMARK                            x       y       z     vdW  Elec       q    Type
REMARK                         _______ _______ _______ _____ _____    ______ ____
ROOT
ATOM      1  C   LIG A   1      -5.803  -1.342 129.189  0.00  0.00    +0.123 C 
ATOM      2  C   LIG A   1      -6.717  -0.757 130.265  0.00  0.00    +0.041 A 
ATOM      3  C   LIG A   1      -7.481   0.388 130.031  0.00  0.00    +0.173 A 
ATOM      4  O   LIG A   1      -7.392   1.186 128.925  0.00  0.00    -0.452 OA
ATOM      5  C   LIG A   1      -8.431   2.152 129.189  0.00  0.00    +0.466 C 
ATOM      6  O   LIG A   1      -9.059   1.975 130.471  0.00  0.00    -0.453 OA
ATOM      7  C   LIG A   1      -8.430   0.853 130.913  0.00  0.00    +0.167 A 
ATOM      8  C   LIG A   1      -8.690   0.213 132.099  0.00  0.00    +0.050 A 
ATOM      9  C   LIG A   1      -7.928  -0.917 132.394  0.00  0.00    +0.011 A 
ATOM     10  C   LIG A   1      -6.936  -1.406 131.498  0.00  0.00    +0.003 A 
ATOM     11  C   LIG A   1      -6.114  -2.589 131.955  0.00  0.00    +0.210 C 
ATOM     12  C   LIG A   1      -5.312  -3.317 130.858  0.00  0.00    +0.037 C 
ATOM     13  C   LIG A   1      -6.103  -4.503 130.300  0.00  0.00    +0.012 C 
ATOM     14  C   LIG A   1      -4.758  -2.364 129.765  0.00  0.00    +0.033 C 
ATOM     15  C   LIG A   1      -3.484  -1.659 130.286  0.00  0.00    +0.011 C 
ENDROOT
BRANCH   1  16
ATOM     16  C   LIG A   1      -6.601  -1.991 128.030  0.00  0.00    -0.008 A 
ATOM     17  C   LIG A   1      -6.122  -1.991 126.705  0.00  0.00    +0.056 A 
ATOM     18  C   LIG A   1      -6.881  -2.578 125.715  0.00  0.00    +0.167 A 
ATOM     19  C   LIG A   1      -8.087  -3.173 125.981  0.00  0.00    +0.166 A 
ATOM     20  O   LIG A   1      -8.662  -3.696 124.865  0.00  0.00    -0.453 OA
ATOM     21  C   LIG A   1      -7.663  -3.383 123.873  0.00  0.00    +0.466 C 
ATOM     22  O   LIG A   1      -6.545  -2.638 124.399  0.00  0.00    -0.453 OA
ATOM     23  C   LIG A   1      -8.605  -3.207 127.255  0.00  0.00    +0.050 A 
ATOM     24  C   LIG A   1      -7.858  -2.609 128.280  0.00  0.00    +0.010 A 
ENDBRANCH   1  16
BRANCH   1  25
ATOM     25  O   LIG A   1      -5.037  -0.283 128.580  0.00  0.00    -0.379 OA
ATOM     26  H   LIG A   1      -5.294  -0.232 127.643  0.00  0.00    +0.211 HD
ENDBRANCH   1  25
BRANCH  11  27
ATOM     27  O   LIG A   1      -5.156  -2.064 132.896  0.00  0.00    -0.457 OA
BRANCH  27  28
ATOM     28  C   LIG A   1      -4.637  -2.941 133.790  0.00  0.00    +0.304 C 
ATOM     29  C   LIG A   1      -3.157  -2.756 133.903  0.00  0.00    +0.136 C 
ATOM     30  O   LIG A   1      -5.267  -3.793 134.408  0.00  0.00    -0.251 OA
ENDBRANCH  27  28
ENDBRANCH  11  27
TORSDOF 4
ENDMDL
MODEL 8
REMARK VINA RESULT:      -7.3      5.331      8.491
REMARK  Name = NuBBE_2169
REMARK  7 active torsions:
REMARK  status: ('A' for Active; 'I' for Inactive)
REMARK    1  A    between atoms: O_1  and  C_2
REMARK    2  A    between atoms: C_2  and  C_23
REMARK    3  A    between atoms: C_12  and  O_13
REMARK    4  A    between atoms: O_13  and  C_14
REMARK    5  A    between atoms: C_14  and  C_15
REMARK    6  A    between atoms: C_17  and  C_19
REMARK    7  A    between atoms: C_20  and  C_22
REMARK                            x       y       z     vdW  Elec       q    Type
REMARK                         _______ _______ _______ _____ _____    ______ ____
ROOT
ATOM      1  C   LIG A   1      -8.283   4.050 129.992  0.00  0.00    +0.123 C 
ATOM      2  C   LIG A   1      -7.057   4.077 130.904  0.00  0.00    +0.041 A 
ATOM      3  C   LIG A   1      -6.260   5.217 131.022  0.00  0.00    +0.173 A 
ATOM      4  O   LIG A   1      -6.370   6.343 130.256  0.00  0.00    -0.452 OA
ATOM      5  C   LIG A   1      -5.363   7.190 130.848  0.00  0.00    +0.466 C 
ATOM      6  O   LIG A   1      -4.612   6.536 131.888  0.00  0.00    -0.453 OA
ATOM      7  C   LIG A   1      -5.245   5.335 131.946  0.00  0.00    +0.167 A 
ATOM      8  C   LIG A   1      -4.946   4.321 132.822  0.00  0.00    +0.050 A 
ATOM      9  C   LIG A   1      -5.692   3.148 132.720  0.00  0.00    +0.011 A 
ATOM     10  C   LIG A   1      -6.738   3.007 131.765  0.00  0.00    +0.003 A 
ATOM     11  C   LIG A   1      -7.428   1.664 131.687  0.00  0.00    +0.210 C 
ATOM     12  C   LIG A   1      -8.764   1.635 130.922  0.00  0.00    +0.037 C 
ATOM     13  C   LIG A   1      -9.946   1.815 131.879  0.00  0.00    +0.012 C 
ATOM     14  C   LIG A   1      -8.796   2.594 129.701  0.00  0.00    +0.033 C 
ATOM     15  C   LIG A   1      -8.053   1.946 128.510  0.00  0.00    +0.011 C 
ENDROOT
BRANCH   1  16
ATOM     16  C   LIG A   1      -9.440   4.924 130.540  0.00  0.00    -0.008 A 
ATOM     17  C   LIG A   1     -10.491   5.370 129.713  0.00  0.00    +0.056 A 
ATOM     18  C   LIG A   1     -11.489   6.151 130.256  0.00  0.00    +0.167 A 
ATOM     19  C   LIG A   1     -11.498   6.500 131.582  0.00  0.00    +0.166 A 
ATOM     20  O   LIG A   1     -12.575   7.263 131.908  0.00  0.00    -0.453 OA
ATOM     21  C   LIG A   1     -13.255   7.330 130.637  0.00  0.00    +0.466 C 
ATOM     22  O   LIG A   1     -12.551   6.657 129.574  0.00  0.00    -0.453 OA
ATOM     23  C   LIG A   1     -10.501   6.092 132.438  0.00  0.00    +0.050 A 
ATOM     24  C   LIG A   1      -9.469   5.304 131.910  0.00  0.00    +0.010 A 
ENDBRANCH   1  16
BRANCH   1  25
ATOM     25  O   LIG A   1      -7.945   4.622 128.712  0.00  0.00    -0.379 OA
ATOM     26  H   LIG A   1      -8.776   4.825 128.249  0.00  0.00    +0.211 HD
ENDBRANCH   1  25
BRANCH  11  27
ATOM     27  O   LIG A   1      -6.520   0.794 130.979  0.00  0.00    -0.457 OA
BRANCH  27  28
ATOM     28  C   LIG A   1      -6.541  -0.516 131.321  0.00  0.00    +0.304 C 
ATOM     29  C   LIG A   1      -6.575  -0.667 132.809  0.00  0.00    +0.136 C 
ATOM     30  O   LIG A   1      -6.508  -1.463 130.541  0.00  0.00    -0.251 OA
ENDBRANCH  27  28
ENDBRANCH  11  27
TORSDOF 4
ENDMDL
MODEL 9
REMARK VINA RESULT:      -7.2      2.569      3.694
REMARK  Name = NuBBE_2169
REMARK  7 active torsions:
REMARK  status: ('A' for Active; 'I' for Inactive)
REMARK    1  A    between atoms: O_1  and  C_2
REMARK    2  A    between atoms: C_2  and  C_23
REMARK    3  A    between atoms: C_12  and  O_13
REMARK    4  A    between atoms: O_13  and  C_14
REMARK    5  A    between atoms: C_14  and  C_15
REMARK    6  A    between atoms: C_17  and  C_19
REMARK    7  A    between atoms: C_20  and  C_22
REMARK                            x       y       z     vdW  Elec       q    Type
REMARK                         _______ _______ _______ _____ _____    ______ ____
ROOT
ATOM      1  C   LIG A   1      -7.455   1.774 128.338  0.00  0.00    +0.123 C 
ATOM      2  C   LIG A   1      -7.747   0.816 127.183  0.00  0.00    +0.041 A 
ATOM      3  C   LIG A   1      -8.289   1.270 125.979  0.00  0.00    +0.173 A 
ATOM      4  O   LIG A   1      -8.756   2.533 125.746  0.00  0.00    -0.452 OA
ATOM      5  C   LIG A   1      -9.125   2.447 124.353  0.00  0.00    +0.466 C 
ATOM      6  O   LIG A   1      -8.960   1.127 123.803  0.00  0.00    -0.453 OA
ATOM      7  C   LIG A   1      -8.419   0.472 124.864  0.00  0.00    +0.167 A 
ATOM      8  C   LIG A   1      -8.021  -0.842 124.866  0.00  0.00    +0.050 A 
ATOM      9  C   LIG A   1      -7.505  -1.351 126.057  0.00  0.00    +0.011 A 
ATOM     10  C   LIG A   1      -7.372  -0.542 127.221  0.00  0.00    +0.003 A 
ATOM     11  C   LIG A   1      -6.877  -1.217 128.480  0.00  0.00    +0.210 C 
ATOM     12  C   LIG A   1      -6.405  -0.279 129.607  0.00  0.00    +0.037 C 
ATOM     13  C   LIG A   1      -4.893  -0.051 129.531  0.00  0.00    +0.012 C 
ATOM     14  C   LIG A   1      -7.231   1.032 129.705  0.00  0.00    +0.033 C 
ATOM     15  C   LIG A   1      -8.565   0.753 130.438  0.00  0.00    +0.011 C 
ENDROOT
BRANCH   1  16
ATOM     16  C   LIG A   1      -6.257   2.709 128.036  0.00  0.00    -0.008 A 
ATOM     17  C   LIG A   1      -6.110   3.958 128.672  0.00  0.00    +0.056 A 
ATOM     18  C   LIG A   1      -5.027   4.751 128.357  0.00  0.00    +0.167 A 
ATOM     19  C   LIG A   1      -4.078   4.356 127.449  0.00  0.00    +0.166 A 
ATOM     20  O   LIG A   1      -3.093   5.280 127.296  0.00  0.00    -0.453 OA
ATOM     21  C   LIG A   1      -3.521   6.291 128.233  0.00  0.00    +0.466 C 
ATOM     22  O   LIG A   1      -4.770   5.977 128.882  0.00  0.00    -0.453 OA
ATOM     23  C   LIG A   1      -4.166   3.146 126.800  0.00  0.00    +0.050 A 
ATOM     24  C   LIG A   1      -5.263   2.324 127.095  0.00  0.00    +0.010 A 
ENDBRANCH   1  16
BRANCH   1  25
ATOM     25  O   LIG A   1      -8.584   2.649 128.535  0.00  0.00    -0.379 OA
ATOM     26  H   LIG A   1      -9.313   2.116 128.897  0.00  0.00    +0.211 HD
ENDBRANCH   1  25
BRANCH  11  27
ATOM     27  O   LIG A   1      -7.999  -1.962 128.996  0.00  0.00    -0.457 OA
BRANCH  27  28
ATOM     28  C   LIG A   1      -7.856  -3.307 129.065  0.00  0.00    +0.304 C 
ATOM     29  C   LIG A   1      -8.898  -3.986 128.234  0.00  0.00    +0.136 C 
ATOM     30  O   LIG A   1      -7.019  -3.908 129.732  0.00  0.00    -0.251 OA
ENDBRANCH  27  28
ENDBRANCH  11  27
TORSDOF 4
ENDMDL
