MODEL 1
REMARK VINA RESULT:      -3.8      0.000      0.000
REMARK  Name = NuBBE_2120
REMARK  5 active torsions:
REMARK  status: ('A' for Active; 'I' for Inactive)
REMARK    1  A    between atoms: C_1  and  C_2
REMARK    2  A    between atoms: C_2  and  C_3
REMARK    3  A    between atoms: C_3  and  C_4
REMARK    4  A    between atoms: C_4  and  C_5
REMARK    5  A    between atoms: C_5  and  C_6
REMARK                            x       y       z     vdW  Elec       q    Type
REMARK                         _______ _______ _______ _____ _____    ______ ____
ROOT
ATOM      1  C   LIG A   1      -5.597  -2.550 123.180  0.00  0.00    -0.000 C 
ENDROOT
BRANCH   1   3
ATOM      2  C   LIG A   1      -4.248  -4.747 123.477  0.00  0.00    +0.004 C 
ATOM      3  C   LIG A   1      -5.113  -3.668 124.110  0.00  0.00    -0.003 C 
ENDBRANCH   1   3
BRANCH   1   4
ATOM      4  C   LIG A   1      -7.083  -2.171 123.247  0.00  0.00    -0.000 C 
BRANCH   4   5
ATOM      5  C   LIG A   1      -7.958  -3.175 123.994  0.00  0.00    -0.003 C 
ATOM      6  C   LIG A   1      -9.386  -3.220 123.482  0.00  0.00    +0.004 C 
ENDBRANCH   4   5
ENDBRANCH   1   4
TORSDOF 3
ENDMDL
MODEL 2
REMARK VINA RESULT:      -3.8      0.778      3.745
REMARK  Name = NuBBE_2120
REMARK  5 active torsions:
REMARK  status: ('A' for Active; 'I' for Inactive)
REMARK    1  A    between atoms: C_1  and  C_2
REMARK    2  A    between atoms: C_2  and  C_3
REMARK    3  A    between atoms: C_3  and  C_4
REMARK    4  A    between atoms: C_4  and  C_5
REMARK    5  A    between atoms: C_5  and  C_6
REMARK                            x       y       z     vdW  Elec       q    Type
REMARK                         _______ _______ _______ _____ _____    ______ ____
ROOT
ATOM      1  C   LIG A   1      -7.020  -3.702 124.275  0.00  0.00    -0.000 C 
ENDROOT
BRANCH   1   3
ATOM      2  C   LIG A   1      -9.437  -3.229 123.457  0.00  0.00    +0.004 C 
ATOM      3  C   LIG A   1      -8.436  -3.214 124.602  0.00  0.00    -0.003 C 
ENDBRANCH   1   3
BRANCH   1   4
ATOM      4  C   LIG A   1      -6.035  -2.675 123.703  0.00  0.00    -0.000 C 
BRANCH   4   5
ATOM      5  C   LIG A   1      -4.633  -3.223 123.440  0.00  0.00    -0.003 C 
ATOM      6  C   LIG A   1      -4.523  -4.719 123.673  0.00  0.00    +0.004 C 
ENDBRANCH   4   5
ENDBRANCH   1   4
TORSDOF 3
ENDMDL
MODEL 3
REMARK VINA RESULT:      -3.7     13.561     14.819
REMARK  Name = NuBBE_2120
REMARK  5 active torsions:
REMARK  status: ('A' for Active; 'I' for Inactive)
REMARK    1  A    between atoms: C_1  and  C_2
REMARK    2  A    between atoms: C_2  and  C_3
REMARK    3  A    between atoms: C_3  and  C_4
REMARK    4  A    between atoms: C_4  and  C_5
REMARK    5  A    between atoms: C_5  and  C_6
REMARK                            x       y       z     vdW  Elec       q    Type
REMARK                         _______ _______ _______ _____ _____    ______ ____
ROOT
ATOM      1  C   LIG A   1     -12.683   8.566 129.897  0.00  0.00    -0.000 C 
ENDROOT
BRANCH   1   3
ATOM      2  C   LIG A   1     -13.517  11.014 130.106  0.00  0.00    +0.004 C 
ATOM      3  C   LIG A   1     -13.150   9.849 129.200  0.00  0.00    -0.003 C 
ENDBRANCH   1   3
BRANCH   1   4
ATOM      4  C   LIG A   1     -13.134   7.230 129.291  0.00  0.00    -0.000 C 
BRANCH   4   5
ATOM      5  C   LIG A   1     -13.698   7.337 127.875  0.00  0.00    -0.003 C 
ATOM      6  C   LIG A   1     -12.668   7.046 126.799  0.00  0.00    +0.004 C 
ENDBRANCH   4   5
ENDBRANCH   1   4
TORSDOF 3
ENDMDL
MODEL 4
REMARK VINA RESULT:      -3.4      1.748      2.175
REMARK  Name = NuBBE_2120
REMARK  5 active torsions:
REMARK  status: ('A' for Active; 'I' for Inactive)
REMARK    1  A    between atoms: C_1  and  C_2
REMARK    2  A    between atoms: C_2  and  C_3
REMARK    3  A    between atoms: C_3  and  C_4
REMARK    4  A    between atoms: C_4  and  C_5
REMARK    5  A    between atoms: C_5  and  C_6
REMARK                            x       y       z     vdW  Elec       q    Type
REMARK                         _______ _______ _______ _____ _____    ______ ____
ROOT
ATOM      1  C   LIG A   1      -5.861  -2.898 123.650  0.00  0.00    -0.000 C 
ENDROOT
BRANCH   1   3
ATOM      2  C   LIG A   1      -4.283  -4.949 123.459  0.00  0.00    +0.004 C 
ATOM      3  C   LIG A   1      -4.444  -3.436 123.423  0.00  0.00    -0.003 C 
ENDBRANCH   1   3
BRANCH   1   4
ATOM      4  C   LIG A   1      -6.403  -1.887 122.631  0.00  0.00    -0.000 C 
BRANCH   4   5
ATOM      5  C   LIG A   1      -6.941  -0.596 123.245  0.00  0.00    -0.003 C 
ATOM      6  C   LIG A   1      -6.500  -0.390 124.683  0.00  0.00    +0.004 C 
ENDBRANCH   4   5
ENDBRANCH   1   4
TORSDOF 3
ENDMDL
MODEL 5
REMARK VINA RESULT:      -3.3     13.160     13.792
REMARK  Name = NuBBE_2120
REMARK  5 active torsions:
REMARK  status: ('A' for Active; 'I' for Inactive)
REMARK    1  A    between atoms: C_1  and  C_2
REMARK    2  A    between atoms: C_2  and  C_3
REMARK    3  A    between atoms: C_3  and  C_4
REMARK    4  A    between atoms: C_4  and  C_5
REMARK    5  A    between atoms: C_5  and  C_6
REMARK                            x       y       z     vdW  Elec       q    Type
REMARK                         _______ _______ _______ _____ _____    ______ ____
ROOT
ATOM      1  C   LIG A   1     -12.594   6.580 129.652  0.00  0.00    -0.000 C 
ENDROOT
BRANCH   1   3
ATOM      2  C   LIG A   1     -11.340   6.517 131.923  0.00  0.00    +0.004 C 
ATOM      3  C   LIG A   1     -12.540   7.004 131.124  0.00  0.00    -0.003 C 
ENDBRANCH   1   3
BRANCH   1   4
ATOM      4  C   LIG A   1     -13.054   7.631 128.633  0.00  0.00    -0.000 C 
BRANCH   4   5
ATOM      5  C   LIG A   1     -12.112   8.825 128.487  0.00  0.00    -0.003 C 
ATOM      6  C   LIG A   1     -10.725   8.437 128.009  0.00  0.00    +0.004 C 
ENDBRANCH   4   5
ENDBRANCH   1   4
TORSDOF 3
ENDMDL
MODEL 6
REMARK VINA RESULT:      -3.3      2.373      3.406
REMARK  Name = NuBBE_2120
REMARK  5 active torsions:
REMARK  status: ('A' for Active; 'I' for Inactive)
REMARK    1  A    between atoms: C_1  and  C_2
REMARK    2  A    between atoms: C_2  and  C_3
REMARK    3  A    between atoms: C_3  and  C_4
REMARK    4  A    between atoms: C_4  and  C_5
REMARK    5  A    between atoms: C_5  and  C_6
REMARK                            x       y       z     vdW  Elec       q    Type
REMARK                         _______ _______ _______ _____ _____    ______ ____
ROOT
ATOM      1  C   LIG A   1      -8.807  -3.537 124.450  0.00  0.00    -0.000 C 
ENDROOT
BRANCH   1   3
ATOM      2  C   LIG A   1      -6.534  -2.531 123.704  0.00  0.00    +0.004 C 
ATOM      3  C   LIG A   1      -7.280  -3.662 124.396  0.00  0.00    -0.003 C 
ENDBRANCH   1   3
BRANCH   1   4
ATOM      4  C   LIG A   1      -9.417  -2.893 125.702  0.00  0.00    -0.000 C 
BRANCH   4   5
ATOM      5  C   LIG A   1      -8.513  -2.923 126.933  0.00  0.00    -0.003 C 
ATOM      6  C   LIG A   1      -8.920  -3.975 127.948  0.00  0.00    +0.004 C 
ENDBRANCH   4   5
ENDBRANCH   1   4
TORSDOF 3
ENDMDL
MODEL 7
REMARK VINA RESULT:      -3.3      7.016      8.414
REMARK  Name = NuBBE_2120
REMARK  5 active torsions:
REMARK  status: ('A' for Active; 'I' for Inactive)
REMARK    1  A    between atoms: C_1  and  C_2
REMARK    2  A    between atoms: C_2  and  C_3
REMARK    3  A    between atoms: C_3  and  C_4
REMARK    4  A    between atoms: C_4  and  C_5
REMARK    5  A    between atoms: C_5  and  C_6
REMARK                            x       y       z     vdW  Elec       q    Type
REMARK                         _______ _______ _______ _____ _____    ______ ____
ROOT
ATOM      1  C   LIG A   1      -5.912   3.846 121.912  0.00  0.00    -0.000 C 
ENDROOT
BRANCH   1   3
ATOM      2  C   LIG A   1      -8.290   3.022 122.548  0.00  0.00    +0.004 C 
ATOM      3  C   LIG A   1      -6.792   2.757 122.537  0.00  0.00    -0.003 C 
ENDBRANCH   1   3
BRANCH   1   4
ATOM      4  C   LIG A   1      -5.898   3.949 120.381  0.00  0.00    -0.000 C 
BRANCH   4   5
ATOM      5  C   LIG A   1      -5.333   5.262 119.841  0.00  0.00    -0.003 C 
ATOM      6  C   LIG A   1      -5.964   5.690 118.529  0.00  0.00    +0.004 C 
ENDBRANCH   4   5
ENDBRANCH   1   4
TORSDOF 3
ENDMDL
MODEL 8
REMARK VINA RESULT:      -3.0     12.509     13.450
REMARK  Name = NuBBE_2120
REMARK  5 active torsions:
REMARK  status: ('A' for Active; 'I' for Inactive)
REMARK    1  A    between atoms: C_1  and  C_2
REMARK    2  A    between atoms: C_2  and  C_3
REMARK    3  A    between atoms: C_3  and  C_4
REMARK    4  A    between atoms: C_4  and  C_5
REMARK    5  A    between atoms: C_5  and  C_6
REMARK                            x       y       z     vdW  Elec       q    Type
REMARK                         _______ _______ _______ _____ _____    ______ ____
ROOT
ATOM      1  C   LIG A   1     -11.157   7.494 128.962  0.00  0.00    -0.000 C 
ENDROOT
BRANCH   1   3
ATOM      2  C   LIG A   1     -13.400   7.243 127.680  0.00  0.00    +0.004 C 
ATOM      3  C   LIG A   1     -11.964   7.746 127.683  0.00  0.00    -0.003 C 
ENDBRANCH   1   3
BRANCH   1   4
ATOM      4  C   LIG A   1     -11.491   6.233 129.769  0.00  0.00    -0.000 C 
BRANCH   4   5
ATOM      5  C   LIG A   1     -11.863   6.495 131.227  0.00  0.00    -0.003 C 
ATOM      6  C   LIG A   1     -12.927   7.565 131.389  0.00  0.00    +0.004 C 
ENDBRANCH   4   5
ENDBRANCH   1   4
TORSDOF 3
ENDMDL
MODEL 9
REMARK VINA RESULT:      -3.0     12.713     13.889
REMARK  Name = NuBBE_2120
REMARK  5 active torsions:
REMARK  status: ('A' for Active; 'I' for Inactive)
REMARK    1  A    between atoms: C_1  and  C_2
REMARK    2  A    between atoms: C_2  and  C_3
REMARK    3  A    between atoms: C_3  and  C_4
REMARK    4  A    between atoms: C_4  and  C_5
REMARK    5  A    between atoms: C_5  and  C_6
REMARK                            x       y       z     vdW  Elec       q    Type
REMARK                         _______ _______ _______ _____ _____    ______ ____
ROOT
ATOM      1  C   LIG A   1     -11.768   6.966 130.879  0.00  0.00    -0.000 C 
ENDROOT
BRANCH   1   3
ATOM      2  C   LIG A   1     -12.699   8.939 129.474  0.00  0.00    +0.004 C 
ATOM      3  C   LIG A   1     -12.847   7.495 129.928  0.00  0.00    -0.003 C 
ENDBRANCH   1   3
BRANCH   1   4
ATOM      4  C   LIG A   1     -10.313   7.019 130.395  0.00  0.00    -0.000 C 
BRANCH   4   5
ATOM      5  C   LIG A   1      -9.292   6.495 131.403  0.00  0.00    -0.003 C 
ATOM      6  C   LIG A   1      -7.859   6.829 131.030  0.00  0.00    +0.004 C 
ENDBRANCH   4   5
ENDBRANCH   1   4
TORSDOF 3
ENDMDL
