MODEL 1
REMARK VINA RESULT:      -8.0      0.000      0.000
REMARK  Name = NuBBE_2501
REMARK  6 active torsions:
REMARK  status: ('A' for Active; 'I' for Inactive)
REMARK    1  A    between atoms: C_1  and  C_2
REMARK    2  A    between atoms: C_2  and  C_3
REMARK    3  A    between atoms: C_4  and  C_5
REMARK    4  A    between atoms: C_15  and  C_16
REMARK    5  A    between atoms: C_15  and  C_17
REMARK    6  A    between atoms: C_21  and  C_22
REMARK                            x       y       z     vdW  Elec       q    Type
REMARK                         _______ _______ _______ _____ _____    ______ ____
ROOT
ATOM      1  C   LIG A   1      -7.423  -2.303 125.023  0.00  0.00    -0.034 A 
ATOM      2  C   LIG A   1      -8.686  -2.923 124.868  0.00  0.00    -0.047 A 
ATOM      3  C   LIG A   1      -9.322  -3.141 123.518  0.00  0.00    +0.044 C 
ATOM      4  C   LIG A   1      -9.369  -3.384 125.998  0.00  0.00    +0.004 A 
ATOM      5  C   LIG A   1      -8.829  -3.235 127.275  0.00  0.00    +0.005 A 
ATOM      6  C   LIG A   1      -7.575  -2.632 127.480  0.00  0.00    -0.030 A 
ATOM      7  C   LIG A   1      -6.892  -2.159 126.336  0.00  0.00    +0.025 A 
ATOM      8  C   LIG A   1      -5.564  -1.544 126.570  0.00  0.00    +0.164 C 
ATOM      9  O   LIG A   1      -5.121  -0.619 125.901  0.00  0.00    -0.292 OA
ATOM     10  C   LIG A   1      -4.796  -2.142 127.706  0.00  0.00    +0.084 C 
ATOM     11  C   LIG A   1      -5.562  -1.880 129.004  0.00  0.00    +0.012 C 
ATOM     12  C   LIG A   1      -4.716  -2.327 130.264  0.00  0.00    -0.031 C 
ATOM     13  C   LIG A   1      -3.769  -1.169 130.664  0.00  0.00    +0.011 C 
ATOM     14  C   LIG A   1      -3.819  -3.564 130.014  0.00  0.00    +0.011 C 
ATOM     15  C   LIG A   1      -5.630  -2.622 131.466  0.00  0.00    +0.007 C 
ATOM     16  C   LIG A   1      -6.691  -3.677 131.179  0.00  0.00    +0.001 C 
ATOM     17  C   LIG A   1      -7.133  -3.763 129.716  0.00  0.00    +0.012 C 
ATOM     18  C   LIG A   1      -7.046  -2.432 128.928  0.00  0.00    -0.003 C 
ATOM     19  C   LIG A   1      -8.000  -1.381 129.565  0.00  0.00    +0.016 C 
ENDROOT
BRANCH   1  21
ATOM     20  C   LIG A   1      -5.649  -2.835 123.299  0.00  0.00    +0.009 C 
ATOM     21  C   LIG A   1      -6.668  -1.818 123.798  0.00  0.00    +0.033 C 
ENDBRANCH   1  21
TORSDOF 1
ENDMDL
MODEL 2
REMARK VINA RESULT:      -7.6      2.116      6.172
REMARK  Name = NuBBE_2501
REMARK  6 active torsions:
REMARK  status: ('A' for Active; 'I' for Inactive)
REMARK    1  A    between atoms: C_1  and  C_2
REMARK    2  A    between atoms: C_2  and  C_3
REMARK    3  A    between atoms: C_4  and  C_5
REMARK    4  A    between atoms: C_15  and  C_16
REMARK    5  A    between atoms: C_15  and  C_17
REMARK    6  A    between atoms: C_21  and  C_22
REMARK                            x       y       z     vdW  Elec       q    Type
REMARK                         _______ _______ _______ _____ _____    ______ ____
ROOT
ATOM      1  C   LIG A   1      -7.495  -1.939 129.547  0.00  0.00    -0.034 A 
ATOM      2  C   LIG A   1      -7.011  -0.745 130.131  0.00  0.00    -0.047 A 
ATOM      3  C   LIG A   1      -6.528  -0.678 131.558  0.00  0.00    +0.044 C 
ATOM      4  C   LIG A   1      -6.942   0.419 129.358  0.00  0.00    +0.004 A 
ATOM      5  C   LIG A   1      -7.352   0.423 128.026  0.00  0.00    +0.005 A 
ATOM      6  C   LIG A   1      -7.834  -0.740 127.399  0.00  0.00    -0.030 A 
ATOM      7  C   LIG A   1      -7.910  -1.912 128.185  0.00  0.00    +0.025 A 
ATOM      8  C   LIG A   1      -8.403  -3.132 127.502  0.00  0.00    +0.164 C 
ATOM      9  O   LIG A   1      -9.064  -3.998 128.061  0.00  0.00    -0.292 OA
ATOM     10  C   LIG A   1      -8.032  -3.224 126.056  0.00  0.00    +0.084 C 
ATOM     11  C   LIG A   1      -8.710  -2.077 125.305  0.00  0.00    +0.012 C 
ATOM     12  C   LIG A   1      -8.507  -2.221 123.742  0.00  0.00    -0.031 C 
ATOM     13  C   LIG A   1      -9.608  -3.154 123.181  0.00  0.00    +0.011 C 
ATOM     14  C   LIG A   1      -7.150  -2.848 123.338  0.00  0.00    +0.011 C 
ATOM     15  C   LIG A   1      -8.644  -0.859 123.040  0.00  0.00    +0.007 C 
ATOM     16  C   LIG A   1      -7.684   0.198 123.571  0.00  0.00    +0.001 C 
ATOM     17  C   LIG A   1      -7.276   0.019 125.035  0.00  0.00    +0.012 C 
ATOM     18  C   LIG A   1      -8.337  -0.669 125.930  0.00  0.00    -0.003 C 
ATOM     19  C   LIG A   1      -9.623   0.207 125.986  0.00  0.00    +0.016 C 
ENDROOT
BRANCH   1  21
ATOM     20  C   LIG A   1      -6.271  -4.028 130.282  0.00  0.00    +0.009 C 
ATOM     21  C   LIG A   1      -7.554  -3.211 130.374  0.00  0.00    +0.033 C 
ENDBRANCH   1  21
TORSDOF 1
ENDMDL
MODEL 3
REMARK VINA RESULT:      -7.4      3.137      6.051
REMARK  Name = NuBBE_2501
REMARK  6 active torsions:
REMARK  status: ('A' for Active; 'I' for Inactive)
REMARK    1  A    between atoms: C_1  and  C_2
REMARK    2  A    between atoms: C_2  and  C_3
REMARK    3  A    between atoms: C_4  and  C_5
REMARK    4  A    between atoms: C_15  and  C_16
REMARK    5  A    between atoms: C_15  and  C_17
REMARK    6  A    between atoms: C_21  and  C_22
REMARK                            x       y       z     vdW  Elec       q    Type
REMARK                         _______ _______ _______ _____ _____    ______ ____
ROOT
ATOM      1  C   LIG A   1      -7.703  -1.924 127.554  0.00  0.00    -0.034 A 
ATOM      2  C   LIG A   1      -8.629  -2.917 127.158  0.00  0.00    -0.047 A 
ATOM      3  C   LIG A   1      -8.979  -4.094 128.033  0.00  0.00    +0.044 C 
ATOM      4  C   LIG A   1      -9.277  -2.800 125.924  0.00  0.00    +0.004 A 
ATOM      5  C   LIG A   1      -9.018  -1.726 125.075  0.00  0.00    +0.005 A 
ATOM      6  C   LIG A   1      -8.111  -0.710 125.426  0.00  0.00    -0.030 A 
ATOM      7  C   LIG A   1      -7.452  -0.835 126.671  0.00  0.00    +0.025 A 
ATOM      8  C   LIG A   1      -6.513   0.253 127.032  0.00  0.00    +0.164 C 
ATOM      9  O   LIG A   1      -5.491   0.076 127.682  0.00  0.00    -0.292 OA
ATOM     10  C   LIG A   1      -6.912   1.605 126.530  0.00  0.00    +0.084 C 
ATOM     11  C   LIG A   1      -6.887   1.584 125.001  0.00  0.00    +0.012 C 
ATOM     12  C   LIG A   1      -7.122   3.033 124.409  0.00  0.00    -0.031 C 
ATOM     13  C   LIG A   1      -5.764   3.776 124.357  0.00  0.00    +0.011 C 
ATOM     14  C   LIG A   1      -8.075   3.913 125.254  0.00  0.00    +0.011 C 
ATOM     15  C   LIG A   1      -7.671   2.959 122.973  0.00  0.00    +0.007 C 
ATOM     16  C   LIG A   1      -8.962   2.159 122.857  0.00  0.00    +0.001 C 
ATOM     17  C   LIG A   1      -9.131   1.055 123.903  0.00  0.00    +0.012 C 
ATOM     18  C   LIG A   1      -7.809   0.434 124.418  0.00  0.00    -0.003 C 
ATOM     19  C   LIG A   1      -7.059  -0.254 123.240  0.00  0.00    +0.016 C 
ENDROOT
BRANCH   1  21
ATOM     20  C   LIG A   1      -7.789  -1.345 130.016  0.00  0.00    +0.009 C 
ATOM     21  C   LIG A   1      -7.011  -2.035 128.901  0.00  0.00    +0.033 C 
ENDBRANCH   1  21
TORSDOF 1
ENDMDL
MODEL 4
REMARK VINA RESULT:      -7.0      2.060      5.979
REMARK  Name = NuBBE_2501
REMARK  6 active torsions:
REMARK  status: ('A' for Active; 'I' for Inactive)
REMARK    1  A    between atoms: C_1  and  C_2
REMARK    2  A    between atoms: C_2  and  C_3
REMARK    3  A    between atoms: C_4  and  C_5
REMARK    4  A    between atoms: C_15  and  C_16
REMARK    5  A    between atoms: C_15  and  C_17
REMARK    6  A    between atoms: C_21  and  C_22
REMARK                            x       y       z     vdW  Elec       q    Type
REMARK                         _______ _______ _______ _____ _____    ______ ____
ROOT
ATOM      1  C   LIG A   1      -7.497  -1.245 129.632  0.00  0.00    -0.034 A 
ATOM      2  C   LIG A   1      -7.732  -2.550 130.124  0.00  0.00    -0.047 A 
ATOM      3  C   LIG A   1      -7.752  -2.870 131.597  0.00  0.00    +0.044 C 
ATOM      4  C   LIG A   1      -7.988  -3.589 129.223  0.00  0.00    +0.004 A 
ATOM      5  C   LIG A   1      -8.006  -3.360 127.848  0.00  0.00    +0.005 A 
ATOM      6  C   LIG A   1      -7.785  -2.080 127.310  0.00  0.00    -0.030 A 
ATOM      7  C   LIG A   1      -7.519  -1.034 128.223  0.00  0.00    +0.025 A 
ATOM      8  C   LIG A   1      -7.306   0.312 127.640  0.00  0.00    +0.164 C 
ATOM      9  O   LIG A   1      -6.541   1.141 128.115  0.00  0.00    -0.292 OA
ATOM     10  C   LIG A   1      -8.106   0.584 126.405  0.00  0.00    +0.084 C 
ATOM     11  C   LIG A   1      -7.646  -0.376 125.306  0.00  0.00    +0.012 C 
ATOM     12  C   LIG A   1      -8.323  -0.020 123.920  0.00  0.00    -0.031 C 
ATOM     13  C   LIG A   1      -7.484   1.079 123.223  0.00  0.00    +0.011 C 
ATOM     14  C   LIG A   1      -9.762   0.536 124.047  0.00  0.00    +0.011 C 
ATOM     15  C   LIG A   1      -8.354  -1.246 122.991  0.00  0.00    +0.007 C 
ATOM     16  C   LIG A   1      -9.063  -2.451 123.598  0.00  0.00    +0.001 C 
ATOM     17  C   LIG A   1      -9.010  -2.527 125.125  0.00  0.00    +0.012 C 
ATOM     18  C   LIG A   1      -7.754  -1.888 125.768  0.00  0.00    -0.003 C 
ATOM     19  C   LIG A   1      -6.479  -2.645 125.294  0.00  0.00    +0.016 C 
ENDROOT
BRANCH   1  21
ATOM     20  C   LIG A   1      -8.521   0.582 131.053  0.00  0.00    +0.009 C 
ATOM     21  C   LIG A   1      -7.238  -0.109 130.605  0.00  0.00    +0.033 C 
ENDBRANCH   1  21
TORSDOF 1
ENDMDL
MODEL 5
REMARK VINA RESULT:      -6.8      3.795      5.626
REMARK  Name = NuBBE_2501
REMARK  6 active torsions:
REMARK  status: ('A' for Active; 'I' for Inactive)
REMARK    1  A    between atoms: C_1  and  C_2
REMARK    2  A    between atoms: C_2  and  C_3
REMARK    3  A    between atoms: C_4  and  C_5
REMARK    4  A    between atoms: C_15  and  C_16
REMARK    5  A    between atoms: C_15  and  C_17
REMARK    6  A    between atoms: C_21  and  C_22
REMARK                            x       y       z     vdW  Elec       q    Type
REMARK                         _______ _______ _______ _____ _____    ______ ____
ROOT
ATOM      1  C   LIG A   1      -7.552  -1.622 124.402  0.00  0.00    -0.034 A 
ATOM      2  C   LIG A   1      -8.722  -1.723 123.614  0.00  0.00    -0.047 A 
ATOM      3  C   LIG A   1      -9.372  -3.044 123.291  0.00  0.00    +0.044 C 
ATOM      4  C   LIG A   1      -9.330  -0.557 123.133  0.00  0.00    +0.004 A 
ATOM      5  C   LIG A   1      -8.795   0.699 123.413  0.00  0.00    +0.005 A 
ATOM      6  C   LIG A   1      -7.638   0.851 124.197  0.00  0.00    -0.030 A 
ATOM      7  C   LIG A   1      -7.022  -0.329 124.674  0.00  0.00    +0.025 A 
ATOM      8  C   LIG A   1      -5.814  -0.148 125.513  0.00  0.00    +0.164 C 
ATOM      9  O   LIG A   1      -4.872  -0.930 125.518  0.00  0.00    -0.292 OA
ATOM     10  C   LIG A   1      -5.830   1.082 126.364  0.00  0.00    +0.084 C 
ATOM     11  C   LIG A   1      -5.834   2.307 125.448  0.00  0.00    +0.012 C 
ATOM     12  C   LIG A   1      -5.667   3.642 126.283  0.00  0.00    -0.031 C 
ATOM     13  C   LIG A   1      -4.157   3.899 126.515  0.00  0.00    +0.011 C 
ATOM     14  C   LIG A   1      -6.327   3.596 127.682  0.00  0.00    +0.011 C 
ATOM     15  C   LIG A   1      -6.235   4.847 125.514  0.00  0.00    +0.007 C 
ATOM     16  C   LIG A   1      -7.698   4.685 125.123  0.00  0.00    +0.001 C 
ATOM     17  C   LIG A   1      -8.152   3.238 124.916  0.00  0.00    +0.012 C 
ATOM     18  C   LIG A   1      -7.045   2.270 124.427  0.00  0.00    -0.003 C 
ATOM     19  C   LIG A   1      -6.531   2.723 123.030  0.00  0.00    +0.016 C 
ENDROOT
BRANCH   1  21
ATOM     20  C   LIG A   1      -5.916  -3.501 123.956  0.00  0.00    +0.009 C 
ATOM     21  C   LIG A   1      -6.899  -2.882 124.943  0.00  0.00    +0.033 C 
ENDBRANCH   1  21
TORSDOF 1
ENDMDL
MODEL 6
REMARK VINA RESULT:      -6.8      2.262      3.183
REMARK  Name = NuBBE_2501
REMARK  6 active torsions:
REMARK  status: ('A' for Active; 'I' for Inactive)
REMARK    1  A    between atoms: C_1  and  C_2
REMARK    2  A    between atoms: C_2  and  C_3
REMARK    3  A    between atoms: C_4  and  C_5
REMARK    4  A    between atoms: C_15  and  C_16
REMARK    5  A    between atoms: C_15  and  C_17
REMARK    6  A    between atoms: C_21  and  C_22
REMARK                            x       y       z     vdW  Elec       q    Type
REMARK                         _______ _______ _______ _____ _____    ______ ____
ROOT
ATOM      1  C   LIG A   1      -8.642  -0.981 124.066  0.00  0.00    -0.034 A 
ATOM      2  C   LIG A   1      -9.359   0.207 123.790  0.00  0.00    -0.047 A 
ATOM      3  C   LIG A   1     -10.127   0.411 122.509  0.00  0.00    +0.044 C 
ATOM      4  C   LIG A   1      -9.392   1.227 124.746  0.00  0.00    +0.004 A 
ATOM      5  C   LIG A   1      -8.723   1.096 125.961  0.00  0.00    +0.005 A 
ATOM      6  C   LIG A   1      -8.002  -0.067 126.285  0.00  0.00    -0.030 A 
ATOM      7  C   LIG A   1      -7.964  -1.094 125.313  0.00  0.00    +0.025 A 
ATOM      8  C   LIG A   1      -7.215  -2.319 125.678  0.00  0.00    +0.164 C 
ATOM      9  O   LIG A   1      -6.594  -2.997 124.870  0.00  0.00    -0.292 OA
ATOM     10  C   LIG A   1      -7.271  -2.668 127.132  0.00  0.00    +0.084 C 
ATOM     11  C   LIG A   1      -6.580  -1.558 127.926  0.00  0.00    +0.012 C 
ATOM     12  C   LIG A   1      -6.444  -1.952 129.453  0.00  0.00    -0.031 C 
ATOM     13  C   LIG A   1      -5.158  -2.796 129.637  0.00  0.00    +0.011 C 
ATOM     14  C   LIG A   1      -7.616  -2.810 129.990  0.00  0.00    +0.011 C 
ATOM     15  C   LIG A   1      -6.312  -0.700 130.336  0.00  0.00    +0.007 C 
ATOM     16  C   LIG A   1      -7.467   0.281 130.177  0.00  0.00    +0.001 C 
ATOM     17  C   LIG A   1      -8.144   0.260 128.804  0.00  0.00    +0.012 C 
ATOM     18  C   LIG A   1      -7.220  -0.140 127.626  0.00  0.00    -0.003 C 
ATOM     19  C   LIG A   1      -6.074   0.902 127.482  0.00  0.00    +0.016 C 
ENDROOT
BRANCH   1  21
ATOM     20  C   LIG A   1      -9.657  -3.178 123.327  0.00  0.00    +0.009 C 
ATOM     21  C   LIG A   1      -8.618  -2.101 123.040  0.00  0.00    +0.033 C 
ENDBRANCH   1  21
TORSDOF 1
ENDMDL
MODEL 7
REMARK VINA RESULT:      -6.7      3.669      6.405
REMARK  Name = NuBBE_2501
REMARK  6 active torsions:
REMARK  status: ('A' for Active; 'I' for Inactive)
REMARK    1  A    between atoms: C_1  and  C_2
REMARK    2  A    between atoms: C_2  and  C_3
REMARK    3  A    between atoms: C_4  and  C_5
REMARK    4  A    between atoms: C_15  and  C_16
REMARK    5  A    between atoms: C_15  and  C_17
REMARK    6  A    between atoms: C_21  and  C_22
REMARK                            x       y       z     vdW  Elec       q    Type
REMARK                         _______ _______ _______ _____ _____    ______ ____
ROOT
ATOM      1  C   LIG A   1      -8.416  -1.817 126.146  0.00  0.00    -0.034 A 
ATOM      2  C   LIG A   1      -7.848  -1.974 127.432  0.00  0.00    -0.047 A 
ATOM      3  C   LIG A   1      -7.972  -3.251 128.224  0.00  0.00    +0.044 C 
ATOM      4  C   LIG A   1      -7.113  -0.923 127.992  0.00  0.00    +0.004 A 
ATOM      5  C   LIG A   1      -6.939   0.277 127.305  0.00  0.00    +0.005 A 
ATOM      6  C   LIG A   1      -7.478   0.479 126.022  0.00  0.00    -0.030 A 
ATOM      7  C   LIG A   1      -8.228  -0.582 125.463  0.00  0.00    +0.025 A 
ATOM      8  C   LIG A   1      -8.773  -0.358 124.104  0.00  0.00    +0.164 C 
ATOM      9  O   LIG A   1      -9.839  -0.822 123.719  0.00  0.00    -0.292 OA
ATOM     10  C   LIG A   1      -7.912   0.493 123.224  0.00  0.00    +0.084 C 
ATOM     11  C   LIG A   1      -7.835   1.895 123.830  0.00  0.00    +0.012 C 
ATOM     12  C   LIG A   1      -7.089   2.895 122.854  0.00  0.00    -0.031 C 
ATOM     13  C   LIG A   1      -8.115   3.459 121.841  0.00  0.00    +0.011 C 
ATOM     14  C   LIG A   1      -5.961   2.239 122.022  0.00  0.00    +0.011 C 
ATOM     15  C   LIG A   1      -6.496   4.083 123.631  0.00  0.00    +0.007 C 
ATOM     16  C   LIG A   1      -5.541   3.667 124.742  0.00  0.00    +0.001 C 
ATOM     17  C   LIG A   1      -5.823   2.292 125.352  0.00  0.00    +0.012 C 
ATOM     18  C   LIG A   1      -7.310   1.858 125.325  0.00  0.00    -0.003 C 
ATOM     19  C   LIG A   1      -8.161   2.846 126.175  0.00  0.00    +0.016 C 
ENDROOT
BRANCH   1  21
ATOM     20  C   LIG A   1      -8.315  -3.902 124.715  0.00  0.00    +0.009 C 
ATOM     21  C   LIG A   1      -9.198  -2.961 125.526  0.00  0.00    +0.033 C 
ENDBRANCH   1  21
TORSDOF 1
ENDMDL
MODEL 8
REMARK VINA RESULT:      -6.7      1.619      6.127
REMARK  Name = NuBBE_2501
REMARK  6 active torsions:
REMARK  status: ('A' for Active; 'I' for Inactive)
REMARK    1  A    between atoms: C_1  and  C_2
REMARK    2  A    between atoms: C_2  and  C_3
REMARK    3  A    between atoms: C_4  and  C_5
REMARK    4  A    between atoms: C_15  and  C_16
REMARK    5  A    between atoms: C_15  and  C_17
REMARK    6  A    between atoms: C_21  and  C_22
REMARK                            x       y       z     vdW  Elec       q    Type
REMARK                         _______ _______ _______ _____ _____    ______ ____
ROOT
ATOM      1  C   LIG A   1      -5.863  -3.369 130.524  0.00  0.00    -0.034 A 
ATOM      2  C   LIG A   1      -4.480  -3.598 130.716  0.00  0.00    -0.047 A 
ATOM      3  C   LIG A   1      -3.916  -4.115 132.015  0.00  0.00    +0.044 C 
ATOM      4  C   LIG A   1      -3.592  -3.370 129.659  0.00  0.00    +0.004 A 
ATOM      5  C   LIG A   1      -4.048  -2.913 128.423  0.00  0.00    +0.005 A 
ATOM      6  C   LIG A   1      -5.413  -2.677 128.181  0.00  0.00    -0.030 A 
ATOM      7  C   LIG A   1      -6.306  -2.901 129.254  0.00  0.00    +0.025 A 
ATOM      8  C   LIG A   1      -7.742  -2.664 128.976  0.00  0.00    +0.164 C 
ATOM      9  O   LIG A   1      -8.531  -2.240 129.810  0.00  0.00    -0.292 OA
ATOM     10  C   LIG A   1      -8.162  -2.984 127.575  0.00  0.00    +0.084 C 
ATOM     11  C   LIG A   1      -7.436  -2.034 126.621  0.00  0.00    +0.012 C 
ATOM     12  C   LIG A   1      -7.971  -2.196 125.141  0.00  0.00    -0.031 C 
ATOM     13  C   LIG A   1      -9.228  -1.309 124.965  0.00  0.00    +0.011 C 
ATOM     14  C   LIG A   1      -8.396  -3.640 124.779  0.00  0.00    +0.011 C 
ATOM     15  C   LIG A   1      -6.920  -1.727 124.120  0.00  0.00    +0.007 C 
ATOM     16  C   LIG A   1      -5.584  -2.447 124.248  0.00  0.00    +0.001 C 
ATOM     17  C   LIG A   1      -5.255  -2.948 125.656  0.00  0.00    +0.012 C 
ATOM     18  C   LIG A   1      -5.863  -2.108 126.807  0.00  0.00    -0.003 C 
ATOM     19  C   LIG A   1      -5.289  -0.662 126.762  0.00  0.00    +0.016 C 
ENDROOT
BRANCH   1  21
ATOM     20  C   LIG A   1      -6.900  -2.478 132.653  0.00  0.00    +0.009 C 
ATOM     21  C   LIG A   1      -6.833  -3.633 131.661  0.00  0.00    +0.033 C 
ENDBRANCH   1  21
TORSDOF 1
ENDMDL
MODEL 9
REMARK VINA RESULT:      -6.7      3.221      5.951
REMARK  Name = NuBBE_2501
REMARK  6 active torsions:
REMARK  status: ('A' for Active; 'I' for Inactive)
REMARK    1  A    between atoms: C_1  and  C_2
REMARK    2  A    between atoms: C_2  and  C_3
REMARK    3  A    between atoms: C_4  and  C_5
REMARK    4  A    between atoms: C_15  and  C_16
REMARK    5  A    between atoms: C_15  and  C_17
REMARK    6  A    between atoms: C_21  and  C_22
REMARK                            x       y       z     vdW  Elec       q    Type
REMARK                         _______ _______ _______ _____ _____    ______ ____
ROOT
ATOM      1  C   LIG A   1      -7.364   2.690 127.168  0.00  0.00    -0.034 A 
ATOM      2  C   LIG A   1      -7.866   2.564 128.485  0.00  0.00    -0.047 A 
ATOM      3  C   LIG A   1      -8.121   3.754 129.374  0.00  0.00    +0.044 C 
ATOM      4  C   LIG A   1      -8.172   1.293 128.985  0.00  0.00    +0.004 A 
ATOM      5  C   LIG A   1      -7.982   0.151 128.209  0.00  0.00    +0.005 A 
ATOM      6  C   LIG A   1      -7.493   0.225 126.893  0.00  0.00    -0.030 A 
ATOM      7  C   LIG A   1      -7.177   1.510 126.394  0.00  0.00    +0.025 A 
ATOM      8  C   LIG A   1      -6.679   1.571 124.999  0.00  0.00    +0.164 C 
ATOM      9  O   LIG A   1      -5.856   2.389 124.611  0.00  0.00    -0.292 OA
ATOM     10  C   LIG A   1      -7.264   0.538 124.088  0.00  0.00    +0.084 C 
ATOM     11  C   LIG A   1      -6.832  -0.845 124.578  0.00  0.00    +0.012 C 
ATOM     12  C   LIG A   1      -7.266  -1.972 123.555  0.00  0.00    -0.031 C 
ATOM     13  C   LIG A   1      -6.180  -2.092 122.457  0.00  0.00    +0.011 C 
ATOM     14  C   LIG A   1      -8.600  -1.682 122.826  0.00  0.00    +0.011 C 
ATOM     15  C   LIG A   1      -7.378  -3.338 124.254  0.00  0.00    +0.007 C 
ATOM     16  C   LIG A   1      -8.342  -3.339 125.434  0.00  0.00    +0.001 C 
ATOM     17  C   LIG A   1      -8.492  -1.992 126.144  0.00  0.00    +0.012 C 
ATOM     18  C   LIG A   1      -7.239  -1.082 126.092  0.00  0.00    -0.003 C 
ATOM     19  C   LIG A   1      -6.054  -1.779 126.821  0.00  0.00    +0.016 C 
ENDROOT
BRANCH   1  21
ATOM     20  C   LIG A   1      -8.218   4.669 125.841  0.00  0.00    +0.009 C 
ATOM     21  C   LIG A   1      -7.049   4.068 126.613  0.00  0.00    +0.033 C 
ENDBRANCH   1  21
TORSDOF 1
ENDMDL
