MODEL 1
REMARK VINA RESULT:      -7.1      0.000      0.000
REMARK  Name = NuBBE_2047
REMARK  8 active torsions:
REMARK  status: ('A' for Active; 'I' for Inactive)
REMARK    1  A    between atoms: O_1  and  C_2
REMARK    2  A    between atoms: C_12  and  O_13
REMARK    3  A    between atoms: O_13  and  C_14
REMARK    4  A    between atoms: C_15  and  O_19
REMARK    5  A    between atoms: C_16  and  O_18
REMARK    6  A    between atoms: O_19  and  C_20
REMARK    7  A    between atoms: C_25  and  O_26
REMARK    8  A    between atoms: O_26  and  C_27
REMARK                            x       y       z     vdW  Elec       q    Type
REMARK                         _______ _______ _______ _____ _____    ______ ____
ROOT
ATOM      1  C   LIG A   1      -4.269   5.334 130.280  0.00  0.00    +0.159 A 
ATOM      2  C   LIG A   1      -5.635   5.383 130.005  0.00  0.00    +0.060 A 
ATOM      3  C   LIG A   1      -6.572   5.373 131.049  0.00  0.00    +0.039 A 
ATOM      4  C   LIG A   1      -8.037   5.363 130.737  0.00  0.00    +0.218 C 
ATOM      5  C   LIG A   1      -8.936   5.378 131.974  0.00  0.00    +0.106 C 
ATOM      6  C   LIG A   1     -10.065   6.169 131.413  0.00  0.00    +0.012 A 
ATOM      7  C   LIG A   1      -9.662   6.811 130.237  0.00  0.00    +0.170 A 
ATOM      8  O   LIG A   1      -8.352   6.524 129.932  0.00  0.00    -0.479 OA
ATOM      9  C   LIG A   1     -10.510   7.626 129.488  0.00  0.00    +0.208 A 
ATOM     10  C   LIG A   1     -11.824   7.774 129.971  0.00  0.00    +0.207 A 
ATOM     11  C   LIG A   1     -12.223   7.091 131.144  0.00  0.00    +0.163 A 
ATOM     12  C   LIG A   1     -11.355   6.298 131.885  0.00  0.00    +0.057 A 
ATOM     13  C   LIG A   1      -8.216   6.038 133.140  0.00  0.00    +0.241 C 
ATOM     14  O   LIG A   1      -6.979   5.370 133.437  0.00  0.00    -0.491 OA
ATOM     15  C   LIG A   1      -6.121   5.347 132.368  0.00  0.00    +0.131 A 
ATOM     16  C   LIG A   1      -4.754   5.261 132.641  0.00  0.00    +0.095 A 
ATOM     17  C   LIG A   1      -3.815   5.243 131.599  0.00  0.00    +0.165 A 
ENDROOT
BRANCH   1  18
ATOM     18  O   LIG A   1      -3.401   5.397 129.224  0.00  0.00    -0.503 OA
ATOM     19  H   LIG A   1      -2.831   4.611 129.234  0.00  0.00    +0.292 HD
ENDBRANCH   1  18
BRANCH   9  20
ATOM     20  O   LIG A   1     -10.192   8.247 128.314  0.00  0.00    -0.488 OA
ATOM     21  C   LIG A   1     -10.611   7.663 127.089  0.00  0.00    +0.277 C 
ENDBRANCH   9  20
BRANCH  11  22
ATOM     22  O   LIG A   1     -13.517   7.201 131.587  0.00  0.00    -0.503 OA
ATOM     23  H   LIG A   1     -13.590   6.546 132.309  0.00  0.00    +0.292 HD
ENDBRANCH  11  22
BRANCH  10  24
ATOM     24  O   LIG A   1     -12.850   8.492 129.396  0.00  0.00    -0.488 OA
ATOM     25  C   LIG A   1     -12.912   9.882 129.699  0.00  0.00    +0.277 C 
ENDBRANCH  10  24
BRANCH  17  26
ATOM     26  O   LIG A   1      -2.512   5.190 132.022  0.00  0.00    -0.491 OA
ATOM     27  C   LIG A   1      -2.148   4.066 132.815  0.00  0.00    +0.277 C 
ENDBRANCH  17  26
TORSDOF 5
ENDMDL
MODEL 2
REMARK VINA RESULT:      -7.0      1.735      2.195
REMARK  Name = NuBBE_2047
REMARK  8 active torsions:
REMARK  status: ('A' for Active; 'I' for Inactive)
REMARK    1  A    between atoms: O_1  and  C_2
REMARK    2  A    between atoms: C_12  and  O_13
REMARK    3  A    between atoms: O_13  and  C_14
REMARK    4  A    between atoms: C_15  and  O_19
REMARK    5  A    between atoms: C_16  and  O_18
REMARK    6  A    between atoms: O_19  and  C_20
REMARK    7  A    between atoms: C_25  and  O_26
REMARK    8  A    between atoms: O_26  and  C_27
REMARK                            x       y       z     vdW  Elec       q    Type
REMARK                         _______ _______ _______ _____ _____    ______ ____
ROOT
ATOM      1  C   LIG A   1      -5.397   3.786 127.811  0.00  0.00    +0.159 A 
ATOM      2  C   LIG A   1      -6.750   3.979 128.089  0.00  0.00    +0.060 A 
ATOM      3  C   LIG A   1      -7.154   4.515 129.320  0.00  0.00    +0.039 A 
ATOM      4  C   LIG A   1      -8.613   4.659 129.629  0.00  0.00    +0.218 C 
ATOM      5  C   LIG A   1      -8.902   5.281 130.996  0.00  0.00    +0.106 C 
ATOM      6  C   LIG A   1     -10.152   6.008 130.646  0.00  0.00    +0.012 A 
ATOM      7  C   LIG A   1     -10.279   6.099 129.255  0.00  0.00    +0.170 A 
ATOM      8  O   LIG A   1      -9.226   5.489 128.614  0.00  0.00    -0.479 OA
ATOM      9  C   LIG A   1     -11.355   6.729 128.631  0.00  0.00    +0.208 A 
ATOM     10  C   LIG A   1     -12.338   7.276 129.478  0.00  0.00    +0.207 A 
ATOM     11  C   LIG A   1     -12.208   7.145 130.881  0.00  0.00    +0.163 A 
ATOM     12  C   LIG A   1     -11.118   6.529 131.482  0.00  0.00    +0.057 A 
ATOM     13  C   LIG A   1      -7.746   6.175 131.422  0.00  0.00    +0.241 C 
ATOM     14  O   LIG A   1      -6.508   5.446 131.462  0.00  0.00    -0.491 OA
ATOM     15  C   LIG A   1      -6.186   4.885 130.253  0.00  0.00    +0.131 A 
ATOM     16  C   LIG A   1      -4.834   4.657 129.989  0.00  0.00    +0.095 A 
ATOM     17  C   LIG A   1      -4.427   4.095 128.769  0.00  0.00    +0.165 A 
ENDROOT
BRANCH   1  18
ATOM     18  O   LIG A   1      -5.060   3.306 126.575  0.00  0.00    -0.503 OA
ATOM     19  H   LIG A   1      -5.318   2.372 126.516  0.00  0.00    +0.292 HD
ENDBRANCH   1  18
BRANCH   9  20
ATOM     20  O   LIG A   1     -11.559   6.817 127.284  0.00  0.00    -0.488 OA
ATOM     21  C   LIG A   1     -10.857   7.804 126.542  0.00  0.00    +0.277 C 
ENDBRANCH   9  20
BRANCH  11  22
ATOM     22  O   LIG A   1     -13.190   7.640 131.702  0.00  0.00    -0.503 OA
ATOM     23  H   LIG A   1     -13.859   8.012 131.093  0.00  0.00    +0.292 HD
ENDBRANCH  11  22
BRANCH  10  24
ATOM     24  O   LIG A   1     -13.503   7.912 129.105  0.00  0.00    -0.488 OA
ATOM     25  C   LIG A   1     -13.393   9.274 128.708  0.00  0.00    +0.277 C 
ENDBRANCH  10  24
BRANCH  17  26
ATOM     26  O   LIG A   1      -3.068   3.963 128.641  0.00  0.00    -0.491 OA
ATOM     27  C   LIG A   1      -2.362   5.104 128.166  0.00  0.00    +0.277 C 
ENDBRANCH  17  26
TORSDOF 5
ENDMDL
MODEL 3
REMARK VINA RESULT:      -7.0      2.332      7.748
REMARK  Name = NuBBE_2047
REMARK  8 active torsions:
REMARK  status: ('A' for Active; 'I' for Inactive)
REMARK    1  A    between atoms: O_1  and  C_2
REMARK    2  A    between atoms: C_12  and  O_13
REMARK    3  A    between atoms: O_13  and  C_14
REMARK    4  A    between atoms: C_15  and  O_19
REMARK    5  A    between atoms: C_16  and  O_18
REMARK    6  A    between atoms: O_19  and  C_20
REMARK    7  A    between atoms: C_25  and  O_26
REMARK    8  A    between atoms: O_26  and  C_27
REMARK                            x       y       z     vdW  Elec       q    Type
REMARK                         _______ _______ _______ _____ _____    ______ ____
ROOT
ATOM      1  C   LIG A   1     -12.050   7.047 131.185  0.00  0.00    +0.159 A 
ATOM      2  C   LIG A   1     -11.141   6.388 132.012  0.00  0.00    +0.060 A 
ATOM      3  C   LIG A   1      -9.783   6.319 131.664  0.00  0.00    +0.039 A 
ATOM      4  C   LIG A   1      -8.829   5.556 132.531  0.00  0.00    +0.218 C 
ATOM      5  C   LIG A   1      -7.381   5.589 132.041  0.00  0.00    +0.106 C 
ATOM      6  C   LIG A   1      -6.701   5.556 133.364  0.00  0.00    +0.012 A 
ATOM      7  C   LIG A   1      -7.613   5.868 134.378  0.00  0.00    +0.170 A 
ATOM      8  O   LIG A   1      -8.869   6.107 133.869  0.00  0.00    -0.479 OA
ATOM      9  C   LIG A   1      -7.262   5.915 135.727  0.00  0.00    +0.208 A 
ATOM     10  C   LIG A   1      -5.921   5.619 136.036  0.00  0.00    +0.207 A 
ATOM     11  C   LIG A   1      -5.021   5.274 135.000  0.00  0.00    +0.163 A 
ATOM     12  C   LIG A   1      -5.389   5.251 133.660  0.00  0.00    +0.057 A 
ATOM     13  C   LIG A   1      -7.128   6.852 131.230  0.00  0.00    +0.241 C 
ATOM     14  O   LIG A   1      -8.030   6.946 130.115  0.00  0.00    -0.491 OA
ATOM     15  C   LIG A   1      -9.346   6.944 130.497  0.00  0.00    +0.131 A 
ATOM     16  C   LIG A   1     -10.264   7.572 129.652  0.00  0.00    +0.095 A 
ATOM     17  C   LIG A   1     -11.627   7.619 129.982  0.00  0.00    +0.165 A 
ENDROOT
BRANCH   1  18
ATOM     18  O   LIG A   1     -13.351   7.125 131.600  0.00  0.00    -0.503 OA
ATOM     19  H   LIG A   1     -13.689   6.228 131.756  0.00  0.00    +0.292 HD
ENDBRANCH   1  18
BRANCH   9  20
ATOM     20  O   LIG A   1      -8.110   6.173 136.766  0.00  0.00    -0.488 OA
ATOM     21  C   LIG A   1      -8.347   7.521 137.146  0.00  0.00    +0.277 C 
ENDBRANCH   9  20
BRANCH  11  22
ATOM     22  O   LIG A   1      -3.726   4.942 135.309  0.00  0.00    -0.503 OA
ATOM     23  H   LIG A   1      -3.271   5.799 135.426  0.00  0.00    +0.292 HD
ENDBRANCH  11  22
BRANCH  10  24
ATOM     24  O   LIG A   1      -5.343   5.565 137.286  0.00  0.00    -0.488 OA
ATOM     25  C   LIG A   1      -4.821   6.783 137.806  0.00  0.00    +0.277 C 
ENDBRANCH  10  24
BRANCH  17  26
ATOM     26  O   LIG A   1     -12.398   8.296 129.073  0.00  0.00    -0.491 OA
ATOM     27  C   LIG A   1     -12.626   7.648 127.827  0.00  0.00    +0.277 C 
ENDBRANCH  17  26
TORSDOF 5
ENDMDL
MODEL 4
REMARK VINA RESULT:      -6.8      2.850      7.221
REMARK  Name = NuBBE_2047
REMARK  8 active torsions:
REMARK  status: ('A' for Active; 'I' for Inactive)
REMARK    1  A    between atoms: O_1  and  C_2
REMARK    2  A    between atoms: C_12  and  O_13
REMARK    3  A    between atoms: O_13  and  C_14
REMARK    4  A    between atoms: C_15  and  O_19
REMARK    5  A    between atoms: C_16  and  O_18
REMARK    6  A    between atoms: O_19  and  C_20
REMARK    7  A    between atoms: C_25  and  O_26
REMARK    8  A    between atoms: O_26  and  C_27
REMARK                            x       y       z     vdW  Elec       q    Type
REMARK                         _______ _______ _______ _____ _____    ______ ____
ROOT
ATOM      1  C   LIG A   1     -11.170   8.094 127.984  0.00  0.00    +0.159 A 
ATOM      2  C   LIG A   1     -10.162   7.342 128.588  0.00  0.00    +0.060 A 
ATOM      3  C   LIG A   1     -10.251   6.991 129.943  0.00  0.00    +0.039 A 
ATOM      4  C   LIG A   1      -9.132   6.237 130.594  0.00  0.00    +0.218 C 
ATOM      5  C   LIG A   1      -9.380   5.903 132.066  0.00  0.00    +0.106 C 
ATOM      6  C   LIG A   1      -8.661   4.601 132.118  0.00  0.00    +0.012 A 
ATOM      7  C   LIG A   1      -8.431   4.128 130.822  0.00  0.00    +0.170 A 
ATOM      8  O   LIG A   1      -8.924   4.997 129.876  0.00  0.00    -0.479 OA
ATOM      9  C   LIG A   1      -7.776   2.926 130.557  0.00  0.00    +0.208 A 
ATOM     10  C   LIG A   1      -7.335   2.194 131.675  0.00  0.00    +0.207 A 
ATOM     11  C   LIG A   1      -7.548   2.704 132.978  0.00  0.00    +0.163 A 
ATOM     12  C   LIG A   1      -8.219   3.896 133.219  0.00  0.00    +0.057 A 
ATOM     13  C   LIG A   1     -10.874   5.814 132.341  0.00  0.00    +0.241 C 
ATOM     14  O   LIG A   1     -11.543   7.037 131.992  0.00  0.00    -0.491 OA
ATOM     15  C   LIG A   1     -11.375   7.375 130.674  0.00  0.00    +0.131 A 
ATOM     16  C   LIG A   1     -12.365   8.158 130.078  0.00  0.00    +0.095 A 
ATOM     17  C   LIG A   1     -12.266   8.534 128.730  0.00  0.00    +0.165 A 
ENDROOT
BRANCH   1  18
ATOM     18  O   LIG A   1     -11.053   8.363 126.648  0.00  0.00    -0.503 OA
ATOM     19  H   LIG A   1     -10.988   7.526 126.160  0.00  0.00    +0.292 HD
ENDBRANCH   1  18
BRANCH   9  20
ATOM     20  O   LIG A   1      -7.485   2.429 129.318  0.00  0.00    -0.488 OA
ATOM     21  C   LIG A   1      -8.511   1.788 128.574  0.00  0.00    +0.277 C 
ENDBRANCH   9  20
BRANCH  11  22
ATOM     22  O   LIG A   1      -7.077   2.009 134.064  0.00  0.00    -0.503 OA
ATOM     23  H   LIG A   1      -7.401   2.509 134.838  0.00  0.00    +0.292 HD
ENDBRANCH  11  22
BRANCH  10  24
ATOM     24  O   LIG A   1      -6.638   1.004 131.674  0.00  0.00    -0.488 OA
ATOM     25  C   LIG A   1      -7.403  -0.189 131.545  0.00  0.00    +0.277 C 
ENDBRANCH  10  24
BRANCH  17  26
ATOM     26  O   LIG A   1     -13.329   9.273 128.277  0.00  0.00    -0.491 OA
ATOM     27  C   LIG A   1     -13.667  10.429 129.035  0.00  0.00    +0.277 C 
ENDBRANCH  17  26
TORSDOF 5
ENDMDL
MODEL 5
REMARK VINA RESULT:      -6.8      1.757      7.282
REMARK  Name = NuBBE_2047
REMARK  8 active torsions:
REMARK  status: ('A' for Active; 'I' for Inactive)
REMARK    1  A    between atoms: O_1  and  C_2
REMARK    2  A    between atoms: C_12  and  O_13
REMARK    3  A    between atoms: O_13  and  C_14
REMARK    4  A    between atoms: C_15  and  O_19
REMARK    5  A    between atoms: C_16  and  O_18
REMARK    6  A    between atoms: O_19  and  C_20
REMARK    7  A    between atoms: C_25  and  O_26
REMARK    8  A    between atoms: O_26  and  C_27
REMARK                            x       y       z     vdW  Elec       q    Type
REMARK                         _______ _______ _______ _____ _____    ______ ____
ROOT
ATOM      1  C   LIG A   1     -10.914   8.158 128.582  0.00  0.00    +0.159 A 
ATOM      2  C   LIG A   1      -9.708   7.772 129.166  0.00  0.00    +0.060 A 
ATOM      3  C   LIG A   1      -9.694   7.138 130.417  0.00  0.00    +0.039 A 
ATOM      4  C   LIG A   1      -8.387   6.785 131.060  0.00  0.00    +0.218 C 
ATOM      5  C   LIG A   1      -8.529   6.077 132.408  0.00  0.00    +0.106 C 
ATOM      6  C   LIG A   1      -7.329   5.201 132.321  0.00  0.00    +0.012 A 
ATOM      7  C   LIG A   1      -6.869   5.148 131.001  0.00  0.00    +0.170 A 
ATOM      8  O   LIG A   1      -7.645   5.920 130.167  0.00  0.00    -0.479 OA
ATOM      9  C   LIG A   1      -5.756   4.402 130.614  0.00  0.00    +0.208 A 
ATOM     10  C   LIG A   1      -5.091   3.694 131.633  0.00  0.00    +0.207 A 
ATOM     11  C   LIG A   1      -5.552   3.786 132.967  0.00  0.00    +0.163 A 
ATOM     12  C   LIG A   1      -6.674   4.521 133.327  0.00  0.00    +0.057 A 
ATOM     13  C   LIG A   1      -9.854   5.332 132.474  0.00  0.00    +0.241 C 
ATOM     14  O   LIG A   1     -10.964   6.220 132.264  0.00  0.00    -0.491 OA
ATOM     15  C   LIG A   1     -10.903   6.867 131.057  0.00  0.00    +0.131 A 
ATOM     16  C   LIG A   1     -12.107   7.286 130.488  0.00  0.00    +0.095 A 
ATOM     17  C   LIG A   1     -12.123   7.946 129.250  0.00  0.00    +0.165 A 
ENDROOT
BRANCH   1  18
ATOM     18  O   LIG A   1     -10.870   8.727 127.339  0.00  0.00    -0.503 OA
ATOM     19  H   LIG A   1     -10.016   9.174 127.224  0.00  0.00    +0.292 HD
ENDBRANCH   1  18
BRANCH   9  20
ATOM     20  O   LIG A   1      -5.233   4.341 129.353  0.00  0.00    -0.488 OA
ATOM     21  C   LIG A   1      -4.336   5.356 128.928  0.00  0.00    +0.277 C 
ENDBRANCH   9  20
BRANCH  11  22
ATOM     22  O   LIG A   1      -4.875   3.131 133.965  0.00  0.00    -0.503 OA
ATOM     23  H   LIG A   1      -4.282   2.510 133.497  0.00  0.00    +0.292 HD
ENDBRANCH  11  22
BRANCH  10  24
ATOM     24  O   LIG A   1      -3.957   2.921 131.510  0.00  0.00    -0.488 OA
ATOM     25  C   LIG A   1      -4.137   1.581 131.065  0.00  0.00    +0.277 C 
ENDBRANCH  10  24
BRANCH  17  26
ATOM     26  O   LIG A   1     -13.380   8.266 128.805  0.00  0.00    -0.491 OA
ATOM     27  C   LIG A   1     -13.886   7.493 127.722  0.00  0.00    +0.277 C 
ENDBRANCH  17  26
TORSDOF 5
ENDMDL
MODEL 6
REMARK VINA RESULT:      -6.6      7.747      9.914
REMARK  Name = NuBBE_2047
REMARK  8 active torsions:
REMARK  status: ('A' for Active; 'I' for Inactive)
REMARK    1  A    between atoms: O_1  and  C_2
REMARK    2  A    between atoms: C_12  and  O_13
REMARK    3  A    between atoms: O_13  and  C_14
REMARK    4  A    between atoms: C_15  and  O_19
REMARK    5  A    between atoms: C_16  and  O_18
REMARK    6  A    between atoms: O_19  and  C_20
REMARK    7  A    between atoms: C_25  and  O_26
REMARK    8  A    between atoms: O_26  and  C_27
REMARK                            x       y       z     vdW  Elec       q    Type
REMARK                         _______ _______ _______ _____ _____    ______ ____
ROOT
ATOM      1  C   LIG A   1      -6.617   4.128 124.224  0.00  0.00    +0.159 A 
ATOM      2  C   LIG A   1      -7.233   3.205 125.067  0.00  0.00    +0.060 A 
ATOM      3  C   LIG A   1      -7.466   1.890 124.635  0.00  0.00    +0.039 A 
ATOM      4  C   LIG A   1      -8.184   0.927 125.529  0.00  0.00    +0.218 C 
ATOM      5  C   LIG A   1      -8.343  -0.474 124.935  0.00  0.00    +0.106 C 
ATOM      6  C   LIG A   1      -8.255  -1.258 126.197  0.00  0.00    +0.012 A 
ATOM      7  C   LIG A   1      -7.731  -0.461 127.220  0.00  0.00    +0.170 A 
ATOM      8  O   LIG A   1      -7.456   0.812 126.775  0.00  0.00    -0.479 OA
ATOM      9  C   LIG A   1      -7.533  -0.927 128.519  0.00  0.00    +0.208 A 
ATOM     10  C   LIG A   1      -7.899  -2.263 128.768  0.00  0.00    +0.207 A 
ATOM     11  C   LIG A   1      -8.457  -3.044 127.728  0.00  0.00    +0.163 A 
ATOM     12  C   LIG A   1      -8.629  -2.564 126.436  0.00  0.00    +0.057 A 
ATOM     13  C   LIG A   1      -7.227  -0.751 123.937  0.00  0.00    +0.241 C 
ATOM     14  O   LIG A   1      -7.207   0.232 122.889  0.00  0.00    -0.491 OA
ATOM     15  C   LIG A   1      -7.044   1.508 123.362  0.00  0.00    +0.131 A 
ATOM     16  C   LIG A   1      -6.460   2.443 122.506  0.00  0.00    +0.095 A 
ATOM     17  C   LIG A   1      -6.251   3.766 122.925  0.00  0.00    +0.165 A 
ENDROOT
BRANCH   1  18
ATOM     18  O   LIG A   1      -6.372   5.380 124.718  0.00  0.00    -0.503 OA
ATOM     19  H   LIG A   1      -7.184   5.728 125.120  0.00  0.00    +0.292 HD
ENDBRANCH   1  18
BRANCH   9  20
ATOM     20  O   LIG A   1      -7.065  -0.191 129.570  0.00  0.00    -0.488 OA
ATOM     21  C   LIG A   1      -7.969   0.632 130.294  0.00  0.00    +0.277 C 
ENDBRANCH   9  20
BRANCH  11  22
ATOM     22  O   LIG A   1      -8.855  -4.332 127.986  0.00  0.00    -0.503 OA
ATOM     23  H   LIG A   1      -8.205  -4.668 128.634  0.00  0.00    +0.292 HD
ENDBRANCH  11  22
BRANCH  10  24
ATOM     24  O   LIG A   1      -7.833  -2.938 129.968  0.00  0.00    -0.488 OA
ATOM     25  C   LIG A   1      -6.578  -3.516 130.312  0.00  0.00    +0.277 C 
ENDBRANCH  10  24
BRANCH  17  26
ATOM     26  O   LIG A   1      -5.639   4.558 121.988  0.00  0.00    -0.491 OA
ATOM     27  C   LIG A   1      -5.723   4.123 120.636  0.00  0.00    +0.277 C 
ENDBRANCH  17  26
TORSDOF 5
ENDMDL
MODEL 7
REMARK VINA RESULT:      -6.4      7.645      8.752
REMARK  Name = NuBBE_2047
REMARK  8 active torsions:
REMARK  status: ('A' for Active; 'I' for Inactive)
REMARK    1  A    between atoms: O_1  and  C_2
REMARK    2  A    between atoms: C_12  and  O_13
REMARK    3  A    between atoms: O_13  and  C_14
REMARK    4  A    between atoms: C_15  and  O_19
REMARK    5  A    between atoms: C_16  and  O_18
REMARK    6  A    between atoms: O_19  and  C_20
REMARK    7  A    between atoms: C_25  and  O_26
REMARK    8  A    between atoms: O_26  and  C_27
REMARK                            x       y       z     vdW  Elec       q    Type
REMARK                         _______ _______ _______ _____ _____    ______ ____
ROOT
ATOM      1  C   LIG A   1      -3.811  -2.694 130.680  0.00  0.00    +0.159 A 
ATOM      2  C   LIG A   1      -4.337  -2.064 129.553  0.00  0.00    +0.060 A 
ATOM      3  C   LIG A   1      -5.571  -2.468 129.022  0.00  0.00    +0.039 A 
ATOM      4  C   LIG A   1      -6.094  -1.824 127.775  0.00  0.00    +0.218 C 
ATOM      5  C   LIG A   1      -7.459  -2.349 127.329  0.00  0.00    +0.106 C 
ATOM      6  C   LIG A   1      -7.997  -1.090 126.745  0.00  0.00    +0.012 A 
ATOM      7  C   LIG A   1      -7.233   0.001 127.173  0.00  0.00    +0.170 A 
ATOM      8  O   LIG A   1      -6.206  -0.398 127.997  0.00  0.00    -0.479 OA
ATOM      9  C   LIG A   1      -7.501   1.314 126.787  0.00  0.00    +0.208 A 
ATOM     10  C   LIG A   1      -8.594   1.501 125.920  0.00  0.00    +0.207 A 
ATOM     11  C   LIG A   1      -9.336   0.382 125.473  0.00  0.00    +0.163 A 
ATOM     12  C   LIG A   1      -9.061  -0.916 125.885  0.00  0.00    +0.057 A 
ATOM     13  C   LIG A   1      -8.237  -2.875 128.526  0.00  0.00    +0.241 C 
ATOM     14  O   LIG A   1      -7.509  -3.910 129.209  0.00  0.00    -0.491 OA
ATOM     15  C   LIG A   1      -6.282  -3.488 129.653  0.00  0.00    +0.131 A 
ATOM     16  C   LIG A   1      -5.738  -4.142 130.760  0.00  0.00    +0.095 A 
ATOM     17  C   LIG A   1      -4.491  -3.759 131.277  0.00  0.00    +0.165 A 
ENDROOT
BRANCH   1  18
ATOM     18  O   LIG A   1      -2.629  -2.224 131.182  0.00  0.00    -0.503 OA
ATOM     19  H   LIG A   1      -1.944  -2.903 131.072  0.00  0.00    +0.292 HD
ENDBRANCH   1  18
BRANCH   9  20
ATOM     20  O   LIG A   1      -6.771   2.415 127.134  0.00  0.00    -0.488 OA
ATOM     21  C   LIG A   1      -5.519   2.641 126.503  0.00  0.00    +0.277 C 
ENDBRANCH   9  20
BRANCH  11  22
ATOM     22  O   LIG A   1     -10.373   0.563 124.593  0.00  0.00    -0.503 OA
ATOM     23  H   LIG A   1     -10.655   1.490 124.728  0.00  0.00    +0.292 HD
ENDBRANCH  11  22
BRANCH  10  24
ATOM     24  O   LIG A   1      -9.035   2.687 125.374  0.00  0.00    -0.488 OA
ATOM     25  C   LIG A   1      -8.378   3.135 124.193  0.00  0.00    +0.277 C 
ENDBRANCH  10  24
BRANCH  17  26
ATOM     26  O   LIG A   1      -4.103  -4.471 132.383  0.00  0.00    -0.491 OA
ATOM     27  C   LIG A   1      -5.119  -5.212 133.049  0.00  0.00    +0.277 C 
ENDBRANCH  17  26
TORSDOF 5
ENDMDL
MODEL 8
REMARK VINA RESULT:      -6.3      5.978      7.708
REMARK  Name = NuBBE_2047
REMARK  8 active torsions:
REMARK  status: ('A' for Active; 'I' for Inactive)
REMARK    1  A    between atoms: O_1  and  C_2
REMARK    2  A    between atoms: C_12  and  O_13
REMARK    3  A    between atoms: O_13  and  C_14
REMARK    4  A    between atoms: C_15  and  O_19
REMARK    5  A    between atoms: C_16  and  O_18
REMARK    6  A    between atoms: O_19  and  C_20
REMARK    7  A    between atoms: C_25  and  O_26
REMARK    8  A    between atoms: O_26  and  C_27
REMARK                            x       y       z     vdW  Elec       q    Type
REMARK                         _______ _______ _______ _____ _____    ______ ____
ROOT
ATOM      1  C   LIG A   1      -8.954   5.523 129.700  0.00  0.00    +0.159 A 
ATOM      2  C   LIG A   1      -8.635   4.548 128.755  0.00  0.00    +0.060 A 
ATOM      3  C   LIG A   1      -8.204   3.277 129.161  0.00  0.00    +0.039 A 
ATOM      4  C   LIG A   1      -7.806   2.261 128.135  0.00  0.00    +0.218 C 
ATOM      5  C   LIG A   1      -7.382   0.914 128.724  0.00  0.00    +0.106 C 
ATOM      6  C   LIG A   1      -7.875   0.033 127.632  0.00  0.00    +0.012 A 
ATOM      7  C   LIG A   1      -8.765   0.737 126.813  0.00  0.00    +0.170 A 
ATOM      8  O   LIG A   1      -8.923   2.034 127.243  0.00  0.00    -0.479 OA
ATOM      9  C   LIG A   1      -9.390   0.167 125.705  0.00  0.00    +0.208 A 
ATOM     10  C   LIG A   1      -9.074  -1.177 125.430  0.00  0.00    +0.207 A 
ATOM     11  C   LIG A   1      -8.148  -1.863 126.250  0.00  0.00    +0.163 A 
ATOM     12  C   LIG A   1      -7.550  -1.280 127.361  0.00  0.00    +0.057 A 
ATOM     13  C   LIG A   1      -8.056   0.693 130.071  0.00  0.00    +0.241 C 
ATOM     14  O   LIG A   1      -7.748   1.755 130.990  0.00  0.00    -0.491 OA
ATOM     15  C   LIG A   1      -8.128   2.986 130.523  0.00  0.00    +0.131 A 
ATOM     16  C   LIG A   1      -8.413   3.974 131.468  0.00  0.00    +0.095 A 
ATOM     17  C   LIG A   1      -8.818   5.255 131.065  0.00  0.00    +0.165 A 
ENDROOT
BRANCH   1  18
ATOM     18  O   LIG A   1      -9.417   6.727 129.246  0.00  0.00    -0.503 OA
ATOM     19  H   LIG A   1      -9.198   6.817 128.304  0.00  0.00    +0.292 HD
ENDBRANCH   1  18
BRANCH   9  20
ATOM     20  O   LIG A   1     -10.234   0.809 124.844  0.00  0.00    -0.488 OA
ATOM     21  C   LIG A   1      -9.693   1.716 123.894  0.00  0.00    +0.277 C 
ENDBRANCH   9  20
BRANCH  11  22
ATOM     22  O   LIG A   1      -7.808  -3.159 125.953  0.00  0.00    -0.503 OA
ATOM     23  H   LIG A   1      -8.074  -3.278 125.020  0.00  0.00    +0.292 HD
ENDBRANCH  11  22
BRANCH  10  24
ATOM     24  O   LIG A   1      -9.531  -1.945 124.380  0.00  0.00    -0.488 OA
ATOM     25  C   LIG A   1      -8.853  -1.804 123.137  0.00  0.00    +0.277 C 
ENDBRANCH  10  24
BRANCH  17  26
ATOM     26  O   LIG A   1      -9.093   6.106 132.105  0.00  0.00    -0.491 OA
ATOM     27  C   LIG A   1      -8.530   5.769 133.367  0.00  0.00    +0.277 C 
ENDBRANCH  17  26
TORSDOF 5
ENDMDL
MODEL 9
REMARK VINA RESULT:      -6.2      8.988      9.675
REMARK  Name = NuBBE_2047
REMARK  8 active torsions:
REMARK  status: ('A' for Active; 'I' for Inactive)
REMARK    1  A    between atoms: O_1  and  C_2
REMARK    2  A    between atoms: C_12  and  O_13
REMARK    3  A    between atoms: O_13  and  C_14
REMARK    4  A    between atoms: C_15  and  O_19
REMARK    5  A    between atoms: C_16  and  O_18
REMARK    6  A    between atoms: O_19  and  C_20
REMARK    7  A    between atoms: C_25  and  O_26
REMARK    8  A    between atoms: O_26  and  C_27
REMARK                            x       y       z     vdW  Elec       q    Type
REMARK                         _______ _______ _______ _____ _____    ______ ____
ROOT
ATOM      1  C   LIG A   1      -3.560  -2.180 132.128  0.00  0.00    +0.159 A 
ATOM      2  C   LIG A   1      -4.069  -2.520 130.875  0.00  0.00    +0.060 A 
ATOM      3  C   LIG A   1      -5.434  -2.798 130.713  0.00  0.00    +0.039 A 
ATOM      4  C   LIG A   1      -5.956  -3.222 129.374  0.00  0.00    +0.218 C 
ATOM      5  C   LIG A   1      -7.466  -3.466 129.344  0.00  0.00    +0.106 C 
ATOM      6  C   LIG A   1      -7.729  -3.026 127.947  0.00  0.00    +0.012 A 
ATOM      7  C   LIG A   1      -6.640  -2.294 127.462  0.00  0.00    +0.170 A 
ATOM      8  O   LIG A   1      -5.641  -2.196 128.403  0.00  0.00    -0.479 OA
ATOM      9  C   LIG A   1      -6.601  -1.751 126.178  0.00  0.00    +0.208 A 
ATOM     10  C   LIG A   1      -7.727  -1.983 125.366  0.00  0.00    +0.207 A 
ATOM     11  C   LIG A   1      -8.805  -2.753 125.862  0.00  0.00    +0.163 A 
ATOM     12  C   LIG A   1      -8.830  -3.269 127.152  0.00  0.00    +0.057 A 
ATOM     13  C   LIG A   1      -8.155  -2.630 130.412  0.00  0.00    +0.241 C 
ATOM     14  O   LIG A   1      -7.634  -2.921 131.720  0.00  0.00    -0.491 OA
ATOM     15  C   LIG A   1      -6.285  -2.697 131.814  0.00  0.00    +0.131 A 
ATOM     16  C   LIG A   1      -5.768  -2.392 133.074  0.00  0.00    +0.095 A 
ATOM     17  C   LIG A   1      -4.398  -2.141 133.245  0.00  0.00    +0.165 A 
ENDROOT
BRANCH   1  18
ATOM     18  O   LIG A   1      -2.230  -1.872 132.215  0.00  0.00    -0.503 OA
ATOM     19  H   LIG A   1      -2.135  -0.924 132.405  0.00  0.00    +0.292 HD
ENDBRANCH   1  18
BRANCH   9  20
ATOM     20  O   LIG A   1      -5.556  -1.063 125.631  0.00  0.00    -0.488 OA
ATOM     21  C   LIG A   1      -5.334   0.283 126.025  0.00  0.00    +0.277 C 
ENDBRANCH   9  20
BRANCH  11  22
ATOM     22  O   LIG A   1      -9.882  -3.016 125.052  0.00  0.00    -0.503 OA
ATOM     23  H   LIG A   1      -9.539  -3.632 124.375  0.00  0.00    +0.292 HD
ENDBRANCH  11  22
BRANCH  10  24
ATOM     24  O   LIG A   1      -7.912  -1.584 124.059  0.00  0.00    -0.488 OA
ATOM     25  C   LIG A   1      -8.365  -0.251 123.852  0.00  0.00    +0.277 C 
ENDBRANCH  10  24
BRANCH  17  26
ATOM     26  O   LIG A   1      -4.045  -1.823 134.531  0.00  0.00    -0.491 OA
ATOM     27  C   LIG A   1      -3.767  -2.914 135.402  0.00  0.00    +0.277 C 
ENDBRANCH  17  26
TORSDOF 5
ENDMDL
