MODEL 1
REMARK VINA RESULT:      -8.1      0.000      0.000
REMARK  Name = NuBBE_988
REMARK  12 active torsions:
REMARK  status: ('A' for Active; 'I' for Inactive)
REMARK    1  A    between atoms: C_1  and  C_2
REMARK    2  A    between atoms: C_9  and  O_11
REMARK    3  A    between atoms: C_12  and  C_13
REMARK    4  A    between atoms: C_17  and  C_19
REMARK    5  A    between atoms: C_19  and  C_21
REMARK    6  A    between atoms: C_19  and  C_22
REMARK    7  A    between atoms: C_22  and  C_23
REMARK    8  A    between atoms: C_23  and  C_24
REMARK    9  A    between atoms: C_24  and  C_25
REMARK   10  A    between atoms: C_24  and  C_26
REMARK   11  A    between atoms: C_26  and  C_27
REMARK   12  A    between atoms: C_26  and  C_28
REMARK                            x       y       z     vdW  Elec       q    Type
REMARK                         _______ _______ _______ _____ _____    ______ ____
ROOT
ATOM      1  C   LIG A   1      -4.341  -2.556 128.847  0.00  0.00    +0.016 C 
ATOM      2  C   LIG A   1      -5.428  -2.176 129.892  0.00  0.00    -0.007 C 
ATOM      3  C   LIG A   1      -6.319  -3.409 130.075  0.00  0.00    -0.060 C 
ATOM      4  C   LIG A   1      -7.503  -3.639 129.160  0.00  0.00    +0.032 C 
ATOM      5  C   LIG A   1      -8.245  -2.360 128.762  0.00  0.00    +0.008 C 
ATOM      6  C   LIG A   1      -7.214  -1.367 128.238  0.00  0.00    -0.003 C 
ATOM      7  C   LIG A   1      -6.298  -0.932 129.430  0.00  0.00    +0.005 C 
ATOM      8  C   LIG A   1      -5.524   0.439 129.245  0.00  0.00    +0.036 C 
ATOM      9  C   LIG A   1      -6.046   1.440 128.148  0.00  0.00    +0.121 C 
ATOM     10  C   LIG A   1      -6.550   0.653 126.909  0.00  0.00    +0.000 C 
ATOM     11  C   LIG A   1      -5.352  -0.180 126.413  0.00  0.00    +0.014 C 
ATOM     12  C   LIG A   1      -7.743  -0.131 127.554  0.00  0.00    +0.001 C 
ATOM     13  C   LIG A   1      -8.815  -0.194 126.493  0.00  0.00    +0.005 C 
ATOM     14  C   LIG A   1      -8.718   1.226 125.930  0.00  0.00    +0.005 C 
ATOM     15  C   LIG A   1      -7.201   1.443 125.685  0.00  0.00    +0.001 C 
ATOM     16  C   LIG A   1      -6.036  -4.356 131.013  0.00  0.00    +0.046 C 
ATOM     17  C   LIG A   1      -4.831  -4.271 131.862  0.00  0.00    +0.156 C 
ATOM     18  C   LIG A   1      -3.982  -3.041 131.828  0.00  0.00    +0.080 C 
ATOM     19  C   LIG A   1      -4.734  -1.847 131.234  0.00  0.00    +0.019 C 
ATOM     20  O   LIG A   1      -4.514  -5.257 132.550  0.00  0.00    -0.293 OA
ENDROOT
BRANCH   9  21
ATOM     21  O   LIG A   1      -5.006   2.343 127.791  0.00  0.00    -0.391 OA
ATOM     22  H   LIG A   1      -5.126   3.149 128.322  0.00  0.00    +0.210 HD
ENDBRANCH   9  21
BRANCH  15  23
ATOM     23  C   LIG A   1      -6.851   0.964 124.195  0.00  0.00    -0.010 C 
ATOM     24  C   LIG A   1      -6.938   2.042 123.096  0.00  0.00    +0.008 C 
BRANCH  23  25
ATOM     25  C   LIG A   1      -7.696  -0.239 123.679  0.00  0.00    +0.004 C 
BRANCH  25  26
ATOM     26  C   LIG A   1      -6.872  -1.309 122.953  0.00  0.00    +0.004 C 
BRANCH  26  27
ATOM     27  C   LIG A   1      -7.077  -2.749 123.483  0.00  0.00    -0.011 C 
ATOM     28  C   LIG A   1      -5.889  -3.217 124.331  0.00  0.00    +0.007 C 
BRANCH  27  29
ATOM     29  C   LIG A   1      -8.438  -2.866 124.241  0.00  0.00    -0.014 C 
ATOM     30  C   LIG A   1      -9.582  -3.340 123.337  0.00  0.00    +0.007 C 
ATOM     31  C   LIG A   1      -8.372  -3.756 125.488  0.00  0.00    +0.007 C 
ENDBRANCH  27  29
ENDBRANCH  26  27
ENDBRANCH  25  26
ENDBRANCH  23  25
ENDBRANCH  15  23
TORSDOF 6
ENDMDL
MODEL 2
REMARK VINA RESULT:      -7.7      2.132      4.240
REMARK  Name = NuBBE_988
REMARK  12 active torsions:
REMARK  status: ('A' for Active; 'I' for Inactive)
REMARK    1  A    between atoms: C_1  and  C_2
REMARK    2  A    between atoms: C_9  and  O_11
REMARK    3  A    between atoms: C_12  and  C_13
REMARK    4  A    between atoms: C_17  and  C_19
REMARK    5  A    between atoms: C_19  and  C_21
REMARK    6  A    between atoms: C_19  and  C_22
REMARK    7  A    between atoms: C_22  and  C_23
REMARK    8  A    between atoms: C_23  and  C_24
REMARK    9  A    between atoms: C_24  and  C_25
REMARK   10  A    between atoms: C_24  and  C_26
REMARK   11  A    between atoms: C_26  and  C_27
REMARK   12  A    between atoms: C_26  and  C_28
REMARK                            x       y       z     vdW  Elec       q    Type
REMARK                         _______ _______ _______ _____ _____    ______ ____
ROOT
ATOM      1  C   LIG A   1      -7.903  -0.970 129.905  0.00  0.00    +0.016 C 
ATOM      2  C   LIG A   1      -7.093  -2.286 129.737  0.00  0.00    -0.007 C 
ATOM      3  C   LIG A   1      -5.637  -1.960 130.083  0.00  0.00    -0.060 C 
ATOM      4  C   LIG A   1      -4.698  -1.431 129.020  0.00  0.00    +0.032 C 
ATOM      5  C   LIG A   1      -4.908  -2.049 127.635  0.00  0.00    +0.008 C 
ATOM      6  C   LIG A   1      -6.390  -1.938 127.295  0.00  0.00    -0.003 C 
ATOM      7  C   LIG A   1      -7.190  -2.869 128.263  0.00  0.00    +0.005 C 
ATOM      8  C   LIG A   1      -8.633  -3.305 127.773  0.00  0.00    +0.036 C 
ATOM      9  C   LIG A   1      -8.966  -3.163 126.241  0.00  0.00    +0.121 C 
ATOM     10  C   LIG A   1      -8.299  -1.884 125.669  0.00  0.00    +0.000 C 
ATOM     11  C   LIG A   1      -8.849  -0.705 126.495  0.00  0.00    +0.014 C 
ATOM     12  C   LIG A   1      -6.789  -2.253 125.874  0.00  0.00    +0.001 C 
ATOM     13  C   LIG A   1      -6.059  -1.676 124.685  0.00  0.00    +0.005 C 
ATOM     14  C   LIG A   1      -7.048  -2.025 123.571  0.00  0.00    +0.005 C 
ATOM     15  C   LIG A   1      -8.425  -1.558 124.113  0.00  0.00    +0.001 C 
ATOM     16  C   LIG A   1      -5.169  -2.072 131.359  0.00  0.00    +0.046 C 
ATOM     17  C   LIG A   1      -6.051  -2.461 132.477  0.00  0.00    +0.156 C 
ATOM     18  C   LIG A   1      -7.448  -2.914 132.200  0.00  0.00    +0.080 C 
ATOM     19  C   LIG A   1      -7.631  -3.334 130.739  0.00  0.00    +0.019 C 
ATOM     20  O   LIG A   1      -5.625  -2.348 133.640  0.00  0.00    -0.293 OA
ENDROOT
BRANCH   9  21
ATOM     21  O   LIG A   1     -10.377  -3.127 126.059  0.00  0.00    -0.391 OA
ATOM     22  H   LIG A   1     -10.580  -3.644 125.261  0.00  0.00    +0.210 HD
ENDBRANCH   9  21
BRANCH  15  23
ATOM     23  C   LIG A   1      -8.657  -0.034 123.669  0.00  0.00    -0.010 C 
ATOM     24  C   LIG A   1      -9.716   0.202 122.573  0.00  0.00    +0.008 C 
BRANCH  23  25
ATOM     25  C   LIG A   1      -7.376   0.711 123.189  0.00  0.00    +0.004 C 
BRANCH  25  26
ATOM     26  C   LIG A   1      -7.386   2.215 123.486  0.00  0.00    +0.004 C 
BRANCH  26  27
ATOM     27  C   LIG A   1      -6.278   2.686 124.460  0.00  0.00    -0.011 C 
ATOM     28  C   LIG A   1      -6.369   4.192 124.738  0.00  0.00    +0.007 C 
BRANCH  27  29
ATOM     29  C   LIG A   1      -6.297   1.833 125.768  0.00  0.00    -0.014 C 
ATOM     30  C   LIG A   1      -4.893   1.421 126.228  0.00  0.00    +0.007 C 
ATOM     31  C   LIG A   1      -7.037   2.506 126.931  0.00  0.00    +0.007 C 
ENDBRANCH  27  29
ENDBRANCH  26  27
ENDBRANCH  25  26
ENDBRANCH  23  25
ENDBRANCH  15  23
TORSDOF 6
ENDMDL
MODEL 3
REMARK VINA RESULT:      -7.7      3.079      6.843
REMARK  Name = NuBBE_988
REMARK  12 active torsions:
REMARK  status: ('A' for Active; 'I' for Inactive)
REMARK    1  A    between atoms: C_1  and  C_2
REMARK    2  A    between atoms: C_9  and  O_11
REMARK    3  A    between atoms: C_12  and  C_13
REMARK    4  A    between atoms: C_17  and  C_19
REMARK    5  A    between atoms: C_19  and  C_21
REMARK    6  A    between atoms: C_19  and  C_22
REMARK    7  A    between atoms: C_22  and  C_23
REMARK    8  A    between atoms: C_23  and  C_24
REMARK    9  A    between atoms: C_24  and  C_25
REMARK   10  A    between atoms: C_24  and  C_26
REMARK   11  A    between atoms: C_26  and  C_27
REMARK   12  A    between atoms: C_26  and  C_28
REMARK                            x       y       z     vdW  Elec       q    Type
REMARK                         _______ _______ _______ _____ _____    ______ ____
ROOT
ATOM      1  C   LIG A   1      -8.974  -0.085 125.935  0.00  0.00    +0.016 C 
ATOM      2  C   LIG A   1      -7.828  -1.099 125.664  0.00  0.00    -0.007 C 
ATOM      3  C   LIG A   1      -8.335  -2.474 126.110  0.00  0.00    -0.060 C 
ATOM      4  C   LIG A   1      -8.176  -2.919 127.548  0.00  0.00    +0.032 C 
ATOM      5  C   LIG A   1      -6.864  -2.472 128.200  0.00  0.00    +0.008 C 
ATOM      6  C   LIG A   1      -6.716  -0.972 127.972  0.00  0.00    -0.003 C 
ATOM      7  C   LIG A   1      -6.496  -0.725 126.444  0.00  0.00    +0.005 C 
ATOM      8  C   LIG A   1      -5.817   0.653 126.055  0.00  0.00    +0.036 C 
ATOM      9  C   LIG A   1      -5.035   1.434 127.176  0.00  0.00    +0.121 C 
ATOM     10  C   LIG A   1      -5.764   1.278 128.537  0.00  0.00    +0.000 C 
ATOM     11  C   LIG A   1      -7.188   1.830 128.329  0.00  0.00    +0.014 C 
ATOM     12  C   LIG A   1      -5.625  -0.270 128.742  0.00  0.00    +0.001 C 
ATOM     13  C   LIG A   1      -5.427  -0.472 130.225  0.00  0.00    +0.005 C 
ATOM     14  C   LIG A   1      -4.469   0.683 130.526  0.00  0.00    +0.005 C 
ATOM     15  C   LIG A   1      -5.125   1.917 129.852  0.00  0.00    +0.001 C 
ATOM     16  C   LIG A   1      -8.996  -3.300 125.250  0.00  0.00    +0.046 C 
ATOM     17  C   LIG A   1      -9.302  -2.892 123.864  0.00  0.00    +0.156 C 
ATOM     18  C   LIG A   1      -8.734  -1.621 123.320  0.00  0.00    +0.080 C 
ATOM     19  C   LIG A   1      -7.540  -1.132 124.145  0.00  0.00    +0.019 C 
ATOM     20  O   LIG A   1     -10.080  -3.593 123.194  0.00  0.00    -0.293 OA
ENDROOT
BRANCH   9  21
ATOM     21  O   LIG A   1      -4.920   2.805 126.814  0.00  0.00    -0.391 OA
ATOM     22  H   LIG A   1      -4.072   2.912 126.350  0.00  0.00    +0.210 HD
ENDBRANCH   9  21
BRANCH  15  23
ATOM     23  C   LIG A   1      -6.103   2.618 130.913  0.00  0.00    -0.010 C 
ATOM     24  C   LIG A   1      -6.021   4.155 131.001  0.00  0.00    +0.008 C 
BRANCH  23  25
ATOM     25  C   LIG A   1      -5.961   2.100 132.375  0.00  0.00    +0.004 C 
BRANCH  25  26
ATOM     26  C   LIG A   1      -7.236   1.452 132.929  0.00  0.00    +0.004 C 
BRANCH  26  27
ATOM     27  C   LIG A   1      -8.363   1.255 131.886  0.00  0.00    -0.011 C 
ATOM     28  C   LIG A   1      -8.807  -0.210 131.798  0.00  0.00    +0.007 C 
BRANCH  27  29
ATOM     29  C   LIG A   1      -9.553   2.226 132.175  0.00  0.00    -0.014 C 
ATOM     30  C   LIG A   1      -9.287   3.154 133.366  0.00  0.00    +0.007 C 
ATOM     31  C   LIG A   1      -9.973   3.062 130.960  0.00  0.00    +0.007 C 
ENDBRANCH  27  29
ENDBRANCH  26  27
ENDBRANCH  25  26
ENDBRANCH  23  25
ENDBRANCH  15  23
TORSDOF 6
ENDMDL
MODEL 4
REMARK VINA RESULT:      -7.7      3.536      7.148
REMARK  Name = NuBBE_988
REMARK  12 active torsions:
REMARK  status: ('A' for Active; 'I' for Inactive)
REMARK    1  A    between atoms: C_1  and  C_2
REMARK    2  A    between atoms: C_9  and  O_11
REMARK    3  A    between atoms: C_12  and  C_13
REMARK    4  A    between atoms: C_17  and  C_19
REMARK    5  A    between atoms: C_19  and  C_21
REMARK    6  A    between atoms: C_19  and  C_22
REMARK    7  A    between atoms: C_22  and  C_23
REMARK    8  A    between atoms: C_23  and  C_24
REMARK    9  A    between atoms: C_24  and  C_25
REMARK   10  A    between atoms: C_24  and  C_26
REMARK   11  A    between atoms: C_26  and  C_27
REMARK   12  A    between atoms: C_26  and  C_28
REMARK                            x       y       z     vdW  Elec       q    Type
REMARK                         _______ _______ _______ _____ _____    ______ ____
ROOT
ATOM      1  C   LIG A   1      -8.663   1.524 125.789  0.00  0.00    +0.016 C 
ATOM      2  C   LIG A   1      -7.652   1.138 124.672  0.00  0.00    -0.007 C 
ATOM      3  C   LIG A   1      -7.241  -0.316 124.927  0.00  0.00    -0.060 C 
ATOM      4  C   LIG A   1      -6.092  -0.635 125.860  0.00  0.00    +0.032 C 
ATOM      5  C   LIG A   1      -4.930   0.360 125.783  0.00  0.00    +0.008 C 
ATOM      6  C   LIG A   1      -5.507   1.764 125.932  0.00  0.00    -0.003 C 
ATOM      7  C   LIG A   1      -6.372   2.078 124.667  0.00  0.00    +0.005 C 
ATOM      8  C   LIG A   1      -6.627   3.612 124.365  0.00  0.00    +0.036 C 
ATOM      9  C   LIG A   1      -5.675   4.667 125.042  0.00  0.00    +0.121 C 
ATOM     10  C   LIG A   1      -5.303   4.203 126.476  0.00  0.00    +0.000 C 
ATOM     11  C   LIG A   1      -6.635   4.050 127.237  0.00  0.00    +0.014 C 
ATOM     12  C   LIG A   1      -4.522   2.887 126.140  0.00  0.00    +0.001 C 
ATOM     13  C   LIG A   1      -3.405   2.802 127.152  0.00  0.00    +0.005 C 
ATOM     14  C   LIG A   1      -2.962   4.267 127.184  0.00  0.00    +0.005 C 
ATOM     15  C   LIG A   1      -4.282   5.067 127.344  0.00  0.00    +0.001 C 
ATOM     16  C   LIG A   1      -7.934  -1.355 124.380  0.00  0.00    +0.046 C 
ATOM     17  C   LIG A   1      -9.142  -1.135 123.559  0.00  0.00    +0.156 C 
ATOM     18  C   LIG A   1      -9.531   0.253 123.165  0.00  0.00    +0.080 C 
ATOM     19  C   LIG A   1      -8.363   1.233 123.303  0.00  0.00    +0.019 C 
ATOM     20  O   LIG A   1      -9.846  -2.115 123.260  0.00  0.00    -0.293 OA
ENDROOT
BRANCH   9  21
ATOM     21  O   LIG A   1      -6.309   5.940 125.066  0.00  0.00    -0.391 OA
ATOM     22  H   LIG A   1      -6.585   6.110 125.984  0.00  0.00    +0.210 HD
ENDBRANCH   9  21
BRANCH  15  23
ATOM     23  C   LIG A   1      -4.578   5.254 128.910  0.00  0.00    -0.010 C 
ATOM     24  C   LIG A   1      -4.317   6.659 129.488  0.00  0.00    +0.008 C 
BRANCH  23  25
ATOM     25  C   LIG A   1      -3.821   4.262 129.842  0.00  0.00    +0.004 C 
BRANCH  25  26
ATOM     26  C   LIG A   1      -4.745   3.343 130.649  0.00  0.00    +0.004 C 
BRANCH  26  27
ATOM     27  C   LIG A   1      -5.161   2.043 129.917  0.00  0.00    -0.011 C 
ATOM     28  C   LIG A   1      -4.190   0.893 130.209  0.00  0.00    +0.007 C 
BRANCH  27  29
ATOM     29  C   LIG A   1      -6.643   1.676 130.248  0.00  0.00    -0.014 C 
ATOM     30  C   LIG A   1      -7.493   2.902 130.603  0.00  0.00    +0.007 C 
ATOM     31  C   LIG A   1      -7.340   0.877 129.141  0.00  0.00    +0.007 C 
ENDBRANCH  27  29
ENDBRANCH  26  27
ENDBRANCH  25  26
ENDBRANCH  23  25
ENDBRANCH  15  23
TORSDOF 6
ENDMDL
MODEL 5
REMARK VINA RESULT:      -7.6      3.175      5.992
REMARK  Name = NuBBE_988
REMARK  12 active torsions:
REMARK  status: ('A' for Active; 'I' for Inactive)
REMARK    1  A    between atoms: C_1  and  C_2
REMARK    2  A    between atoms: C_9  and  O_11
REMARK    3  A    between atoms: C_12  and  C_13
REMARK    4  A    between atoms: C_17  and  C_19
REMARK    5  A    between atoms: C_19  and  C_21
REMARK    6  A    between atoms: C_19  and  C_22
REMARK    7  A    between atoms: C_22  and  C_23
REMARK    8  A    between atoms: C_23  and  C_24
REMARK    9  A    between atoms: C_24  and  C_25
REMARK   10  A    between atoms: C_24  and  C_26
REMARK   11  A    between atoms: C_26  and  C_27
REMARK   12  A    between atoms: C_26  and  C_28
REMARK                            x       y       z     vdW  Elec       q    Type
REMARK                         _______ _______ _______ _____ _____    ______ ____
ROOT
ATOM      1  C   LIG A   1      -3.180   3.752 127.152  0.00  0.00    +0.016 C 
ATOM      2  C   LIG A   1      -4.199   4.592 127.971  0.00  0.00    -0.007 C 
ATOM      3  C   LIG A   1      -3.978   4.245 129.447  0.00  0.00    -0.060 C 
ATOM      4  C   LIG A   1      -4.690   3.063 130.070  0.00  0.00    +0.032 C 
ATOM      5  C   LIG A   1      -6.122   2.859 129.567  0.00  0.00    +0.008 C 
ATOM      6  C   LIG A   1      -6.085   2.856 128.043  0.00  0.00    -0.003 C 
ATOM      7  C   LIG A   1      -5.701   4.291 127.555  0.00  0.00    +0.005 C 
ATOM      8  C   LIG A   1      -6.103   4.648 126.064  0.00  0.00    +0.036 C 
ATOM      9  C   LIG A   1      -7.201   3.765 125.363  0.00  0.00    +0.121 C 
ATOM     10  C   LIG A   1      -7.046   2.283 125.798  0.00  0.00    +0.000 C 
ATOM     11  C   LIG A   1      -5.619   1.863 125.397  0.00  0.00    +0.014 C 
ATOM     12  C   LIG A   1      -7.342   2.419 127.331  0.00  0.00    +0.001 C 
ATOM     13  C   LIG A   1      -8.094   1.168 127.718  0.00  0.00    +0.005 C 
ATOM     14  C   LIG A   1      -9.025   1.033 126.511  0.00  0.00    +0.005 C 
ATOM     15  C   LIG A   1      -8.093   1.196 125.281  0.00  0.00    +0.001 C 
ATOM     16  C   LIG A   1      -3.092   4.940 130.215  0.00  0.00    +0.046 C 
ATOM     17  C   LIG A   1      -2.265   6.028 129.653  0.00  0.00    +0.156 C 
ATOM     18  C   LIG A   1      -2.512   6.505 128.258  0.00  0.00    +0.080 C 
ATOM     19  C   LIG A   1      -3.897   6.093 127.752  0.00  0.00    +0.019 C 
ATOM     20  O   LIG A   1      -1.335   6.485 130.339  0.00  0.00    -0.293 OA
ENDROOT
BRANCH   9  21
ATOM     21  O   LIG A   1      -7.091   3.895 123.951  0.00  0.00    -0.391 OA
ATOM     22  H   LIG A   1      -6.857   3.021 123.596  0.00  0.00    +0.210 HD
ENDBRANCH   9  21
BRANCH  15  23
ATOM     23  C   LIG A   1      -7.546  -0.252 124.861  0.00  0.00    -0.010 C 
ATOM     24  C   LIG A   1      -7.243  -0.457 123.364  0.00  0.00    +0.008 C 
BRANCH  23  25
ATOM     25  C   LIG A   1      -8.460  -1.443 125.277  0.00  0.00    +0.004 C 
BRANCH  25  26
ATOM     26  C   LIG A   1      -7.736  -2.526 126.086  0.00  0.00    +0.004 C 
BRANCH  26  27
ATOM     27  C   LIG A   1      -8.191  -2.639 127.562  0.00  0.00    -0.011 C 
ATOM     28  C   LIG A   1      -8.942  -3.949 127.826  0.00  0.00    +0.007 C 
BRANCH  27  29
ATOM     29  C   LIG A   1      -6.979  -2.438 128.528  0.00  0.00    -0.014 C 
ATOM     30  C   LIG A   1      -5.819  -1.678 127.874  0.00  0.00    +0.007 C 
ATOM     31  C   LIG A   1      -7.353  -1.758 129.850  0.00  0.00    +0.007 C 
ENDBRANCH  27  29
ENDBRANCH  26  27
ENDBRANCH  25  26
ENDBRANCH  23  25
ENDBRANCH  15  23
TORSDOF 6
ENDMDL
MODEL 6
REMARK VINA RESULT:      -7.6      3.961      5.807
REMARK  Name = NuBBE_988
REMARK  12 active torsions:
REMARK  status: ('A' for Active; 'I' for Inactive)
REMARK    1  A    between atoms: C_1  and  C_2
REMARK    2  A    between atoms: C_9  and  O_11
REMARK    3  A    between atoms: C_12  and  C_13
REMARK    4  A    between atoms: C_17  and  C_19
REMARK    5  A    between atoms: C_19  and  C_21
REMARK    6  A    between atoms: C_19  and  C_22
REMARK    7  A    between atoms: C_22  and  C_23
REMARK    8  A    between atoms: C_23  and  C_24
REMARK    9  A    between atoms: C_24  and  C_25
REMARK   10  A    between atoms: C_24  and  C_26
REMARK   11  A    between atoms: C_26  and  C_27
REMARK   12  A    between atoms: C_26  and  C_28
REMARK                            x       y       z     vdW  Elec       q    Type
REMARK                         _______ _______ _______ _____ _____    ______ ____
ROOT
ATOM      1  C   LIG A   1      -3.644   3.918 126.614  0.00  0.00    +0.016 C 
ATOM      2  C   LIG A   1      -4.581   4.557 127.677  0.00  0.00    -0.007 C 
ATOM      3  C   LIG A   1      -4.127   4.033 129.043  0.00  0.00    -0.060 C 
ATOM      4  C   LIG A   1      -4.668   2.725 129.580  0.00  0.00    +0.032 C 
ATOM      5  C   LIG A   1      -6.144   2.477 129.252  0.00  0.00    +0.008 C 
ATOM      6  C   LIG A   1      -6.330   2.681 127.752  0.00  0.00    -0.003 C 
ATOM      7  C   LIG A   1      -6.108   4.195 127.430  0.00  0.00    +0.005 C 
ATOM      8  C   LIG A   1      -6.743   4.716 126.075  0.00  0.00    +0.036 C 
ATOM      9  C   LIG A   1      -7.876   3.849 125.409  0.00  0.00    +0.121 C 
ATOM     10  C   LIG A   1      -7.571   2.340 125.601  0.00  0.00    +0.000 C 
ATOM     11  C   LIG A   1      -6.195   2.093 124.952  0.00  0.00    +0.014 C 
ATOM     12  C   LIG A   1      -7.648   2.245 127.163  0.00  0.00    +0.001 C 
ATOM     13  C   LIG A   1      -8.259   0.897 127.464  0.00  0.00    +0.005 C 
ATOM     14  C   LIG A   1      -9.346   0.852 126.388  0.00  0.00    +0.005 C 
ATOM     15  C   LIG A   1      -8.615   1.252 125.079  0.00  0.00    +0.001 C 
ATOM     16  C   LIG A   1      -3.182   4.688 129.776  0.00  0.00    +0.046 C 
ATOM     17  C   LIG A   1      -2.513   5.903 129.269  0.00  0.00    +0.156 C 
ATOM     18  C   LIG A   1      -2.989   6.542 128.005  0.00  0.00    +0.080 C 
ATOM     19  C   LIG A   1      -4.405   6.093 127.638  0.00  0.00    +0.019 C 
ATOM     20  O   LIG A   1      -1.522   6.337 129.882  0.00  0.00    -0.293 OA
ENDROOT
BRANCH   9  21
ATOM     21  O   LIG A   1      -7.982   4.177 124.028  0.00  0.00    -0.391 OA
ATOM     22  H   LIG A   1      -8.928   4.188 123.804  0.00  0.00    +0.210 HD
ENDBRANCH   9  21
BRANCH  15  23
ATOM     23  C   LIG A   1      -8.048  -0.078 124.384  0.00  0.00    -0.010 C 
ATOM     24  C   LIG A   1      -8.789  -0.553 123.119  0.00  0.00    +0.008 C 
BRANCH  23  25
ATOM     25  C   LIG A   1      -7.965  -1.321 125.320  0.00  0.00    +0.004 C 
BRANCH  25  26
ATOM     26  C   LIG A   1      -6.532  -1.785 125.608  0.00  0.00    +0.004 C 
BRANCH  26  27
ATOM     27  C   LIG A   1      -6.151  -3.137 124.959  0.00  0.00    -0.011 C 
ATOM     28  C   LIG A   1      -7.383  -3.882 124.433  0.00  0.00    +0.007 C 
BRANCH  27  29
ATOM     29  C   LIG A   1      -5.059  -2.931 123.860  0.00  0.00    -0.014 C 
ATOM     30  C   LIG A   1      -4.277  -4.213 123.553  0.00  0.00    +0.007 C 
ATOM     31  C   LIG A   1      -5.606  -2.342 122.554  0.00  0.00    +0.007 C 
ENDBRANCH  27  29
ENDBRANCH  26  27
ENDBRANCH  25  26
ENDBRANCH  23  25
ENDBRANCH  15  23
TORSDOF 6
ENDMDL
MODEL 7
REMARK VINA RESULT:      -7.5      3.696      6.794
REMARK  Name = NuBBE_988
REMARK  12 active torsions:
REMARK  status: ('A' for Active; 'I' for Inactive)
REMARK    1  A    between atoms: C_1  and  C_2
REMARK    2  A    between atoms: C_9  and  O_11
REMARK    3  A    between atoms: C_12  and  C_13
REMARK    4  A    between atoms: C_17  and  C_19
REMARK    5  A    between atoms: C_19  and  C_21
REMARK    6  A    between atoms: C_19  and  C_22
REMARK    7  A    between atoms: C_22  and  C_23
REMARK    8  A    between atoms: C_23  and  C_24
REMARK    9  A    between atoms: C_24  and  C_25
REMARK   10  A    between atoms: C_24  and  C_26
REMARK   11  A    between atoms: C_26  and  C_27
REMARK   12  A    between atoms: C_26  and  C_28
REMARK                            x       y       z     vdW  Elec       q    Type
REMARK                         _______ _______ _______ _____ _____    ______ ____
ROOT
ATOM      1  C   LIG A   1      -9.144   1.961 132.137  0.00  0.00    +0.016 C 
ATOM      2  C   LIG A   1      -7.916   2.830 132.531  0.00  0.00    -0.007 C 
ATOM      3  C   LIG A   1      -7.813   3.952 131.493  0.00  0.00    -0.060 C 
ATOM      4  C   LIG A   1      -7.048   3.735 130.206  0.00  0.00    +0.032 C 
ATOM      5  C   LIG A   1      -5.783   2.885 130.365  0.00  0.00    +0.008 C 
ATOM      6  C   LIG A   1      -6.169   1.609 131.104  0.00  0.00    -0.003 C 
ATOM      7  C   LIG A   1      -6.570   1.989 132.567  0.00  0.00    +0.005 C 
ATOM      8  C   LIG A   1      -6.500   0.817 133.632  0.00  0.00    +0.036 C 
ATOM      9  C   LIG A   1      -5.647  -0.456 133.275  0.00  0.00    +0.121 C 
ATOM     10  C   LIG A   1      -5.784  -0.780 131.763  0.00  0.00    +0.000 C 
ATOM     11  C   LIG A   1      -7.288  -0.997 131.505  0.00  0.00    +0.014 C 
ATOM     12  C   LIG A   1      -5.137   0.510 131.151  0.00  0.00    +0.001 C 
ATOM     13  C   LIG A   1      -4.391   0.052 129.921  0.00  0.00    +0.005 C 
ATOM     14  C   LIG A   1      -3.771  -1.243 130.452  0.00  0.00    +0.005 C 
ATOM     15  C   LIG A   1      -4.949  -1.985 131.136  0.00  0.00    +0.001 C 
ATOM     16  C   LIG A   1      -8.457   5.141 131.668  0.00  0.00    +0.046 C 
ATOM     17  C   LIG A   1      -9.326   5.389 132.836  0.00  0.00    +0.156 C 
ATOM     18  C   LIG A   1      -9.377   4.392 133.949  0.00  0.00    +0.080 C 
ATOM     19  C   LIG A   1      -8.172   3.449 133.925  0.00  0.00    +0.019 C 
ATOM     20  O   LIG A   1     -10.045   6.402 132.841  0.00  0.00    -0.293 OA
ENDROOT
BRANCH   9  21
ATOM     21  O   LIG A   1      -6.069  -1.556 134.072  0.00  0.00    -0.391 OA
ATOM     22  H   LIG A   1      -5.477  -1.601 134.842  0.00  0.00    +0.210 HD
ENDBRANCH   9  21
BRANCH  15  23
ATOM     23  C   LIG A   1      -5.662  -2.923 130.047  0.00  0.00    -0.010 C 
ATOM     24  C   LIG A   1      -5.827  -4.407 130.430  0.00  0.00    +0.008 C 
BRANCH  23  25
ATOM     25  C   LIG A   1      -4.992  -2.918 128.640  0.00  0.00    +0.004 C 
BRANCH  25  26
ATOM     26  C   LIG A   1      -5.858  -2.285 127.544  0.00  0.00    +0.004 C 
BRANCH  26  27
ATOM     27  C   LIG A   1      -7.254  -1.815 128.018  0.00  0.00    -0.011 C 
ATOM     28  C   LIG A   1      -7.442  -0.306 127.820  0.00  0.00    +0.007 C 
BRANCH  27  29
ATOM     29  C   LIG A   1      -8.379  -2.654 127.331  0.00  0.00    -0.014 C 
ATOM     30  C   LIG A   1      -8.008  -3.093 125.909  0.00  0.00    +0.007 C 
ATOM     31  C   LIG A   1      -8.818  -3.877 128.144  0.00  0.00    +0.007 C 
ENDBRANCH  27  29
ENDBRANCH  26  27
ENDBRANCH  25  26
ENDBRANCH  23  25
ENDBRANCH  15  23
TORSDOF 6
ENDMDL
MODEL 8
REMARK VINA RESULT:      -7.4      3.340      7.225
REMARK  Name = NuBBE_988
REMARK  12 active torsions:
REMARK  status: ('A' for Active; 'I' for Inactive)
REMARK    1  A    between atoms: C_1  and  C_2
REMARK    2  A    between atoms: C_9  and  O_11
REMARK    3  A    between atoms: C_12  and  C_13
REMARK    4  A    between atoms: C_17  and  C_19
REMARK    5  A    between atoms: C_19  and  C_21
REMARK    6  A    between atoms: C_19  and  C_22
REMARK    7  A    between atoms: C_22  and  C_23
REMARK    8  A    between atoms: C_23  and  C_24
REMARK    9  A    between atoms: C_24  and  C_25
REMARK   10  A    between atoms: C_24  and  C_26
REMARK   11  A    between atoms: C_26  and  C_27
REMARK   12  A    between atoms: C_26  and  C_28
REMARK                            x       y       z     vdW  Elec       q    Type
REMARK                         _______ _______ _______ _____ _____    ______ ____
ROOT
ATOM      1  C   LIG A   1      -6.094   2.875 131.163  0.00  0.00    +0.016 C 
ATOM      2  C   LIG A   1      -7.513   2.793 130.534  0.00  0.00    -0.007 C 
ATOM      3  C   LIG A   1      -8.515   2.801 131.693  0.00  0.00    -0.060 C 
ATOM      4  C   LIG A   1      -8.912   1.506 132.369  0.00  0.00    +0.032 C 
ATOM      5  C   LIG A   1      -9.038   0.314 131.415  0.00  0.00    +0.008 C 
ATOM      6  C   LIG A   1      -7.759   0.241 130.589  0.00  0.00    -0.003 C 
ATOM      7  C   LIG A   1      -7.706   1.489 129.649  0.00  0.00    +0.005 C 
ATOM      8  C   LIG A   1      -6.772   1.359 128.375  0.00  0.00    +0.036 C 
ATOM      9  C   LIG A   1      -6.346  -0.085 127.916  0.00  0.00    +0.121 C 
ATOM     10  C   LIG A   1      -6.107  -0.987 129.156  0.00  0.00    +0.000 C 
ATOM     11  C   LIG A   1      -5.010  -0.293 129.987  0.00  0.00    +0.014 C 
ATOM     12  C   LIG A   1      -7.552  -1.003 129.761  0.00  0.00    +0.001 C 
ATOM     13  C   LIG A   1      -7.746  -2.389 130.326  0.00  0.00    +0.005 C 
ATOM     14  C   LIG A   1      -7.099  -3.222 129.218  0.00  0.00    +0.005 C 
ATOM     15  C   LIG A   1      -5.738  -2.525 128.953  0.00  0.00    +0.001 C 
ATOM     16  C   LIG A   1      -9.020   3.967 132.186  0.00  0.00    +0.046 C 
ATOM     17  C   LIG A   1      -8.590   5.280 131.666  0.00  0.00    +0.156 C 
ATOM     18  C   LIG A   1      -7.713   5.351 130.458  0.00  0.00    +0.080 C 
ATOM     19  C   LIG A   1      -7.741   4.046 129.657  0.00  0.00    +0.019 C 
ATOM     20  O   LIG A   1      -8.923   6.305 132.285  0.00  0.00    -0.293 OA
ENDROOT
BRANCH   9  21
ATOM     21  O   LIG A   1      -5.175  -0.006 127.110  0.00  0.00    -0.391 OA
ATOM     22  H   LIG A   1      -4.724  -0.865 127.169  0.00  0.00    +0.210 HD
ENDBRANCH   9  21
BRANCH  15  23
ATOM     23  C   LIG A   1      -4.634  -3.179 129.916  0.00  0.00    -0.010 C 
ATOM     24  C   LIG A   1      -3.337  -3.661 129.235  0.00  0.00    +0.008 C 
BRANCH  23  25
ATOM     25  C   LIG A   1      -5.139  -4.381 130.768  0.00  0.00    +0.004 C 
BRANCH  25  26
ATOM     26  C   LIG A   1      -4.906  -4.214 132.275  0.00  0.00    +0.004 C 
BRANCH  26  27
ATOM     27  C   LIG A   1      -6.180  -4.353 133.143  0.00  0.00    -0.011 C 
ATOM     28  C   LIG A   1      -6.065  -5.513 134.139  0.00  0.00    +0.007 C 
BRANCH  27  29
ATOM     29  C   LIG A   1      -6.521  -2.996 133.839  0.00  0.00    -0.014 C 
ATOM     30  C   LIG A   1      -5.734  -1.816 133.257  0.00  0.00    +0.007 C 
ATOM     31  C   LIG A   1      -8.017  -2.662 133.836  0.00  0.00    +0.007 C 
ENDBRANCH  27  29
ENDBRANCH  26  27
ENDBRANCH  25  26
ENDBRANCH  23  25
ENDBRANCH  15  23
TORSDOF 6
ENDMDL
MODEL 9
REMARK VINA RESULT:      -7.4      2.959      6.284
REMARK  Name = NuBBE_988
REMARK  12 active torsions:
REMARK  status: ('A' for Active; 'I' for Inactive)
REMARK    1  A    between atoms: C_1  and  C_2
REMARK    2  A    between atoms: C_9  and  O_11
REMARK    3  A    between atoms: C_12  and  C_13
REMARK    4  A    between atoms: C_17  and  C_19
REMARK    5  A    between atoms: C_19  and  C_21
REMARK    6  A    between atoms: C_19  and  C_22
REMARK    7  A    between atoms: C_22  and  C_23
REMARK    8  A    between atoms: C_23  and  C_24
REMARK    9  A    between atoms: C_24  and  C_25
REMARK   10  A    between atoms: C_24  and  C_26
REMARK   11  A    between atoms: C_26  and  C_27
REMARK   12  A    between atoms: C_26  and  C_28
REMARK                            x       y       z     vdW  Elec       q    Type
REMARK                         _______ _______ _______ _____ _____    ______ ____
ROOT
ATOM      1  C   LIG A   1      -6.224  -1.556 126.840  0.00  0.00    +0.016 C 
ATOM      2  C   LIG A   1      -7.710  -1.383 127.263  0.00  0.00    -0.007 C 
ATOM      3  C   LIG A   1      -8.425  -0.688 126.101  0.00  0.00    -0.060 C 
ATOM      4  C   LIG A   1      -8.441   0.823 126.006  0.00  0.00    +0.032 C 
ATOM      5  C   LIG A   1      -8.563   1.534 127.358  0.00  0.00    +0.008 C 
ATOM      6  C   LIG A   1      -7.498   0.960 128.285  0.00  0.00    -0.003 C 
ATOM      7  C   LIG A   1      -7.862  -0.529 128.593  0.00  0.00    +0.005 C 
ATOM      8  C   LIG A   1      -7.216  -1.145 129.903  0.00  0.00    +0.036 C 
ATOM      9  C   LIG A   1      -6.658  -0.151 130.988  0.00  0.00    +0.121 C 
ATOM     10  C   LIG A   1      -6.008   1.078 130.298  0.00  0.00    +0.000 C 
ATOM     11  C   LIG A   1      -4.893   0.522 129.391  0.00  0.00    +0.014 C 
ATOM     12  C   LIG A   1      -7.265   1.685 129.587  0.00  0.00    +0.001 C 
ATOM     13  C   LIG A   1      -7.093   3.183 129.656  0.00  0.00    +0.005 C 
ATOM     14  C   LIG A   1      -6.566   3.326 131.086  0.00  0.00    +0.005 C 
ATOM     15  C   LIG A   1      -5.434   2.270 131.189  0.00  0.00    +0.001 C 
ATOM     16  C   LIG A   1      -9.004  -1.402 125.095  0.00  0.00    +0.046 C 
ATOM     17  C   LIG A   1      -8.927  -2.876 125.046  0.00  0.00    +0.156 C 
ATOM     18  C   LIG A   1      -8.355  -3.630 126.203  0.00  0.00    +0.080 C 
ATOM     19  C   LIG A   1      -8.331  -2.783 127.478  0.00  0.00    +0.019 C 
ATOM     20  O   LIG A   1      -9.290  -3.459 124.009  0.00  0.00    -0.293 OA
ENDROOT
BRANCH   9  21
ATOM     21  O   LIG A   1      -5.719  -0.826 131.818  0.00  0.00    -0.391 OA
ATOM     22  H   LIG A   1      -4.851  -0.765 131.383  0.00  0.00    +0.210 HD
ENDBRANCH   9  21
BRANCH  15  23
ATOM     23  C   LIG A   1      -4.054   2.958 130.746  0.00  0.00    -0.010 C 
ATOM     24  C   LIG A   1      -3.243   3.638 131.867  0.00  0.00    +0.008 C 
BRANCH  23  25
ATOM     25  C   LIG A   1      -4.185   4.018 129.612  0.00  0.00    +0.004 C 
BRANCH  25  26
ATOM     26  C   LIG A   1      -2.932   4.147 128.737  0.00  0.00    +0.004 C 
BRANCH  26  27
ATOM     27  C   LIG A   1      -3.176   3.913 127.226  0.00  0.00    -0.011 C 
ATOM     28  C   LIG A   1      -2.063   3.067 126.596  0.00  0.00    +0.007 C 
BRANCH  27  29
ATOM     29  C   LIG A   1      -4.597   3.311 126.985  0.00  0.00    -0.014 C 
ATOM     30  C   LIG A   1      -5.540   4.283 126.266  0.00  0.00    +0.007 C 
ATOM     31  C   LIG A   1      -4.579   1.972 126.238  0.00  0.00    +0.007 C 
ENDBRANCH  27  29
ENDBRANCH  26  27
ENDBRANCH  25  26
ENDBRANCH  23  25
ENDBRANCH  15  23
TORSDOF 6
ENDMDL
