MODEL 1
REMARK VINA RESULT:      -7.4      0.000      0.000
REMARK  Name = NuBBE_1887
REMARK  16 active torsions:
REMARK  status: ('A' for Active; 'I' for Inactive)
REMARK    1  A    between atoms: C_4  and  O_32
REMARK    2  A    between atoms: C_6  and  O_30
REMARK    3  A    between atoms: C_10  and  C_11
REMARK    4  A    between atoms: C_14  and  O_25
REMARK    5  A    between atoms: C_15  and  O_16
REMARK    6  A    between atoms: O_16  and  C_17
REMARK    7  A    between atoms: C_17  and  C_18
REMARK    8  A    between atoms: C_20  and  O_21
REMARK    9  A    between atoms: O_21  and  C_22
REMARK   10  A    between atoms: C_22  and  C_23
REMARK   11  A    between atoms: O_25  and  C_26
REMARK   12  A    between atoms: C_27  and  O_28
REMARK   13  A    between atoms: O_28  and  C_29
REMARK   14  A    between atoms: O_30  and  C_31
REMARK   15  A    between atoms: O_32  and  C_33
REMARK   16  A    between atoms: C_33  and  C_34
REMARK                            x       y       z     vdW  Elec       q    Type
REMARK                         _______ _______ _______ _____ _____    ______ ____
ROOT
ATOM      1  O   LIG A   1      -6.521   0.511 125.339  0.00  0.00    -0.283 OA
ATOM      2  C   LIG A   1      -7.135   0.474 126.428  0.00  0.00    +0.238 A 
ATOM      3  C   LIG A   1      -7.071  -0.643 127.316  0.00  0.00    +0.110 A 
ATOM      4  C   LIG A   1      -7.289  -1.938 126.871  0.00  0.00    +0.149 A 
ATOM      5  C   LIG A   1      -7.418  -2.929 127.816  0.00  0.00    +0.092 A 
ATOM      6  C   LIG A   1      -7.234  -2.675 129.177  0.00  0.00    +0.127 A 
ATOM      7  C   LIG A   1      -7.084  -1.353 129.621  0.00  0.00    +0.092 A 
ATOM      8  C   LIG A   1      -7.051  -0.327 128.676  0.00  0.00    +0.147 A 
ATOM      9  O   LIG A   1      -7.094   1.008 129.044  0.00  0.00    -0.451 OA
ATOM     10  C   LIG A   1      -7.889   1.846 128.202  0.00  0.00    +0.184 A 
ATOM     11  C   LIG A   1      -8.079   1.493 126.899  0.00  0.00    +0.211 A 
ENDROOT
BRANCH  10  12
ATOM     12  C   LIG A   1      -8.556   2.985 128.917  0.00  0.00    +0.067 A 
ATOM     13  C   LIG A   1      -9.358   2.650 130.033  0.00  0.00    +0.019 A 
ATOM     14  C   LIG A   1     -10.178   3.578 130.691  0.00  0.00    +0.050 A 
ATOM     15  C   LIG A   1     -10.210   4.903 130.283  0.00  0.00    +0.166 A 
ATOM     16  C   LIG A   1      -9.348   5.311 129.247  0.00  0.00    +0.216 A 
ATOM     17  C   LIG A   1      -8.485   4.362 128.591  0.00  0.00    +0.188 A 
BRANCH  15  18
ATOM     18  O   LIG A   1     -11.073   5.830 130.839  0.00  0.00    -0.491 OA
ATOM     19  C   LIG A   1     -10.798   6.218 132.193  0.00  0.00    +0.277 C 
ENDBRANCH  15  18
BRANCH  16  20
ATOM     20  O   LIG A   1      -9.397   6.699 128.894  0.00  0.00    -0.418 OA
BRANCH  20  21
ATOM     21  C   LIG A   1     -10.458   7.236 128.063  0.00  0.00    +0.309 C 
ATOM     22  C   LIG A   1     -10.583   8.687 128.407  0.00  0.00    +0.136 C 
ATOM     23  O   LIG A   1     -11.247   6.647 127.363  0.00  0.00    -0.251 OA
ENDBRANCH  20  21
ENDBRANCH  16  20
BRANCH  17  24
ATOM     24  O   LIG A   1      -7.628   4.892 127.574  0.00  0.00    -0.421 OA
BRANCH  24  25
ATOM     25  C   LIG A   1      -7.936   4.937 126.191  0.00  0.00    +0.309 C 
ATOM     26  C   LIG A   1      -6.675   4.736 125.373  0.00  0.00    +0.136 C 
ATOM     27  O   LIG A   1      -9.048   5.101 125.697  0.00  0.00    -0.251 OA
ENDBRANCH  24  25
ENDBRANCH  17  24
ENDBRANCH  10  12
BRANCH  11  28
ATOM     28  O   LIG A   1      -9.131   1.908 126.116  0.00  0.00    -0.488 OA
ATOM     29  C   LIG A   1      -9.788   0.888 125.368  0.00  0.00    +0.277 C 
ENDBRANCH  11  28
BRANCH   6  30
ATOM     30  O   LIG A   1      -7.237  -3.685 130.105  0.00  0.00    -0.495 OA
ATOM     31  C   LIG A   1      -6.024  -3.790 130.869  0.00  0.00    +0.277 C 
ENDBRANCH   6  30
BRANCH   4  32
ATOM     32  O   LIG A   1      -7.624  -2.162 125.520  0.00  0.00    -0.425 OA
BRANCH  32  33
ATOM     33  C   LIG A   1      -6.973  -3.167 124.803  0.00  0.00    +0.309 C 
ATOM     34  C   LIG A   1      -5.544  -2.777 124.605  0.00  0.00    +0.136 C 
ATOM     35  O   LIG A   1      -7.467  -4.189 124.347  0.00  0.00    -0.251 OA
ENDBRANCH  32  33
ENDBRANCH   4  32
TORSDOF 10
ENDMDL
MODEL 2
REMARK VINA RESULT:      -7.3      2.621      4.265
REMARK  Name = NuBBE_1887
REMARK  16 active torsions:
REMARK  status: ('A' for Active; 'I' for Inactive)
REMARK    1  A    between atoms: C_4  and  O_32
REMARK    2  A    between atoms: C_6  and  O_30
REMARK    3  A    between atoms: C_10  and  C_11
REMARK    4  A    between atoms: C_14  and  O_25
REMARK    5  A    between atoms: C_15  and  O_16
REMARK    6  A    between atoms: O_16  and  C_17
REMARK    7  A    between atoms: C_17  and  C_18
REMARK    8  A    between atoms: C_20  and  O_21
REMARK    9  A    between atoms: O_21  and  C_22
REMARK   10  A    between atoms: C_22  and  C_23
REMARK   11  A    between atoms: O_25  and  C_26
REMARK   12  A    between atoms: C_27  and  O_28
REMARK   13  A    between atoms: O_28  and  C_29
REMARK   14  A    between atoms: O_30  and  C_31
REMARK   15  A    between atoms: O_32  and  C_33
REMARK   16  A    between atoms: C_33  and  C_34
REMARK                            x       y       z     vdW  Elec       q    Type
REMARK                         _______ _______ _______ _____ _____    ______ ____
ROOT
ATOM      1  O   LIG A   1      -5.267  -1.783 124.587  0.00  0.00    -0.283 OA
ATOM      2  C   LIG A   1      -5.698  -1.102 125.543  0.00  0.00    +0.238 A 
ATOM      3  C   LIG A   1      -6.276  -1.686 126.712  0.00  0.00    +0.110 A 
ATOM      4  C   LIG A   1      -7.275  -2.644 126.627  0.00  0.00    +0.149 A 
ATOM      5  C   LIG A   1      -7.922  -3.001 127.786  0.00  0.00    +0.092 A 
ATOM      6  C   LIG A   1      -7.530  -2.503 129.030  0.00  0.00    +0.127 A 
ATOM      7  C   LIG A   1      -6.567  -1.484 129.097  0.00  0.00    +0.092 A 
ATOM      8  C   LIG A   1      -5.974  -1.044 127.914  0.00  0.00    +0.147 A 
ATOM      9  O   LIG A   1      -5.160   0.077 127.878  0.00  0.00    -0.451 OA
ATOM     10  C   LIG A   1      -5.325   0.911 126.728  0.00  0.00    +0.184 A 
ATOM     11  C   LIG A   1      -5.780   0.362 125.566  0.00  0.00    +0.211 A 
ENDROOT
BRANCH  10  12
ATOM     12  C   LIG A   1      -5.099   2.372 126.988  0.00  0.00    +0.067 A 
ATOM     13  C   LIG A   1      -4.139   3.019 126.173  0.00  0.00    +0.019 A 
ATOM     14  C   LIG A   1      -3.694   4.327 126.410  0.00  0.00    +0.050 A 
ATOM     15  C   LIG A   1      -4.214   5.070 127.458  0.00  0.00    +0.166 A 
ATOM     16  C   LIG A   1      -5.251   4.512 128.231  0.00  0.00    +0.216 A 
ATOM     17  C   LIG A   1      -5.727   3.177 127.969  0.00  0.00    +0.188 A 
BRANCH  15  18
ATOM     18  O   LIG A   1      -3.738   6.326 127.787  0.00  0.00    -0.491 OA
ATOM     19  C   LIG A   1      -2.421   6.376 128.355  0.00  0.00    +0.277 C 
ENDBRANCH  15  18
BRANCH  16  20
ATOM     20  O   LIG A   1      -5.777   5.340 129.276  0.00  0.00    -0.418 OA
BRANCH  20  21
ATOM     21  C   LIG A   1      -5.253   5.282 130.629  0.00  0.00    +0.309 C 
ATOM     22  C   LIG A   1      -5.698   6.534 131.316  0.00  0.00    +0.136 C 
ATOM     23  O   LIG A   1      -4.456   4.508 131.103  0.00  0.00    -0.251 OA
ENDBRANCH  20  21
ENDBRANCH  16  20
BRANCH  17  24
ATOM     24  O   LIG A   1      -6.805   2.723 128.795  0.00  0.00    -0.421 OA
BRANCH  24  25
ATOM     25  C   LIG A   1      -8.181   2.827 128.470  0.00  0.00    +0.309 C 
ATOM     26  C   LIG A   1      -8.651   1.557 127.790  0.00  0.00    +0.136 C 
ATOM     27  O   LIG A   1      -8.913   3.785 128.702  0.00  0.00    -0.251 OA
ENDBRANCH  24  25
ENDBRANCH  17  24
ENDBRANCH  10  12
BRANCH  11  28
ATOM     28  O   LIG A   1      -6.403   1.059 124.557  0.00  0.00    -0.488 OA
ATOM     29  C   LIG A   1      -7.758   0.702 124.302  0.00  0.00    +0.277 C 
ENDBRANCH  11  28
BRANCH   6  30
ATOM     30  O   LIG A   1      -8.092  -2.955 130.197  0.00  0.00    -0.495 OA
ATOM     31  C   LIG A   1      -7.229  -2.863 131.344  0.00  0.00    +0.277 C 
ENDBRANCH   6  30
BRANCH   4  32
ATOM     32  O   LIG A   1      -7.767  -3.026 125.362  0.00  0.00    -0.425 OA
BRANCH  32  33
ATOM     33  C   LIG A   1      -9.052  -2.641 124.975  0.00  0.00    +0.309 C 
ATOM     34  C   LIG A   1      -9.405  -3.332 123.698  0.00  0.00    +0.136 C 
ATOM     35  O   LIG A   1      -9.781  -1.832 125.534  0.00  0.00    -0.251 OA
ENDBRANCH  32  33
ENDBRANCH   4  32
TORSDOF 10
ENDMDL
MODEL 3
REMARK VINA RESULT:      -7.2      2.952      5.023
REMARK  Name = NuBBE_1887
REMARK  16 active torsions:
REMARK  status: ('A' for Active; 'I' for Inactive)
REMARK    1  A    between atoms: C_4  and  O_32
REMARK    2  A    between atoms: C_6  and  O_30
REMARK    3  A    between atoms: C_10  and  C_11
REMARK    4  A    between atoms: C_14  and  O_25
REMARK    5  A    between atoms: C_15  and  O_16
REMARK    6  A    between atoms: O_16  and  C_17
REMARK    7  A    between atoms: C_17  and  C_18
REMARK    8  A    between atoms: C_20  and  O_21
REMARK    9  A    between atoms: O_21  and  C_22
REMARK   10  A    between atoms: C_22  and  C_23
REMARK   11  A    between atoms: O_25  and  C_26
REMARK   12  A    between atoms: C_27  and  O_28
REMARK   13  A    between atoms: O_28  and  C_29
REMARK   14  A    between atoms: O_30  and  C_31
REMARK   15  A    between atoms: O_32  and  C_33
REMARK   16  A    between atoms: C_33  and  C_34
REMARK                            x       y       z     vdW  Elec       q    Type
REMARK                         _______ _______ _______ _____ _____    ______ ____
ROOT
ATOM      1  O   LIG A   1     -10.012   0.331 125.970  0.00  0.00    -0.283 OA
ATOM      2  C   LIG A   1      -9.032   1.102 126.066  0.00  0.00    +0.238 A 
ATOM      3  C   LIG A   1      -8.370   1.659 124.930  0.00  0.00    +0.110 A 
ATOM      4  C   LIG A   1      -7.952   0.867 123.872  0.00  0.00    +0.149 A 
ATOM      5  C   LIG A   1      -7.141   1.442 122.920  0.00  0.00    +0.092 A 
ATOM      6  C   LIG A   1      -6.826   2.802 122.948  0.00  0.00    +0.127 A 
ATOM      7  C   LIG A   1      -7.195   3.577 124.058  0.00  0.00    +0.092 A 
ATOM      8  C   LIG A   1      -7.934   2.978 125.078  0.00  0.00    +0.147 A 
ATOM      9  O   LIG A   1      -8.173   3.621 126.282  0.00  0.00    -0.451 OA
ATOM     10  C   LIG A   1      -8.101   2.786 127.442  0.00  0.00    +0.184 A 
ATOM     11  C   LIG A   1      -8.356   1.453 127.320  0.00  0.00    +0.211 A 
ENDROOT
BRANCH  10  12
ATOM     12  C   LIG A   1      -7.602   3.484 128.673  0.00  0.00    +0.067 A 
ATOM     13  C   LIG A   1      -8.555   3.736 129.689  0.00  0.00    +0.019 A 
ATOM     14  C   LIG A   1      -8.283   4.527 130.813  0.00  0.00    +0.050 A 
ATOM     15  C   LIG A   1      -7.025   5.082 130.997  0.00  0.00    +0.166 A 
ATOM     16  C   LIG A   1      -6.009   4.771 130.071  0.00  0.00    +0.216 A 
ATOM     17  C   LIG A   1      -6.284   3.933 128.932  0.00  0.00    +0.188 A 
BRANCH  15  18
ATOM     18  O   LIG A   1      -6.738   5.945 132.039  0.00  0.00    -0.491 OA
ATOM     19  C   LIG A   1      -7.392   5.670 133.286  0.00  0.00    +0.277 C 
ENDBRANCH  15  18
BRANCH  16  20
ATOM     20  O   LIG A   1      -4.720   5.340 130.333  0.00  0.00    -0.418 OA
BRANCH  20  21
ATOM     21  C   LIG A   1      -4.326   6.619 129.772  0.00  0.00    +0.309 C 
ATOM     22  C   LIG A   1      -2.900   6.480 129.342  0.00  0.00    +0.136 C 
ATOM     23  O   LIG A   1      -4.915   7.674 129.797  0.00  0.00    -0.251 OA
ENDBRANCH  20  21
ENDBRANCH  16  20
BRANCH  17  24
ATOM     24  O   LIG A   1      -5.171   3.657 128.074  0.00  0.00    -0.421 OA
BRANCH  24  25
ATOM     25  C   LIG A   1      -4.823   4.407 126.923  0.00  0.00    +0.309 C 
ATOM     26  C   LIG A   1      -3.688   3.727 126.184  0.00  0.00    +0.136 C 
ATOM     27  O   LIG A   1      -5.351   5.450 126.546  0.00  0.00    -0.251 OA
ENDBRANCH  24  25
ENDBRANCH  17  24
ENDBRANCH  10  12
BRANCH  11  28
ATOM     28  O   LIG A   1      -7.906   0.483 128.185  0.00  0.00    -0.488 OA
ATOM     29  C   LIG A   1      -6.713  -0.191 127.795  0.00  0.00    +0.277 C 
ENDBRANCH  11  28
BRANCH   6  30
ATOM     30  O   LIG A   1      -6.124   3.400 121.932  0.00  0.00    -0.495 OA
ATOM     31  C   LIG A   1      -5.183   4.394 122.370  0.00  0.00    +0.277 C 
ENDBRANCH   6  30
BRANCH   4  32
ATOM     32  O   LIG A   1      -8.143  -0.528 123.929  0.00  0.00    -0.425 OA
BRANCH  32  33
ATOM     33  C   LIG A   1      -9.121  -1.126 123.133  0.00  0.00    +0.309 C 
ATOM     34  C   LIG A   1      -8.863  -2.596 123.065  0.00  0.00    +0.136 C 
ATOM     35  O   LIG A   1     -10.027  -0.567 122.530  0.00  0.00    -0.251 OA
ENDBRANCH  32  33
ENDBRANCH   4  32
TORSDOF 10
ENDMDL
MODEL 4
REMARK VINA RESULT:      -7.2      2.159      3.182
REMARK  Name = NuBBE_1887
REMARK  16 active torsions:
REMARK  status: ('A' for Active; 'I' for Inactive)
REMARK    1  A    between atoms: C_4  and  O_32
REMARK    2  A    between atoms: C_6  and  O_30
REMARK    3  A    between atoms: C_10  and  C_11
REMARK    4  A    between atoms: C_14  and  O_25
REMARK    5  A    between atoms: C_15  and  O_16
REMARK    6  A    between atoms: O_16  and  C_17
REMARK    7  A    between atoms: C_17  and  C_18
REMARK    8  A    between atoms: C_20  and  O_21
REMARK    9  A    between atoms: O_21  and  C_22
REMARK   10  A    between atoms: C_22  and  C_23
REMARK   11  A    between atoms: O_25  and  C_26
REMARK   12  A    between atoms: C_27  and  O_28
REMARK   13  A    between atoms: O_28  and  C_29
REMARK   14  A    between atoms: O_30  and  C_31
REMARK   15  A    between atoms: O_32  and  C_33
REMARK   16  A    between atoms: C_33  and  C_34
REMARK                            x       y       z     vdW  Elec       q    Type
REMARK                         _______ _______ _______ _____ _____    ______ ____
ROOT
ATOM      1  O   LIG A   1      -6.382   1.928 124.536  0.00  0.00    -0.283 OA
ATOM      2  C   LIG A   1      -7.112   1.619 125.503  0.00  0.00    +0.238 A 
ATOM      3  C   LIG A   1      -7.448   0.268 125.820  0.00  0.00    +0.110 A 
ATOM      4  C   LIG A   1      -7.938  -0.603 124.859  0.00  0.00    +0.149 A 
ATOM      5  C   LIG A   1      -8.433  -1.815 125.283  0.00  0.00    +0.092 A 
ATOM      6  C   LIG A   1      -8.356  -2.213 126.619  0.00  0.00    +0.127 A 
ATOM      7  C   LIG A   1      -7.924  -1.298 127.591  0.00  0.00    +0.092 A 
ATOM      8  C   LIG A   1      -7.512  -0.030 127.183  0.00  0.00    +0.147 A 
ATOM      9  O   LIG A   1      -7.252   0.982 128.092  0.00  0.00    -0.451 OA
ATOM     10  C   LIG A   1      -7.695   2.283 127.698  0.00  0.00    +0.184 A 
ATOM     11  C   LIG A   1      -7.810   2.574 126.371  0.00  0.00    +0.211 A 
ENDROOT
BRANCH  10  12
ATOM     12  C   LIG A   1      -8.125   3.161 128.836  0.00  0.00    +0.067 A 
ATOM     13  C   LIG A   1      -9.181   2.677 129.645  0.00  0.00    +0.019 A 
ATOM     14  C   LIG A   1      -9.806   3.454 130.631  0.00  0.00    +0.050 A 
ATOM     15  C   LIG A   1      -9.380   4.750 130.882  0.00  0.00    +0.166 A 
ATOM     16  C   LIG A   1      -8.262   5.240 130.180  0.00  0.00    +0.216 A 
ATOM     17  C   LIG A   1      -7.603   4.430 129.188  0.00  0.00    +0.188 A 
BRANCH  15  18
ATOM     18  O   LIG A   1     -10.027   5.584 131.776  0.00  0.00    -0.491 OA
ATOM     19  C   LIG A   1     -11.317   6.066 131.373  0.00  0.00    +0.277 C 
ENDBRANCH  15  18
BRANCH  16  20
ATOM     20  O   LIG A   1      -7.843   6.571 130.509  0.00  0.00    -0.418 OA
BRANCH  20  21
ATOM     21  C   LIG A   1      -6.510   6.847 131.010  0.00  0.00    +0.309 C 
ATOM     22  C   LIG A   1      -6.404   6.176 132.343  0.00  0.00    +0.136 C 
ATOM     23  O   LIG A   1      -5.680   7.613 130.581  0.00  0.00    -0.251 OA
ENDBRANCH  20  21
ENDBRANCH  16  20
BRANCH  17  24
ATOM     24  O   LIG A   1      -6.458   5.016 128.560  0.00  0.00    -0.421 OA
BRANCH  24  25
ATOM     25  C   LIG A   1      -5.144   4.484 128.599  0.00  0.00    +0.309 C 
ATOM     26  C   LIG A   1      -4.410   4.821 127.317  0.00  0.00    +0.136 C 
ATOM     27  O   LIG A   1      -4.643   3.850 129.524  0.00  0.00    -0.251 OA
ENDBRANCH  24  25
ENDBRANCH  17  24
ENDBRANCH  10  12
BRANCH  11  28
ATOM     28  O   LIG A   1      -8.616   3.558 125.847  0.00  0.00    -0.488 OA
ATOM     29  C   LIG A   1      -7.967   4.784 125.522  0.00  0.00    +0.277 C 
ENDBRANCH  11  28
BRANCH   6  30
ATOM     30  O   LIG A   1      -8.733  -3.470 127.019  0.00  0.00    -0.495 OA
ATOM     31  C   LIG A   1      -8.664  -3.684 128.439  0.00  0.00    +0.277 C 
ENDBRANCH   6  30
BRANCH   4  32
ATOM     32  O   LIG A   1      -8.153  -0.140 123.545  0.00  0.00    -0.425 OA
BRANCH  32  33
ATOM     33  C   LIG A   1      -9.457   0.005 123.068  0.00  0.00    +0.309 C 
ATOM     34  C   LIG A   1      -9.930   1.392 123.358  0.00  0.00    +0.136 C 
ATOM     35  O   LIG A   1     -10.152  -0.853 122.541  0.00  0.00    -0.251 OA
ENDBRANCH  32  33
ENDBRANCH   4  32
TORSDOF 10
ENDMDL
MODEL 5
REMARK VINA RESULT:      -7.1      2.559      7.768
REMARK  Name = NuBBE_1887
REMARK  16 active torsions:
REMARK  status: ('A' for Active; 'I' for Inactive)
REMARK    1  A    between atoms: C_4  and  O_32
REMARK    2  A    between atoms: C_6  and  O_30
REMARK    3  A    between atoms: C_10  and  C_11
REMARK    4  A    between atoms: C_14  and  O_25
REMARK    5  A    between atoms: C_15  and  O_16
REMARK    6  A    between atoms: O_16  and  C_17
REMARK    7  A    between atoms: C_17  and  C_18
REMARK    8  A    between atoms: C_20  and  O_21
REMARK    9  A    between atoms: O_21  and  C_22
REMARK   10  A    between atoms: C_22  and  C_23
REMARK   11  A    between atoms: O_25  and  C_26
REMARK   12  A    between atoms: C_27  and  O_28
REMARK   13  A    between atoms: O_28  and  C_29
REMARK   14  A    between atoms: O_30  and  C_31
REMARK   15  A    between atoms: O_32  and  C_33
REMARK   16  A    between atoms: C_33  and  C_34
REMARK                            x       y       z     vdW  Elec       q    Type
REMARK                         _______ _______ _______ _____ _____    ______ ____
ROOT
ATOM      1  O   LIG A   1      -5.464   5.137 127.660  0.00  0.00    -0.283 OA
ATOM      2  C   LIG A   1      -6.198   4.350 128.298  0.00  0.00    +0.238 A 
ATOM      3  C   LIG A   1      -6.996   4.763 129.409  0.00  0.00    +0.110 A 
ATOM      4  C   LIG A   1      -6.459   5.497 130.456  0.00  0.00    +0.149 A 
ATOM      5  C   LIG A   1      -7.234   5.673 131.579  0.00  0.00    +0.092 A 
ATOM      6  C   LIG A   1      -8.555   5.226 131.639  0.00  0.00    +0.127 A 
ATOM      7  C   LIG A   1      -9.063   4.426 130.604  0.00  0.00    +0.092 A 
ATOM      8  C   LIG A   1      -8.250   4.157 129.503  0.00  0.00    +0.147 A 
ATOM      9  O   LIG A   1      -8.610   3.230 128.538  0.00  0.00    -0.451 OA
ATOM     10  C   LIG A   1      -7.540   2.418 128.046  0.00  0.00    +0.184 A 
ATOM     11  C   LIG A   1      -6.265   2.900 128.085  0.00  0.00    +0.211 A 
ENDROOT
BRANCH  10  12
ATOM     12  C   LIG A   1      -7.949   1.028 127.656  0.00  0.00    +0.067 A 
ATOM     13  C   LIG A   1      -7.559  -0.016 128.529  0.00  0.00    +0.019 A 
ATOM     14  C   LIG A   1      -7.713  -1.373 128.213  0.00  0.00    +0.050 A 
ATOM     15  C   LIG A   1      -8.301  -1.756 127.017  0.00  0.00    +0.166 A 
ATOM     16  C   LIG A   1      -8.806  -0.756 126.163  0.00  0.00    +0.216 A 
ATOM     17  C   LIG A   1      -8.672   0.637 126.502  0.00  0.00    +0.188 A 
BRANCH  15  18
ATOM     18  O   LIG A   1      -8.387  -3.079 126.622  0.00  0.00    -0.491 OA
ATOM     19  C   LIG A   1      -8.965  -3.986 127.571  0.00  0.00    +0.277 C 
ENDBRANCH  15  18
BRANCH  16  20
ATOM     20  O   LIG A   1      -9.437  -1.212 124.960  0.00  0.00    -0.418 OA
BRANCH  20  21
ATOM     21  C   LIG A   1      -8.662  -1.626 123.804  0.00  0.00    +0.309 C 
ATOM     22  C   LIG A   1      -9.305  -2.870 123.277  0.00  0.00    +0.136 C 
ATOM     23  O   LIG A   1      -7.596  -1.210 123.415  0.00  0.00    -0.251 OA
ENDBRANCH  20  21
ENDBRANCH  16  20
BRANCH  17  24
ATOM     24  O   LIG A   1      -9.249   1.566 125.578  0.00  0.00    -0.421 OA
BRANCH  24  25
ATOM     25  C   LIG A   1      -8.558   2.639 124.962  0.00  0.00    +0.309 C 
ATOM     26  C   LIG A   1      -7.417   2.106 124.118  0.00  0.00    +0.136 C 
ATOM     27  O   LIG A   1      -8.825   3.834 125.067  0.00  0.00    -0.251 OA
ENDBRANCH  24  25
ENDBRANCH  17  24
ENDBRANCH  10  12
BRANCH  11  28
ATOM     28  O   LIG A   1      -5.130   2.125 128.086  0.00  0.00    -0.488 OA
ATOM     29  C   LIG A   1      -4.529   1.902 126.813  0.00  0.00    +0.277 C 
ENDBRANCH  11  28
BRANCH   6  30
ATOM     30  O   LIG A   1      -9.365   5.513 132.708  0.00  0.00    -0.495 OA
ATOM     31  C   LIG A   1     -10.607   6.145 132.355  0.00  0.00    +0.277 C 
ENDBRANCH   6  30
BRANCH   4  32
ATOM     32  O   LIG A   1      -5.085   5.810 130.453  0.00  0.00    -0.425 OA
BRANCH  32  33
ATOM     33  C   LIG A   1      -4.678   7.137 130.603  0.00  0.00    +0.309 C 
ATOM     34  C   LIG A   1      -3.693   7.222 131.723  0.00  0.00    +0.136 C 
ATOM     35  O   LIG A   1      -5.078   8.108 129.975  0.00  0.00    -0.251 OA
ENDBRANCH  32  33
ENDBRANCH   4  32
TORSDOF 10
ENDMDL
MODEL 6
REMARK VINA RESULT:      -7.1      3.245      5.158
REMARK  Name = NuBBE_1887
REMARK  16 active torsions:
REMARK  status: ('A' for Active; 'I' for Inactive)
REMARK    1  A    between atoms: C_4  and  O_32
REMARK    2  A    between atoms: C_6  and  O_30
REMARK    3  A    between atoms: C_10  and  C_11
REMARK    4  A    between atoms: C_14  and  O_25
REMARK    5  A    between atoms: C_15  and  O_16
REMARK    6  A    between atoms: O_16  and  C_17
REMARK    7  A    between atoms: C_17  and  C_18
REMARK    8  A    between atoms: C_20  and  O_21
REMARK    9  A    between atoms: O_21  and  C_22
REMARK   10  A    between atoms: C_22  and  C_23
REMARK   11  A    between atoms: O_25  and  C_26
REMARK   12  A    between atoms: C_27  and  O_28
REMARK   13  A    between atoms: O_28  and  C_29
REMARK   14  A    between atoms: O_30  and  C_31
REMARK   15  A    between atoms: O_32  and  C_33
REMARK   16  A    between atoms: C_33  and  C_34
REMARK                            x       y       z     vdW  Elec       q    Type
REMARK                         _______ _______ _______ _____ _____    ______ ____
ROOT
ATOM      1  O   LIG A   1      -5.913   3.659 123.182  0.00  0.00    -0.283 OA
ATOM      2  C   LIG A   1      -5.888   3.309 124.383  0.00  0.00    +0.238 A 
ATOM      3  C   LIG A   1      -6.025   1.949 124.797  0.00  0.00    +0.110 A 
ATOM      4  C   LIG A   1      -7.059   1.150 124.334  0.00  0.00    +0.149 A 
ATOM      5  C   LIG A   1      -7.245  -0.073 124.936  0.00  0.00    +0.092 A 
ATOM      6  C   LIG A   1      -6.367  -0.553 125.910  0.00  0.00    +0.127 A 
ATOM      7  C   LIG A   1      -5.368   0.290 126.420  0.00  0.00    +0.092 A 
ATOM      8  C   LIG A   1      -5.235   1.571 125.884  0.00  0.00    +0.147 A 
ATOM      9  O   LIG A   1      -4.403   2.520 126.457  0.00  0.00    -0.451 OA
ATOM     10  C   LIG A   1      -4.921   3.853 126.473  0.00  0.00    +0.184 A 
ATOM     11  C   LIG A   1      -5.829   4.226 125.527  0.00  0.00    +0.211 A 
ENDROOT
BRANCH  10  12
ATOM     12  C   LIG A   1      -4.489   4.669 127.655  0.00  0.00    +0.067 A 
ATOM     13  C   LIG A   1      -3.180   5.206 127.610  0.00  0.00    +0.019 A 
ATOM     14  C   LIG A   1      -2.575   5.837 128.706  0.00  0.00    +0.050 A 
ATOM     15  C   LIG A   1      -3.265   5.995 129.898  0.00  0.00    +0.166 A 
ATOM     16  C   LIG A   1      -4.609   5.577 129.960  0.00  0.00    +0.216 A 
ATOM     17  C   LIG A   1      -5.238   4.954 128.823  0.00  0.00    +0.188 A 
BRANCH  15  18
ATOM     18  O   LIG A   1      -2.677   6.525 131.032  0.00  0.00    -0.491 OA
ATOM     19  C   LIG A   1      -1.793   5.654 131.752  0.00  0.00    +0.277 C 
ENDBRANCH  15  18
BRANCH  16  20
ATOM     20  O   LIG A   1      -5.284   5.800 131.204  0.00  0.00    -0.418 OA
BRANCH  20  21
ATOM     21  C   LIG A   1      -6.430   6.686 131.299  0.00  0.00    +0.309 C 
ATOM     22  C   LIG A   1      -7.340   6.103 132.334  0.00  0.00    +0.136 C 
ATOM     23  O   LIG A   1      -6.739   7.609 130.584  0.00  0.00    -0.251 OA
ENDBRANCH  20  21
ENDBRANCH  16  20
BRANCH  17  24
ATOM     24  O   LIG A   1      -6.615   4.598 128.986  0.00  0.00    -0.421 OA
BRANCH  24  25
ATOM     25  C   LIG A   1      -7.082   3.368 129.514  0.00  0.00    +0.309 C 
ATOM     26  C   LIG A   1      -7.788   2.574 128.433  0.00  0.00    +0.136 C 
ATOM     27  O   LIG A   1      -6.942   2.970 130.668  0.00  0.00    -0.251 OA
ENDBRANCH  24  25
ENDBRANCH  17  24
ENDBRANCH  10  12
BRANCH  11  28
ATOM     28  O   LIG A   1      -6.727   5.259 125.661  0.00  0.00    -0.488 OA
ATOM     29  C   LIG A   1      -8.100   4.883 125.719  0.00  0.00    +0.277 C 
ENDBRANCH  11  28
BRANCH   6  30
ATOM     30  O   LIG A   1      -6.479  -1.823 126.418  0.00  0.00    -0.495 OA
ATOM     31  C   LIG A   1      -7.829  -2.229 126.701  0.00  0.00    +0.277 C 
ENDBRANCH   6  30
BRANCH   4  32
ATOM     32  O   LIG A   1      -8.027   1.697 123.467  0.00  0.00    -0.425 OA
BRANCH  32  33
ATOM     33  C   LIG A   1      -9.382   1.572 123.775  0.00  0.00    +0.309 C 
ATOM     34  C   LIG A   1     -10.064   0.818 122.681  0.00  0.00    +0.136 C 
ATOM     35  O   LIG A   1      -9.965   2.035 124.746  0.00  0.00    -0.251 OA
ENDBRANCH  32  33
ENDBRANCH   4  32
TORSDOF 10
ENDMDL
MODEL 7
REMARK VINA RESULT:      -7.0      2.317      8.111
REMARK  Name = NuBBE_1887
REMARK  16 active torsions:
REMARK  status: ('A' for Active; 'I' for Inactive)
REMARK    1  A    between atoms: C_4  and  O_32
REMARK    2  A    between atoms: C_6  and  O_30
REMARK    3  A    between atoms: C_10  and  C_11
REMARK    4  A    between atoms: C_14  and  O_25
REMARK    5  A    between atoms: C_15  and  O_16
REMARK    6  A    between atoms: O_16  and  C_17
REMARK    7  A    between atoms: C_17  and  C_18
REMARK    8  A    between atoms: C_20  and  O_21
REMARK    9  A    between atoms: O_21  and  C_22
REMARK   10  A    between atoms: C_22  and  C_23
REMARK   11  A    between atoms: O_25  and  C_26
REMARK   12  A    between atoms: C_27  and  O_28
REMARK   13  A    between atoms: O_28  and  C_29
REMARK   14  A    between atoms: O_30  and  C_31
REMARK   15  A    between atoms: O_32  and  C_33
REMARK   16  A    between atoms: C_33  and  C_34
REMARK                            x       y       z     vdW  Elec       q    Type
REMARK                         _______ _______ _______ _____ _____    ______ ____
ROOT
ATOM      1  O   LIG A   1      -5.863   5.337 128.926  0.00  0.00    -0.283 OA
ATOM      2  C   LIG A   1      -6.729   4.594 129.438  0.00  0.00    +0.238 A 
ATOM      3  C   LIG A   1      -7.943   5.092 130.002  0.00  0.00    +0.110 A 
ATOM      4  C   LIG A   1      -7.945   6.132 130.918  0.00  0.00    +0.149 A 
ATOM      5  C   LIG A   1      -9.124   6.412 131.570  0.00  0.00    +0.092 A 
ATOM      6  C   LIG A   1     -10.312   5.751 131.254  0.00  0.00    +0.127 A 
ATOM      7  C   LIG A   1     -10.285   4.656 130.377  0.00  0.00    +0.092 A 
ATOM      8  C   LIG A   1      -9.073   4.300 129.786  0.00  0.00    +0.147 A 
ATOM      9  O   LIG A   1      -8.929   3.127 129.063  0.00  0.00    -0.451 OA
ATOM     10  C   LIG A   1      -7.691   2.439 129.260  0.00  0.00    +0.184 A 
ATOM     11  C   LIG A   1      -6.588   3.147 129.635  0.00  0.00    +0.211 A 
ENDROOT
BRANCH  10  12
ATOM     12  C   LIG A   1      -7.792   0.946 129.157  0.00  0.00    +0.067 A 
ATOM     13  C   LIG A   1      -8.131   0.250 130.341  0.00  0.00    +0.019 A 
ATOM     14  C   LIG A   1      -8.091  -1.148 130.445  0.00  0.00    +0.050 A 
ATOM     15  C   LIG A   1      -7.742  -1.926 129.351  0.00  0.00    +0.166 A 
ATOM     16  C   LIG A   1      -7.502  -1.288 128.119  0.00  0.00    +0.216 A 
ATOM     17  C   LIG A   1      -7.571   0.147 128.007  0.00  0.00    +0.188 A 
BRANCH  15  18
ATOM     18  O   LIG A   1      -7.597  -3.299 129.432  0.00  0.00    -0.491 OA
ATOM     19  C   LIG A   1      -6.394  -3.773 130.053  0.00  0.00    +0.277 C 
ENDBRANCH  15  18
BRANCH  16  20
ATOM     20  O   LIG A   1      -7.183  -2.144 127.015  0.00  0.00    -0.418 OA
BRANCH  20  21
ATOM     21  C   LIG A   1      -8.206  -2.622 126.102  0.00  0.00    +0.309 C 
ATOM     22  C   LIG A   1      -7.493  -3.253 124.948  0.00  0.00    +0.136 C 
ATOM     23  O   LIG A   1      -9.396  -2.412 126.117  0.00  0.00    -0.251 OA
ENDBRANCH  20  21
ENDBRANCH  16  20
BRANCH  17  24
ATOM     24  O   LIG A   1      -7.341   0.687 126.701  0.00  0.00    -0.421 OA
BRANCH  24  25
ATOM     25  C   LIG A   1      -8.353   1.016 125.765  0.00  0.00    +0.309 C 
ATOM     26  C   LIG A   1      -7.896   0.666 124.363  0.00  0.00    +0.136 C 
ATOM     27  O   LIG A   1      -9.452   1.502 126.021  0.00  0.00    -0.251 OA
ENDBRANCH  24  25
ENDBRANCH  17  24
ENDBRANCH  10  12
BRANCH  11  28
ATOM     28  O   LIG A   1      -5.495   2.618 130.282  0.00  0.00    -0.488 OA
ATOM     29  C   LIG A   1      -5.573   2.582 131.704  0.00  0.00    +0.277 C 
ENDBRANCH  11  28
BRANCH   6  30
ATOM     30  O   LIG A   1     -11.511   6.118 131.812  0.00  0.00    -0.495 OA
ATOM     31  C   LIG A   1     -12.353   6.897 130.946  0.00  0.00    +0.277 C 
ENDBRANCH   6  30
BRANCH   4  32
ATOM     32  O   LIG A   1      -6.720   6.688 131.343  0.00  0.00    -0.425 OA
BRANCH  32  33
ATOM     33  C   LIG A   1      -6.056   6.141 132.441  0.00  0.00    +0.309 C 
ATOM     34  C   LIG A   1      -4.583   6.205 132.202  0.00  0.00    +0.136 C 
ATOM     35  O   LIG A   1      -6.562   5.633 133.433  0.00  0.00    -0.251 OA
ENDBRANCH  32  33
ENDBRANCH   4  32
TORSDOF 10
ENDMDL
MODEL 8
REMARK VINA RESULT:      -6.9      2.770      3.657
REMARK  Name = NuBBE_1887
REMARK  16 active torsions:
REMARK  status: ('A' for Active; 'I' for Inactive)
REMARK    1  A    between atoms: C_4  and  O_32
REMARK    2  A    between atoms: C_6  and  O_30
REMARK    3  A    between atoms: C_10  and  C_11
REMARK    4  A    between atoms: C_14  and  O_25
REMARK    5  A    between atoms: C_15  and  O_16
REMARK    6  A    between atoms: O_16  and  C_17
REMARK    7  A    between atoms: C_17  and  C_18
REMARK    8  A    between atoms: C_20  and  O_21
REMARK    9  A    between atoms: O_21  and  C_22
REMARK   10  A    between atoms: C_22  and  C_23
REMARK   11  A    between atoms: O_25  and  C_26
REMARK   12  A    between atoms: C_27  and  O_28
REMARK   13  A    between atoms: O_28  and  C_29
REMARK   14  A    between atoms: O_30  and  C_31
REMARK   15  A    between atoms: O_32  and  C_33
REMARK   16  A    between atoms: C_33  and  C_34
REMARK                            x       y       z     vdW  Elec       q    Type
REMARK                         _______ _______ _______ _____ _____    ______ ____
ROOT
ATOM      1  O   LIG A   1      -7.243   0.606 124.030  0.00  0.00    -0.283 OA
ATOM      2  C   LIG A   1      -7.455   0.596 125.263  0.00  0.00    +0.238 A 
ATOM      3  C   LIG A   1      -7.591  -0.610 126.016  0.00  0.00    +0.110 A 
ATOM      4  C   LIG A   1      -8.447  -1.625 125.614  0.00  0.00    +0.149 A 
ATOM      5  C   LIG A   1      -8.679  -2.655 126.495  0.00  0.00    +0.092 A 
ATOM      6  C   LIG A   1      -8.004  -2.746 127.713  0.00  0.00    +0.127 A 
ATOM      7  C   LIG A   1      -7.195  -1.682 128.140  0.00  0.00    +0.092 A 
ATOM      8  C   LIG A   1      -7.031  -0.585 127.295  0.00  0.00    +0.147 A 
ATOM      9  O   LIG A   1      -6.406   0.577 127.718  0.00  0.00    -0.451 OA
ATOM     10  C   LIG A   1      -7.000   1.792 127.253  0.00  0.00    +0.184 A 
ATOM     11  C   LIG A   1      -7.704   1.785 126.085  0.00  0.00    +0.211 A 
ENDROOT
BRANCH  10  12
ATOM     12  C   LIG A   1      -6.886   2.941 128.211  0.00  0.00    +0.067 A 
ATOM     13  C   LIG A   1      -7.984   3.154 129.079  0.00  0.00    +0.019 A 
ATOM     14  C   LIG A   1      -8.099   4.283 129.901  0.00  0.00    +0.050 A 
ATOM     15  C   LIG A   1      -7.101   5.246 129.923  0.00  0.00    +0.166 A 
ATOM     16  C   LIG A   1      -5.937   5.026 129.160  0.00  0.00    +0.216 A 
ATOM     17  C   LIG A   1      -5.807   3.851 128.337  0.00  0.00    +0.188 A 
BRANCH  15  18
ATOM     18  O   LIG A   1      -7.215   6.419 130.644  0.00  0.00    -0.491 OA
ATOM     19  C   LIG A   1      -7.614   6.283 132.016  0.00  0.00    +0.277 C 
ENDBRANCH  15  18
BRANCH  16  20
ATOM     20  O   LIG A   1      -4.922   6.034 129.251  0.00  0.00    -0.418 OA
BRANCH  20  21
ATOM     21  C   LIG A   1      -3.813   5.915 130.179  0.00  0.00    +0.309 C 
ATOM     22  C   LIG A   1      -2.577   6.285 129.421  0.00  0.00    +0.136 C 
ATOM     23  O   LIG A   1      -3.797   5.435 131.287  0.00  0.00    -0.251 OA
ENDBRANCH  20  21
ENDBRANCH  16  20
BRANCH  17  24
ATOM     24  O   LIG A   1      -4.570   3.714 127.630  0.00  0.00    -0.421 OA
BRANCH  24  25
ATOM     25  C   LIG A   1      -3.485   2.896 128.035  0.00  0.00    +0.309 C 
ATOM     26  C   LIG A   1      -2.268   3.191 127.182  0.00  0.00    +0.136 C 
ATOM     27  O   LIG A   1      -3.495   2.071 128.945  0.00  0.00    -0.251 OA
ENDBRANCH  24  25
ENDBRANCH  17  24
ENDBRANCH  10  12
BRANCH  11  28
ATOM     28  O   LIG A   1      -8.674   2.698 125.745  0.00  0.00    -0.488 OA
ATOM     29  C   LIG A   1      -8.235   3.813 124.974  0.00  0.00    +0.277 C 
ENDBRANCH  11  28
BRANCH   6  30
ATOM     30  O   LIG A   1      -8.142  -3.838 128.533  0.00  0.00    -0.495 OA
ATOM     31  C   LIG A   1      -7.286  -3.821 129.689  0.00  0.00    +0.277 C 
ENDBRANCH   6  30
BRANCH   4  32
ATOM     32  O   LIG A   1      -9.238  -1.452 124.460  0.00  0.00    -0.425 OA
BRANCH  32  33
ATOM     33  C   LIG A   1      -9.230  -2.428 123.463  0.00  0.00    +0.309 C 
ATOM     34  C   LIG A   1      -8.100  -2.159 122.524  0.00  0.00    +0.136 C 
ATOM     35  O   LIG A   1     -10.031  -3.342 123.316  0.00  0.00    -0.251 OA
ENDBRANCH  32  33
ENDBRANCH   4  32
TORSDOF 10
ENDMDL
MODEL 9
REMARK VINA RESULT:      -6.9      3.340      7.773
REMARK  Name = NuBBE_1887
REMARK  16 active torsions:
REMARK  status: ('A' for Active; 'I' for Inactive)
REMARK    1  A    between atoms: C_4  and  O_32
REMARK    2  A    between atoms: C_6  and  O_30
REMARK    3  A    between atoms: C_10  and  C_11
REMARK    4  A    between atoms: C_14  and  O_25
REMARK    5  A    between atoms: C_15  and  O_16
REMARK    6  A    between atoms: O_16  and  C_17
REMARK    7  A    between atoms: C_17  and  C_18
REMARK    8  A    between atoms: C_20  and  O_21
REMARK    9  A    between atoms: O_21  and  C_22
REMARK   10  A    between atoms: C_22  and  C_23
REMARK   11  A    between atoms: O_25  and  C_26
REMARK   12  A    between atoms: C_27  and  O_28
REMARK   13  A    between atoms: O_28  and  C_29
REMARK   14  A    between atoms: O_30  and  C_31
REMARK   15  A    between atoms: O_32  and  C_33
REMARK   16  A    between atoms: C_33  and  C_34
REMARK                            x       y       z     vdW  Elec       q    Type
REMARK                         _______ _______ _______ _____ _____    ______ ____
ROOT
ATOM      1  O   LIG A   1      -5.951   5.158 126.994  0.00  0.00    -0.283 OA
ATOM      2  C   LIG A   1      -5.952   4.002 127.471  0.00  0.00    +0.238 A 
ATOM      3  C   LIG A   1      -6.156   3.737 128.860  0.00  0.00    +0.110 A 
ATOM      4  C   LIG A   1      -5.436   4.403 129.839  0.00  0.00    +0.149 A 
ATOM      5  C   LIG A   1      -5.537   3.946 131.133  0.00  0.00    +0.092 A 
ATOM      6  C   LIG A   1      -6.411   2.915 131.482  0.00  0.00    +0.127 A 
ATOM      7  C   LIG A   1      -7.080   2.203 130.475  0.00  0.00    +0.092 A 
ATOM      8  C   LIG A   1      -6.907   2.596 129.148  0.00  0.00    +0.147 A 
ATOM      9  O   LIG A   1      -7.381   1.834 128.092  0.00  0.00    -0.451 OA
ATOM     10  C   LIG A   1      -6.515   1.763 126.956  0.00  0.00    +0.184 A 
ATOM     11  C   LIG A   1      -5.639   2.780 126.721  0.00  0.00    +0.211 A 
ENDROOT
BRANCH  10  12
ATOM     12  C   LIG A   1      -6.583   0.463 126.209  0.00  0.00    +0.067 A 
ATOM     13  C   LIG A   1      -5.794  -0.599 126.709  0.00  0.00    +0.019 A 
ATOM     14  C   LIG A   1      -5.618  -1.809 126.024  0.00  0.00    +0.050 A 
ATOM     15  C   LIG A   1      -6.255  -2.033 124.813  0.00  0.00    +0.166 A 
ATOM     16  C   LIG A   1      -7.139  -1.050 124.325  0.00  0.00    +0.216 A 
ATOM     17  C   LIG A   1      -7.341   0.181 125.045  0.00  0.00    +0.188 A 
BRANCH  15  18
ATOM     18  O   LIG A   1      -6.037  -3.170 124.057  0.00  0.00    -0.491 OA
ATOM     19  C   LIG A   1      -4.738  -3.294 123.460  0.00  0.00    +0.277 C 
ENDBRANCH  15  18
BRANCH  16  20
ATOM     20  O   LIG A   1      -7.799  -1.352 123.089  0.00  0.00    -0.418 OA
BRANCH  20  21
ATOM     21  C   LIG A   1      -9.224  -1.622 123.033  0.00  0.00    +0.309 C 
ATOM     22  C   LIG A   1      -9.397  -3.080 123.320  0.00  0.00    +0.136 C 
ATOM     23  O   LIG A   1     -10.119  -0.907 122.648  0.00  0.00    -0.251 OA
ENDBRANCH  20  21
ENDBRANCH  16  20
BRANCH  17  24
ATOM     24  O   LIG A   1      -8.285   1.094 124.474  0.00  0.00    -0.421 OA
BRANCH  24  25
ATOM     25  C   LIG A   1      -7.970   2.378 123.963  0.00  0.00    +0.309 C 
ATOM     26  C   LIG A   1      -6.829   2.276 122.970  0.00  0.00    +0.136 C 
ATOM     27  O   LIG A   1      -8.528   3.434 124.252  0.00  0.00    -0.251 OA
ENDBRANCH  24  25
ENDBRANCH  17  24
ENDBRANCH  10  12
BRANCH  11  28
ATOM     28  O   LIG A   1      -4.481   2.669 125.988  0.00  0.00    -0.488 OA
ATOM     29  C   LIG A   1      -3.270   2.895 126.702  0.00  0.00    +0.277 C 
ENDBRANCH  11  28
BRANCH   6  30
ATOM     30  O   LIG A   1      -6.604   2.546 132.789  0.00  0.00    -0.495 OA
ATOM     31  C   LIG A   1      -7.952   2.718 133.259  0.00  0.00    +0.277 C 
ENDBRANCH   6  30
BRANCH   4  32
ATOM     32  O   LIG A   1      -4.446   5.335 129.464  0.00  0.00    -0.425 OA
BRANCH  32  33
ATOM     33  C   LIG A   1      -4.448   6.611 130.029  0.00  0.00    +0.309 C 
ATOM     34  C   LIG A   1      -3.123   6.860 130.675  0.00  0.00    +0.136 C 
ATOM     35  O   LIG A   1      -5.378   7.405 130.059  0.00  0.00    -0.251 OA
ENDBRANCH  32  33
ENDBRANCH   4  32
TORSDOF 10
ENDMDL
