MODEL 1
REMARK VINA RESULT:      -8.6      0.000      0.000
REMARK  Name = NuBBE_1468
REMARK  11 active torsions:
REMARK  status: ('A' for Active; 'I' for Inactive)
REMARK    1  A    between atoms: C_3  and  C_37
REMARK    2  A    between atoms: C_3  and  C_38
REMARK    3  A    between atoms: C_4  and  C_6
REMARK    4  A    between atoms: C_6  and  C_7
REMARK    5  A    between atoms: C_7  and  O_8
REMARK    6  A    between atoms: O_8  and  C_9
REMARK    7  A    between atoms: C_11  and  C_12
REMARK    8  A    between atoms: C_14  and  C_15
REMARK    9  A    between atoms: C_20  and  O_22
REMARK   10  A    between atoms: C_23  and  C_24
REMARK   11  A    between atoms: C_29  and  C_31
REMARK                            x       y       z     vdW  Elec       q    Type
REMARK                         _______ _______ _______ _____ _____    ______ ____
ROOT
ATOM      1  O   LIG A   1      -2.681  -2.314 130.021  0.00  0.00    -0.292 OA
ATOM      2  C   LIG A   1      -3.856  -2.032 129.794  0.00  0.00    +0.165 C 
ATOM      3  C   LIG A   1      -4.661  -1.059 130.674  0.00  0.00    +0.032 C 
ATOM      4  C   LIG A   1      -6.144  -1.574 130.828  0.00  0.00    +0.030 C 
ATOM      5  C   LIG A   1      -6.808  -2.158 129.480  0.00  0.00    +0.054 C 
ATOM      6  C   LIG A   1      -7.608  -3.465 129.741  0.00  0.00    +0.024 C 
ATOM      7  C   LIG A   1      -7.606  -1.180 128.584  0.00  0.00    -0.011 C 
ATOM      8  C   LIG A   1      -7.654  -1.808 127.181  0.00  0.00    +0.152 C 
ATOM      9  C   LIG A   1      -8.860  -2.776 127.024  0.00  0.00    +0.066 C 
ATOM     10  O   LIG A   1      -6.396  -2.546 127.106  0.00  0.00    -0.480 OA
ATOM     11  C   LIG A   1      -5.804  -2.510 128.398  0.00  0.00    +0.113 C 
ATOM     12  C   LIG A   1      -4.475  -2.523 128.537  0.00  0.00    +0.088 C 
ATOM     13  C   LIG A   1      -7.774   0.142 128.801  0.00  0.00    +0.009 C 
ATOM     14  C   LIG A   1      -7.746   1.159 127.675  0.00  0.00    +0.151 C 
ATOM     15  C   LIG A   1      -7.108   0.635 126.339  0.00  0.00    +0.064 C 
ATOM     16  C   LIG A   1      -5.574   0.450 126.442  0.00  0.00    +0.023 C 
ATOM     17  C   LIG A   1      -7.766  -0.722 126.064  0.00  0.00    -0.004 C 
ATOM     18  C   LIG A   1      -8.604  -0.823 125.008  0.00  0.00    +0.096 C 
ATOM     19  C   LIG A   1      -9.088   0.328 124.212  0.00  0.00    +0.333 C 
ATOM     20  O   LIG A   1      -8.652   1.543 124.607  0.00  0.00    -0.452 OA
ATOM     21  C   LIG A   1      -7.311   1.573 125.102  0.00  0.00    +0.223 C 
ATOM     22  O   LIG A   1      -9.947   0.169 123.355  0.00  0.00    -0.246 OA
ATOM     23  C   LIG A   1      -4.619   0.340 130.023  0.00  0.00    +0.019 C 
ATOM     24  C   LIG A   1      -3.926  -0.849 132.023  0.00  0.00    +0.019 C 
ENDROOT
BRANCH  21  25
ATOM     25  C   LIG A   1      -6.832   2.992 125.269  0.00  0.00    +0.031 A 
ATOM     26  C   LIG A   1      -7.630   4.100 125.495  0.00  0.00    +0.202 A 
ATOM     27  O   LIG A   1      -6.888   5.230 125.579  0.00  0.00    -0.471 OA
ATOM     28  C   LIG A   1      -5.592   4.860 125.439  0.00  0.00    +0.195 A 
ATOM     29  C   LIG A   1      -5.500   3.498 125.267  0.00  0.00    +0.048 A 
ENDBRANCH  21  25
BRANCH  14  30
ATOM     30  O   LIG A   1      -9.073   1.637 127.519  0.00  0.00    -0.387 OA
ATOM     31  H   LIG A   1      -9.118   2.543 127.867  0.00  0.00    +0.210 HD
ENDBRANCH  14  30
BRANCH   4  32
ATOM     32  C   LIG A   1      -6.332  -2.445 132.105  0.00  0.00    +0.126 C 
BRANCH  32  33
ATOM     33  C   LIG A   1      -7.249  -1.916 133.189  0.00  0.00    +0.307 C 
ATOM     34  O   LIG A   1      -7.080  -0.863 133.819  0.00  0.00    -0.251 OA
BRANCH  33  35
ATOM     35  O   LIG A   1      -8.195  -2.852 133.454  0.00  0.00    -0.468 OA
ATOM     36  C   LIG A   1      -8.163  -3.381 134.782  0.00  0.00    +0.280 C 
ENDBRANCH  33  35
ENDBRANCH  32  33
ENDBRANCH   4  32
TORSDOF 5
ENDMDL
MODEL 2
REMARK VINA RESULT:      -8.0      2.059      7.450
REMARK  Name = NuBBE_1468
REMARK  11 active torsions:
REMARK  status: ('A' for Active; 'I' for Inactive)
REMARK    1  A    between atoms: C_3  and  C_37
REMARK    2  A    between atoms: C_3  and  C_38
REMARK    3  A    between atoms: C_4  and  C_6
REMARK    4  A    between atoms: C_6  and  C_7
REMARK    5  A    between atoms: C_7  and  O_8
REMARK    6  A    between atoms: O_8  and  C_9
REMARK    7  A    between atoms: C_11  and  C_12
REMARK    8  A    between atoms: C_14  and  C_15
REMARK    9  A    between atoms: C_20  and  O_22
REMARK   10  A    between atoms: C_23  and  C_24
REMARK   11  A    between atoms: C_29  and  C_31
REMARK                            x       y       z     vdW  Elec       q    Type
REMARK                         _______ _______ _______ _____ _____    ______ ____
ROOT
ATOM      1  O   LIG A   1      -6.719  -3.878 123.988  0.00  0.00    -0.292 OA
ATOM      2  C   LIG A   1      -6.889  -2.825 124.599  0.00  0.00    +0.165 C 
ATOM      3  C   LIG A   1      -8.284  -2.320 125.011  0.00  0.00    +0.032 C 
ATOM      4  C   LIG A   1      -8.360  -0.753 124.846  0.00  0.00    +0.030 C 
ATOM      5  C   LIG A   1      -7.050   0.050 125.334  0.00  0.00    +0.054 C 
ATOM      6  C   LIG A   1      -6.651   1.177 124.341  0.00  0.00    +0.024 C 
ATOM      7  C   LIG A   1      -7.015   0.551 126.798  0.00  0.00    -0.011 C 
ATOM      8  C   LIG A   1      -5.535   0.774 127.150  0.00  0.00    +0.152 C 
ATOM      9  C   LIG A   1      -5.057   2.200 126.757  0.00  0.00    +0.066 C 
ATOM     10  O   LIG A   1      -4.848  -0.232 126.346  0.00  0.00    -0.480 OA
ATOM     11  C   LIG A   1      -5.813  -0.816 125.481  0.00  0.00    +0.113 C 
ATOM     12  C   LIG A   1      -5.699  -2.091 125.097  0.00  0.00    +0.088 C 
ATOM     13  C   LIG A   1      -7.968   0.350 127.732  0.00  0.00    +0.009 C 
ATOM     14  C   LIG A   1      -7.633   0.048 129.182  0.00  0.00    +0.151 C 
ATOM     15  C   LIG A   1      -6.153  -0.418 129.424  0.00  0.00    +0.064 C 
ATOM     16  C   LIG A   1      -5.878  -1.843 128.884  0.00  0.00    +0.023 C 
ATOM     17  C   LIG A   1      -5.269   0.588 128.679  0.00  0.00    -0.004 C 
ATOM     18  C   LIG A   1      -4.497   1.425 129.409  0.00  0.00    +0.096 C 
ATOM     19  C   LIG A   1      -4.589   1.577 130.878  0.00  0.00    +0.333 C 
ATOM     20  O   LIG A   1      -5.526   0.824 131.492  0.00  0.00    -0.452 OA
ATOM     21  C   LIG A   1      -5.722  -0.475 130.928  0.00  0.00    +0.223 C 
ATOM     22  O   LIG A   1      -3.949   2.450 131.450  0.00  0.00    -0.246 OA
ATOM     23  C   LIG A   1      -8.547  -2.742 126.472  0.00  0.00    +0.019 C 
ATOM     24  C   LIG A   1      -9.371  -3.089 124.215  0.00  0.00    +0.019 C 
ENDROOT
BRANCH  21  25
ATOM     25  C   LIG A   1      -6.583  -1.326 131.826  0.00  0.00    +0.031 A 
ATOM     26  C   LIG A   1      -7.588  -0.869 132.662  0.00  0.00    +0.202 A 
ATOM     27  O   LIG A   1      -8.157  -1.890 133.348  0.00  0.00    -0.471 OA
ATOM     28  C   LIG A   1      -7.545  -3.027 132.937  0.00  0.00    +0.195 A 
ATOM     29  C   LIG A   1      -6.588  -2.742 131.991  0.00  0.00    +0.048 A 
ENDBRANCH  21  25
BRANCH  14  30
ATOM     30  O   LIG A   1      -7.997   1.194 129.936  0.00  0.00    -0.387 OA
ATOM     31  H   LIG A   1      -7.578   1.973 129.534  0.00  0.00    +0.210 HD
ENDBRANCH  14  30
BRANCH   4  32
ATOM     32  C   LIG A   1      -8.926  -0.338 123.456  0.00  0.00    +0.126 C 
BRANCH  32  33
ATOM     33  C   LIG A   1      -9.905   0.819 123.411  0.00  0.00    +0.307 C 
ATOM     34  O   LIG A   1     -10.780   1.048 124.257  0.00  0.00    -0.251 OA
BRANCH  33  35
ATOM     35  O   LIG A   1      -9.761   1.465 122.227  0.00  0.00    -0.468 OA
ATOM     36  C   LIG A   1      -8.994   2.671 122.289  0.00  0.00    +0.280 C 
ENDBRANCH  33  35
ENDBRANCH  32  33
ENDBRANCH   4  32
TORSDOF 5
ENDMDL
MODEL 3
REMARK VINA RESULT:      -7.9      3.221      6.099
REMARK  Name = NuBBE_1468
REMARK  11 active torsions:
REMARK  status: ('A' for Active; 'I' for Inactive)
REMARK    1  A    between atoms: C_3  and  C_37
REMARK    2  A    between atoms: C_3  and  C_38
REMARK    3  A    between atoms: C_4  and  C_6
REMARK    4  A    between atoms: C_6  and  C_7
REMARK    5  A    between atoms: C_7  and  O_8
REMARK    6  A    between atoms: O_8  and  C_9
REMARK    7  A    between atoms: C_11  and  C_12
REMARK    8  A    between atoms: C_14  and  C_15
REMARK    9  A    between atoms: C_20  and  O_22
REMARK   10  A    between atoms: C_23  and  C_24
REMARK   11  A    between atoms: C_29  and  C_31
REMARK                            x       y       z     vdW  Elec       q    Type
REMARK                         _______ _______ _______ _____ _____    ______ ____
ROOT
ATOM      1  O   LIG A   1      -5.913  -3.782 129.980  0.00  0.00    -0.292 OA
ATOM      2  C   LIG A   1      -6.198  -2.730 129.409  0.00  0.00    +0.165 C 
ATOM      3  C   LIG A   1      -7.634  -2.385 128.974  0.00  0.00    +0.032 C 
ATOM      4  C   LIG A   1      -7.611  -1.650 127.578  0.00  0.00    +0.030 C 
ATOM      5  C   LIG A   1      -6.444  -0.552 127.403  0.00  0.00    +0.054 C 
ATOM      6  C   LIG A   1      -5.765  -0.638 126.008  0.00  0.00    +0.024 C 
ATOM      7  C   LIG A   1      -6.768   0.913 127.781  0.00  0.00    -0.011 C 
ATOM      8  C   LIG A   1      -5.421   1.608 128.041  0.00  0.00    +0.152 C 
ATOM      9  C   LIG A   1      -4.810   2.188 126.735  0.00  0.00    +0.066 C 
ATOM     10  O   LIG A   1      -4.586   0.528 128.558  0.00  0.00    -0.480 OA
ATOM     11  C   LIG A   1      -5.317  -0.682 128.409  0.00  0.00    +0.113 C 
ATOM     12  C   LIG A   1      -5.151  -1.687 129.276  0.00  0.00    +0.088 C 
ATOM     13  C   LIG A   1      -7.936   1.366 128.285  0.00  0.00    +0.009 C 
ATOM     14  C   LIG A   1      -7.995   2.425 129.371  0.00  0.00    +0.151 C 
ATOM     15  C   LIG A   1      -6.643   2.644 130.141  0.00  0.00    +0.064 C 
ATOM     16  C   LIG A   1      -6.288   1.461 131.074  0.00  0.00    +0.023 C 
ATOM     17  C   LIG A   1      -5.564   2.783 129.062  0.00  0.00    -0.004 C 
ATOM     18  C   LIG A   1      -4.977   3.990 128.896  0.00  0.00    +0.096 C 
ATOM     19  C   LIG A   1      -5.438   5.238 129.544  0.00  0.00    +0.333 C 
ATOM     20  O   LIG A   1      -6.526   5.126 130.334  0.00  0.00    -0.452 OA
ATOM     21  C   LIG A   1      -6.615   3.904 131.071  0.00  0.00    +0.223 C 
ATOM     22  O   LIG A   1      -4.936   6.313 129.240  0.00  0.00    -0.246 OA
ATOM     23  C   LIG A   1      -8.278  -1.500 130.062  0.00  0.00    +0.019 C 
ATOM     24  C   LIG A   1      -8.506  -3.668 128.994  0.00  0.00    +0.019 C 
ENDROOT
BRANCH  21  25
ATOM     25  C   LIG A   1      -7.707   3.979 132.107  0.00  0.00    +0.031 A 
ATOM     26  C   LIG A   1      -8.868   4.727 132.013  0.00  0.00    +0.202 A 
ATOM     27  O   LIG A   1      -9.631   4.589 133.124  0.00  0.00    -0.471 OA
ATOM     28  C   LIG A   1      -8.983   3.721 133.939  0.00  0.00    +0.195 A 
ATOM     29  C   LIG A   1      -7.810   3.302 133.357  0.00  0.00    +0.048 A 
ENDBRANCH  21  25
BRANCH  14  30
ATOM     30  O   LIG A   1      -8.500   3.606 128.768  0.00  0.00    -0.387 OA
ATOM     31  H   LIG A   1      -9.435   3.463 128.545  0.00  0.00    +0.210 HD
ENDBRANCH  14  30
BRANCH   4  32
ATOM     32  C   LIG A   1      -7.787  -2.642 126.391  0.00  0.00    +0.126 C 
BRANCH  32  33
ATOM     33  C   LIG A   1      -8.991  -2.456 125.489  0.00  0.00    +0.307 C 
ATOM     34  O   LIG A   1      -9.840  -1.561 125.605  0.00  0.00    -0.251 OA
BRANCH  33  35
ATOM     35  O   LIG A   1      -9.064  -3.509 124.637  0.00  0.00    -0.468 OA
ATOM     36  C   LIG A   1      -9.524  -3.189 123.322  0.00  0.00    +0.280 C 
ENDBRANCH  33  35
ENDBRANCH  32  33
ENDBRANCH   4  32
TORSDOF 5
ENDMDL
MODEL 4
REMARK VINA RESULT:      -7.9      2.616      6.885
REMARK  Name = NuBBE_1468
REMARK  11 active torsions:
REMARK  status: ('A' for Active; 'I' for Inactive)
REMARK    1  A    between atoms: C_3  and  C_37
REMARK    2  A    between atoms: C_3  and  C_38
REMARK    3  A    between atoms: C_4  and  C_6
REMARK    4  A    between atoms: C_6  and  C_7
REMARK    5  A    between atoms: C_7  and  O_8
REMARK    6  A    between atoms: O_8  and  C_9
REMARK    7  A    between atoms: C_11  and  C_12
REMARK    8  A    between atoms: C_14  and  C_15
REMARK    9  A    between atoms: C_20  and  O_22
REMARK   10  A    between atoms: C_23  and  C_24
REMARK   11  A    between atoms: C_29  and  C_31
REMARK                            x       y       z     vdW  Elec       q    Type
REMARK                         _______ _______ _______ _____ _____    ______ ____
ROOT
ATOM      1  O   LIG A   1      -7.596   5.145 130.990  0.00  0.00    -0.292 OA
ATOM      2  C   LIG A   1      -7.178   4.361 130.140  0.00  0.00    +0.165 C 
ATOM      3  C   LIG A   1      -5.700   3.936 130.059  0.00  0.00    +0.032 C 
ATOM      4  C   LIG A   1      -5.257   3.815 128.549  0.00  0.00    +0.030 C 
ATOM      5  C   LIG A   1      -6.337   3.120 127.574  0.00  0.00    +0.054 C 
ATOM      6  C   LIG A   1      -6.466   3.868 126.218  0.00  0.00    +0.024 C 
ATOM      7  C   LIG A   1      -6.242   1.590 127.366  0.00  0.00    -0.011 C 
ATOM      8  C   LIG A   1      -7.625   1.126 126.879  0.00  0.00    +0.152 C 
ATOM      9  C   LIG A   1      -7.755   1.226 125.334  0.00  0.00    +0.066 C 
ATOM     10  O   LIG A   1      -8.536   2.064 127.528  0.00  0.00    -0.480 OA
ATOM     11  C   LIG A   1      -7.742   3.071 128.143  0.00  0.00    +0.113 C 
ATOM     12  C   LIG A   1      -8.157   3.675 129.261  0.00  0.00    +0.088 C 
ATOM     13  C   LIG A   1      -5.356   0.759 127.956  0.00  0.00    +0.009 C 
ATOM     14  C   LIG A   1      -5.742  -0.626 128.443  0.00  0.00    +0.151 C 
ATOM     15  C   LIG A   1      -7.288  -0.856 128.592  0.00  0.00    +0.064 C 
ATOM     16  C   LIG A   1      -7.896  -0.079 129.786  0.00  0.00    +0.023 C 
ATOM     17  C   LIG A   1      -7.915  -0.354 127.287  0.00  0.00    -0.004 C 
ATOM     18  C   LIG A   1      -8.462  -1.264 126.449  0.00  0.00    +0.096 C 
ATOM     19  C   LIG A   1      -8.326  -2.730 126.605  0.00  0.00    +0.333 C 
ATOM     20  O   LIG A   1      -7.589  -3.146 127.656  0.00  0.00    -0.452 OA
ATOM     21  C   LIG A   1      -7.710  -2.344 128.834  0.00  0.00    +0.223 C 
ATOM     22  O   LIG A   1      -8.738  -3.485 125.733  0.00  0.00    -0.246 OA
ATOM     23  C   LIG A   1      -5.533   2.593 130.800  0.00  0.00    +0.019 C 
ATOM     24  C   LIG A   1      -4.832   4.915 130.891  0.00  0.00    +0.019 C 
ENDROOT
BRANCH  21  25
ATOM     25  C   LIG A   1      -7.067  -3.025 130.016  0.00  0.00    +0.031 A 
ATOM     26  C   LIG A   1      -7.443  -2.885 131.340  0.00  0.00    +0.202 A 
ATOM     27  O   LIG A   1      -6.648  -3.618 132.156  0.00  0.00    -0.471 OA
ATOM     28  C   LIG A   1      -5.765  -4.269 131.360  0.00  0.00    +0.195 A 
ATOM     29  C   LIG A   1      -5.990  -3.958 130.040  0.00  0.00    +0.048 A 
ENDBRANCH  21  25
BRANCH  14  30
ATOM     30  O   LIG A   1      -5.112  -1.557 127.577  0.00  0.00    -0.387 OA
ATOM     31  H   LIG A   1      -4.305  -1.151 127.222  0.00  0.00    +0.210 HD
ENDBRANCH  14  30
BRANCH   4  32
ATOM     32  C   LIG A   1      -4.619   5.133 128.019  0.00  0.00    +0.126 C 
BRANCH  32  33
ATOM     33  C   LIG A   1      -3.150   5.105 127.649  0.00  0.00    +0.307 C 
ATOM     34  O   LIG A   1      -2.290   5.889 128.075  0.00  0.00    -0.251 OA
BRANCH  33  35
ATOM     35  O   LIG A   1      -2.965   4.183 126.671  0.00  0.00    -0.468 OA
ATOM     36  C   LIG A   1      -1.904   3.255 126.911  0.00  0.00    +0.280 C 
ENDBRANCH  33  35
ENDBRANCH  32  33
ENDBRANCH   4  32
TORSDOF 5
ENDMDL
MODEL 5
REMARK VINA RESULT:      -7.8      2.908      3.768
REMARK  Name = NuBBE_1468
REMARK  11 active torsions:
REMARK  status: ('A' for Active; 'I' for Inactive)
REMARK    1  A    between atoms: C_3  and  C_37
REMARK    2  A    between atoms: C_3  and  C_38
REMARK    3  A    between atoms: C_4  and  C_6
REMARK    4  A    between atoms: C_6  and  C_7
REMARK    5  A    between atoms: C_7  and  O_8
REMARK    6  A    between atoms: O_8  and  C_9
REMARK    7  A    between atoms: C_11  and  C_12
REMARK    8  A    between atoms: C_14  and  C_15
REMARK    9  A    between atoms: C_20  and  O_22
REMARK   10  A    between atoms: C_23  and  C_24
REMARK   11  A    between atoms: C_29  and  C_31
REMARK                            x       y       z     vdW  Elec       q    Type
REMARK                         _______ _______ _______ _____ _____    ______ ____
ROOT
ATOM      1  O   LIG A   1      -4.008   3.473 130.376  0.00  0.00    -0.292 OA
ATOM      2  C   LIG A   1      -4.977   2.821 129.992  0.00  0.00    +0.165 C 
ATOM      3  C   LIG A   1      -6.405   3.397 129.962  0.00  0.00    +0.032 C 
ATOM      4  C   LIG A   1      -7.442   2.288 130.392  0.00  0.00    +0.030 C 
ATOM      5  C   LIG A   1      -7.165   0.821 129.782  0.00  0.00    +0.054 C 
ATOM      6  C   LIG A   1      -7.360  -0.299 130.842  0.00  0.00    +0.024 C 
ATOM      7  C   LIG A   1      -7.850   0.454 128.444  0.00  0.00    -0.011 C 
ATOM      8  C   LIG A   1      -7.037  -0.702 127.837  0.00  0.00    +0.152 C 
ATOM      9  C   LIG A   1      -7.529  -2.084 128.351  0.00  0.00    +0.066 C 
ATOM     10  O   LIG A   1      -5.681  -0.437 128.309  0.00  0.00    -0.480 OA
ATOM     11  C   LIG A   1      -5.759   0.628 129.247  0.00  0.00    +0.113 C 
ATOM     12  C   LIG A   1      -4.743   1.486 129.387  0.00  0.00    +0.088 C 
ATOM     13  C   LIG A   1      -8.638   1.263 127.705  0.00  0.00    +0.009 C 
ATOM     14  C   LIG A   1      -8.580   1.287 126.187  0.00  0.00    +0.151 C 
ATOM     15  C   LIG A   1      -7.288   0.637 125.575  0.00  0.00    +0.064 C 
ATOM     16  C   LIG A   1      -6.020   1.494 125.808  0.00  0.00    +0.023 C 
ATOM     17  C   LIG A   1      -7.125  -0.715 126.277  0.00  0.00    -0.004 C 
ATOM     18  C   LIG A   1      -7.316  -1.840 125.551  0.00  0.00    +0.096 C 
ATOM     19  C   LIG A   1      -7.864  -1.863 124.176  0.00  0.00    +0.333 C 
ATOM     20  O   LIG A   1      -8.196  -0.664 123.653  0.00  0.00    -0.452 OA
ATOM     21  C   LIG A   1      -7.337   0.417 124.025  0.00  0.00    +0.223 C 
ATOM     22  O   LIG A   1      -8.129  -2.929 123.635  0.00  0.00    -0.246 OA
ATOM     23  C   LIG A   1      -6.696   3.913 128.536  0.00  0.00    +0.019 C 
ATOM     24  C   LIG A   1      -6.466   4.682 130.827  0.00  0.00    +0.019 C 
ENDROOT
BRANCH  21  25
ATOM     25  C   LIG A   1      -7.625   1.642 123.197  0.00  0.00    +0.031 A 
ATOM     26  C   LIG A   1      -8.879   2.148 122.900  0.00  0.00    +0.202 A 
ATOM     27  O   LIG A   1      -8.791   3.250 122.117  0.00  0.00    -0.471 OA
ATOM     28  C   LIG A   1      -7.471   3.489 121.925  0.00  0.00    +0.195 A 
ATOM     29  C   LIG A   1      -6.713   2.547 122.581  0.00  0.00    +0.048 A 
ENDBRANCH  21  25
BRANCH  14  30
ATOM     30  O   LIG A   1      -9.785   0.700 125.720  0.00  0.00    -0.387 OA
ATOM     31  H   LIG A   1     -10.073   1.177 124.925  0.00  0.00    +0.210 HD
ENDBRANCH  14  30
BRANCH   4  32
ATOM     32  C   LIG A   1      -7.753   2.337 131.917  0.00  0.00    +0.126 C 
BRANCH  32  33
ATOM     33  C   LIG A   1      -9.202   2.491 132.335  0.00  0.00    +0.307 C 
ATOM     34  O   LIG A   1     -10.116   1.703 132.054  0.00  0.00    -0.251 OA
BRANCH  33  35
ATOM     35  O   LIG A   1      -9.355   3.699 132.934  0.00  0.00    -0.468 OA
ATOM     36  C   LIG A   1      -8.596   3.877 134.132  0.00  0.00    +0.280 C 
ENDBRANCH  33  35
ENDBRANCH  32  33
ENDBRANCH   4  32
TORSDOF 5
ENDMDL
MODEL 6
REMARK VINA RESULT:      -7.8      2.994      6.868
REMARK  Name = NuBBE_1468
REMARK  11 active torsions:
REMARK  status: ('A' for Active; 'I' for Inactive)
REMARK    1  A    between atoms: C_3  and  C_37
REMARK    2  A    between atoms: C_3  and  C_38
REMARK    3  A    between atoms: C_4  and  C_6
REMARK    4  A    between atoms: C_6  and  C_7
REMARK    5  A    between atoms: C_7  and  O_8
REMARK    6  A    between atoms: O_8  and  C_9
REMARK    7  A    between atoms: C_11  and  C_12
REMARK    8  A    between atoms: C_14  and  C_15
REMARK    9  A    between atoms: C_20  and  O_22
REMARK   10  A    between atoms: C_23  and  C_24
REMARK   11  A    between atoms: C_29  and  C_31
REMARK                            x       y       z     vdW  Elec       q    Type
REMARK                         _______ _______ _______ _____ _____    ______ ____
ROOT
ATOM      1  O   LIG A   1      -7.871   5.410 129.836  0.00  0.00    -0.292 OA
ATOM      2  C   LIG A   1      -7.374   4.736 128.935  0.00  0.00    +0.165 C 
ATOM      3  C   LIG A   1      -6.019   4.019 129.086  0.00  0.00    +0.032 C 
ATOM      4  C   LIG A   1      -5.213   4.104 127.733  0.00  0.00    +0.030 C 
ATOM      5  C   LIG A   1      -6.089   3.872 126.399  0.00  0.00    +0.054 C 
ATOM      6  C   LIG A   1      -5.723   4.882 125.276  0.00  0.00    +0.024 C 
ATOM      7  C   LIG A   1      -6.194   2.431 125.846  0.00  0.00    -0.011 C 
ATOM      8  C   LIG A   1      -7.452   2.390 124.961  0.00  0.00    +0.152 C 
ATOM      9  C   LIG A   1      -7.143   2.820 123.500  0.00  0.00    +0.066 C 
ATOM     10  O   LIG A   1      -8.337   3.360 125.601  0.00  0.00    -0.480 OA
ATOM     11  C   LIG A   1      -7.583   4.024 126.607  0.00  0.00    +0.113 C 
ATOM     12  C   LIG A   1      -8.179   4.472 127.717  0.00  0.00    +0.088 C 
ATOM     13  C   LIG A   1      -5.649   1.325 126.396  0.00  0.00    +0.009 C 
ATOM     14  C   LIG A   1      -6.375  -0.009 126.426  0.00  0.00    +0.151 C 
ATOM     15  C   LIG A   1      -7.920   0.085 126.162  0.00  0.00    +0.064 C 
ATOM     16  C   LIG A   1      -8.690   0.726 127.343  0.00  0.00    +0.023 C 
ATOM     17  C   LIG A   1      -8.080   0.961 124.915  0.00  0.00    -0.004 C 
ATOM     18  C   LIG A   1      -8.523   0.378 123.778  0.00  0.00    +0.096 C 
ATOM     19  C   LIG A   1      -8.677  -1.083 123.593  0.00  0.00    +0.333 C 
ATOM     20  O   LIG A   1      -8.329  -1.851 124.647  0.00  0.00    -0.452 OA
ATOM     21  C   LIG A   1      -8.630  -1.291 125.928  0.00  0.00    +0.223 C 
ATOM     22  O   LIG A   1      -8.957  -1.540 122.492  0.00  0.00    -0.246 OA
ATOM     23  C   LIG A   1      -6.282   2.553 129.490  0.00  0.00    +0.019 C 
ATOM     24  C   LIG A   1      -5.259   4.598 130.307  0.00  0.00    +0.019 C 
ENDROOT
BRANCH  21  25
ATOM     25  C   LIG A   1      -8.450  -2.317 127.018  0.00  0.00    +0.031 A 
ATOM     26  C   LIG A   1      -8.935  -3.613 127.004  0.00  0.00    +0.202 A 
ATOM     27  O   LIG A   1      -8.615  -4.268 128.146  0.00  0.00    -0.471 OA
ATOM     28  C   LIG A   1      -7.888  -3.409 128.900  0.00  0.00    +0.195 A 
ATOM     29  C   LIG A   1      -7.739  -2.207 128.248  0.00  0.00    +0.048 A 
ENDBRANCH  21  25
BRANCH  14  30
ATOM     30  O   LIG A   1      -5.697  -0.867 125.521  0.00  0.00    -0.387 OA
ATOM     31  H   LIG A   1      -6.186  -1.704 125.465  0.00  0.00    +0.210 HD
ENDBRANCH  14  30
BRANCH   4  32
ATOM     32  C   LIG A   1      -4.248   5.326 127.701  0.00  0.00    +0.126 C 
BRANCH  32  33
ATOM     33  C   LIG A   1      -2.758   5.047 127.716  0.00  0.00    +0.307 C 
ATOM     34  O   LIG A   1      -2.227   3.976 127.390  0.00  0.00    -0.251 OA
BRANCH  33  35
ATOM     35  O   LIG A   1      -2.123   6.105 128.281  0.00  0.00    -0.468 OA
ATOM     36  C   LIG A   1      -2.981   7.169 128.699  0.00  0.00    +0.280 C 
ENDBRANCH  33  35
ENDBRANCH  32  33
ENDBRANCH   4  32
TORSDOF 5
ENDMDL
MODEL 7
REMARK VINA RESULT:      -7.8      4.578      7.107
REMARK  Name = NuBBE_1468
REMARK  11 active torsions:
REMARK  status: ('A' for Active; 'I' for Inactive)
REMARK    1  A    between atoms: C_3  and  C_37
REMARK    2  A    between atoms: C_3  and  C_38
REMARK    3  A    between atoms: C_4  and  C_6
REMARK    4  A    between atoms: C_6  and  C_7
REMARK    5  A    between atoms: C_7  and  O_8
REMARK    6  A    between atoms: O_8  and  C_9
REMARK    7  A    between atoms: C_11  and  C_12
REMARK    8  A    between atoms: C_14  and  C_15
REMARK    9  A    between atoms: C_20  and  O_22
REMARK   10  A    between atoms: C_23  and  C_24
REMARK   11  A    between atoms: C_29  and  C_31
REMARK                            x       y       z     vdW  Elec       q    Type
REMARK                         _______ _______ _______ _____ _____    ______ ____
ROOT
ATOM      1  O   LIG A   1      -9.181   6.710 131.806  0.00  0.00    -0.292 OA
ATOM      2  C   LIG A   1      -8.126   6.088 131.698  0.00  0.00    +0.165 C 
ATOM      3  C   LIG A   1      -7.907   4.707 132.343  0.00  0.00    +0.032 C 
ATOM      4  C   LIG A   1      -6.433   4.600 132.897  0.00  0.00    +0.030 C 
ATOM      5  C   LIG A   1      -5.295   5.216 131.935  0.00  0.00    +0.054 C 
ATOM      6  C   LIG A   1      -4.243   6.041 132.728  0.00  0.00    +0.024 C 
ATOM      7  C   LIG A   1      -4.615   4.266 130.921  0.00  0.00    -0.011 C 
ATOM      8  C   LIG A   1      -4.015   5.156 129.819  0.00  0.00    +0.152 C 
ATOM      9  C   LIG A   1      -2.580   5.632 130.181  0.00  0.00    +0.066 C 
ATOM     10  O   LIG A   1      -4.932   6.291 129.776  0.00  0.00    -0.480 OA
ATOM     11  C   LIG A   1      -5.827   6.157 130.871  0.00  0.00    +0.113 C 
ATOM     12  C   LIG A   1      -7.081   6.613 130.784  0.00  0.00    +0.088 C 
ATOM     13  C   LIG A   1      -4.909   2.962 130.730  0.00  0.00    +0.009 C 
ATOM     14  C   LIG A   1      -4.937   2.330 129.350  0.00  0.00    +0.151 C 
ATOM     15  C   LIG A   1      -5.016   3.357 128.165  0.00  0.00    +0.064 C 
ATOM     16  C   LIG A   1      -6.396   4.050 128.065  0.00  0.00    +0.023 C 
ATOM     17  C   LIG A   1      -3.938   4.408 128.450  0.00  0.00    -0.004 C 
ATOM     18  C   LIG A   1      -2.860   4.455 127.634  0.00  0.00    +0.096 C 
ATOM     19  C   LIG A   1      -2.545   3.438 126.606  0.00  0.00    +0.333 C 
ATOM     20  O   LIG A   1      -3.408   2.404 126.516  0.00  0.00    -0.452 OA
ATOM     21  C   LIG A   1      -4.779   2.739 126.745  0.00  0.00    +0.223 C 
ATOM     22  O   LIG A   1      -1.483   3.481 126.000  0.00  0.00    -0.246 OA
ATOM     23  C   LIG A   1      -8.187   3.621 131.284  0.00  0.00    +0.019 C 
ATOM     24  C   LIG A   1      -9.000   4.455 133.414  0.00  0.00    +0.019 C 
ENDROOT
BRANCH  21  25
ATOM     25  C   LIG A   1      -5.683   1.593 126.370  0.00  0.00    +0.031 A 
ATOM     26  C   LIG A   1      -6.948   1.700 125.820  0.00  0.00    +0.202 A 
ATOM     27  O   LIG A   1      -7.501   0.479 125.619  0.00  0.00    -0.471 OA
ATOM     28  C   LIG A   1      -6.580  -0.436 126.009  0.00  0.00    +0.195 A 
ATOM     29  C   LIG A   1      -5.441   0.191 126.458  0.00  0.00    +0.048 A 
ENDBRANCH  21  25
BRANCH  14  30
ATOM     30  O   LIG A   1      -3.818   1.460 129.273  0.00  0.00    -0.387 OA
ATOM     31  H   LIG A   1      -3.301   1.550 130.090  0.00  0.00    +0.210 HD
ENDBRANCH  14  30
BRANCH   4  32
ATOM     32  C   LIG A   1      -6.341   5.007 134.397  0.00  0.00    +0.126 C 
BRANCH  32  33
ATOM     33  C   LIG A   1      -5.753   3.999 135.365  0.00  0.00    +0.307 C 
ATOM     34  O   LIG A   1      -5.655   4.156 136.590  0.00  0.00    -0.251 OA
BRANCH  33  35
ATOM     35  O   LIG A   1      -5.224   2.971 134.655  0.00  0.00    -0.468 OA
ATOM     36  C   LIG A   1      -3.813   2.797 134.808  0.00  0.00    +0.280 C 
ENDBRANCH  33  35
ENDBRANCH  32  33
ENDBRANCH   4  32
TORSDOF 5
ENDMDL
MODEL 8
REMARK VINA RESULT:      -7.5      2.170      2.665
REMARK  Name = NuBBE_1468
REMARK  11 active torsions:
REMARK  status: ('A' for Active; 'I' for Inactive)
REMARK    1  A    between atoms: C_3  and  C_37
REMARK    2  A    between atoms: C_3  and  C_38
REMARK    3  A    between atoms: C_4  and  C_6
REMARK    4  A    between atoms: C_6  and  C_7
REMARK    5  A    between atoms: C_7  and  O_8
REMARK    6  A    between atoms: O_8  and  C_9
REMARK    7  A    between atoms: C_11  and  C_12
REMARK    8  A    between atoms: C_14  and  C_15
REMARK    9  A    between atoms: C_20  and  O_22
REMARK   10  A    between atoms: C_23  and  C_24
REMARK   11  A    between atoms: C_29  and  C_31
REMARK                            x       y       z     vdW  Elec       q    Type
REMARK                         _______ _______ _______ _____ _____    ______ ____
ROOT
ATOM      1  O   LIG A   1      -3.319  -0.301 130.048  0.00  0.00    -0.292 OA
ATOM      2  C   LIG A   1      -4.489  -0.459 129.702  0.00  0.00    +0.165 C 
ATOM      3  C   LIG A   1      -5.582   0.592 129.971  0.00  0.00    +0.032 C 
ATOM      4  C   LIG A   1      -6.934  -0.125 130.353  0.00  0.00    +0.030 C 
ATOM      5  C   LIG A   1      -7.287  -1.431 129.475  0.00  0.00    +0.054 C 
ATOM      6  C   LIG A   1      -7.828  -2.596 130.351  0.00  0.00    +0.024 C 
ATOM      7  C   LIG A   1      -8.150  -1.236 128.205  0.00  0.00    -0.011 C 
ATOM      8  C   LIG A   1      -7.890  -2.455 127.305  0.00  0.00    +0.152 C 
ATOM      9  C   LIG A   1      -8.841  -3.636 127.646  0.00  0.00    +0.066 C 
ATOM     10  O   LIG A   1      -6.508  -2.808 127.618  0.00  0.00    -0.480 OA
ATOM     11  C   LIG A   1      -6.105  -2.008 128.721  0.00  0.00    +0.113 C 
ATOM     12  C   LIG A   1      -4.829  -1.630 128.856  0.00  0.00    +0.088 C 
ATOM     13  C   LIG A   1      -8.613  -0.060 127.730  0.00  0.00    +0.009 C 
ATOM     14  C   LIG A   1      -8.654   0.256 126.245  0.00  0.00    +0.151 C 
ATOM     15  C   LIG A   1      -7.757  -0.678 125.356  0.00  0.00    +0.064 C 
ATOM     16  C   LIG A   1      -6.244  -0.413 125.547  0.00  0.00    +0.023 C 
ATOM     17  C   LIG A   1      -8.082  -2.111 125.793  0.00  0.00    -0.004 C 
ATOM     18  C   LIG A   1      -8.740  -2.911 124.924  0.00  0.00    +0.096 C 
ATOM     19  C   LIG A   1      -9.347  -2.446 123.657  0.00  0.00    +0.333 C 
ATOM     20  O   LIG A   1      -9.225  -1.128 123.392  0.00  0.00    -0.452 OA
ATOM     21  C   LIG A   1      -7.992  -0.539 123.814  0.00  0.00    +0.223 C 
ATOM     22  O   LIG A   1     -10.039  -3.203 122.989  0.00  0.00    -0.246 OA
ATOM     23  C   LIG A   1      -5.747   1.462 128.707  0.00  0.00    +0.019 C 
ATOM     24  C   LIG A   1      -5.083   1.600 131.038  0.00  0.00    +0.019 C 
ENDROOT
BRANCH  21  25
ATOM     25  C   LIG A   1      -7.841   0.851 123.250  0.00  0.00    +0.031 A 
ATOM     26  C   LIG A   1      -6.653   1.449 122.864  0.00  0.00    +0.202 A 
ATOM     27  O   LIG A   1      -6.862   2.711 122.418  0.00  0.00    -0.471 OA
ATOM     28  C   LIG A   1      -8.197   2.933 122.481  0.00  0.00    +0.195 A 
ATOM     29  C   LIG A   1      -8.846   1.820 122.964  0.00  0.00    +0.048 A 
ENDBRANCH  21  25
BRANCH  14  30
ATOM     30  O   LIG A   1     -10.020   0.261 125.862  0.00  0.00    -0.387 OA
ATOM     31  H   LIG A   1     -10.454   1.025 126.277  0.00  0.00    +0.210 HD
ENDBRANCH  14  30
BRANCH   4  32
ATOM     32  C   LIG A   1      -7.098  -0.284 131.893  0.00  0.00    +0.126 C 
BRANCH  32  33
ATOM     33  C   LIG A   1      -8.287   0.391 132.548  0.00  0.00    +0.307 C 
ATOM     34  O   LIG A   1      -9.476   0.147 132.299  0.00  0.00    -0.251 OA
BRANCH  33  35
ATOM     35  O   LIG A   1      -7.835   1.401 133.334  0.00  0.00    -0.468 OA
ATOM     36  C   LIG A   1      -8.519   2.645 133.169  0.00  0.00    +0.280 C 
ENDBRANCH  33  35
ENDBRANCH  32  33
ENDBRANCH   4  32
TORSDOF 5
ENDMDL
MODEL 9
REMARK VINA RESULT:      -7.3      3.432      7.669
REMARK  Name = NuBBE_1468
REMARK  11 active torsions:
REMARK  status: ('A' for Active; 'I' for Inactive)
REMARK    1  A    between atoms: C_3  and  C_37
REMARK    2  A    between atoms: C_3  and  C_38
REMARK    3  A    between atoms: C_4  and  C_6
REMARK    4  A    between atoms: C_6  and  C_7
REMARK    5  A    between atoms: C_7  and  O_8
REMARK    6  A    between atoms: O_8  and  C_9
REMARK    7  A    between atoms: C_11  and  C_12
REMARK    8  A    between atoms: C_14  and  C_15
REMARK    9  A    between atoms: C_20  and  O_22
REMARK   10  A    between atoms: C_23  and  C_24
REMARK   11  A    between atoms: C_29  and  C_31
REMARK                            x       y       z     vdW  Elec       q    Type
REMARK                         _______ _______ _______ _____ _____    ______ ____
ROOT
ATOM      1  O   LIG A   1      -4.806   5.067 133.992  0.00  0.00    -0.292 OA
ATOM      2  C   LIG A   1      -4.861   4.369 132.981  0.00  0.00    +0.165 C 
ATOM      3  C   LIG A   1      -3.614   4.012 132.151  0.00  0.00    +0.032 C 
ATOM      4  C   LIG A   1      -3.968   4.028 130.614  0.00  0.00    +0.030 C 
ATOM      5  C   LIG A   1      -5.390   3.370 130.233  0.00  0.00    +0.054 C 
ATOM      6  C   LIG A   1      -6.165   4.216 129.185  0.00  0.00    +0.024 C 
ATOM      7  C   LIG A   1      -5.415   1.866 129.871  0.00  0.00    -0.011 C 
ATOM      8  C   LIG A   1      -6.861   1.386 130.083  0.00  0.00    +0.152 C 
ATOM      9  C   LIG A   1      -7.731   1.602 128.813  0.00  0.00    +0.066 C 
ATOM     10  O   LIG A   1      -7.333   2.233 131.174  0.00  0.00    -0.480 OA
ATOM     11  C   LIG A   1      -6.336   3.219 131.409  0.00  0.00    +0.113 C 
ATOM     12  C   LIG A   1      -6.148   3.716 132.636  0.00  0.00    +0.088 C 
ATOM     13  C   LIG A   1      -4.357   1.027 129.877  0.00  0.00    +0.009 C 
ATOM     14  C   LIG A   1      -4.460  -0.407 130.366  0.00  0.00    +0.151 C 
ATOM     15  C   LIG A   1      -5.736  -0.709 131.231  0.00  0.00    +0.064 C 
ATOM     16  C   LIG A   1      -5.677  -0.054 132.632  0.00  0.00    +0.023 C 
ATOM     17  C   LIG A   1      -6.920  -0.132 130.448  0.00  0.00    -0.004 C 
ATOM     18  C   LIG A   1      -7.810  -0.994 129.908  0.00  0.00    +0.096 C 
ATOM     19  C   LIG A   1      -7.621  -2.461 129.846  0.00  0.00    +0.333 C 
ATOM     20  O   LIG A   1      -6.465  -2.929 130.363  0.00  0.00    -0.452 OA
ATOM     21  C   LIG A   1      -5.990  -2.228 131.515  0.00  0.00    +0.223 C 
ATOM     22  O   LIG A   1      -8.410  -3.160 129.224  0.00  0.00    -0.246 OA
ATOM     23  C   LIG A   1      -3.111   2.622 132.595  0.00  0.00    +0.019 C 
ATOM     24  C   LIG A   1      -2.446   4.956 132.536  0.00  0.00    +0.019 C 
ENDROOT
BRANCH  21  25
ATOM     25  C   LIG A   1      -4.853  -2.973 132.167  0.00  0.00    +0.031 A 
ATOM     26  C   LIG A   1      -3.877  -3.703 131.511  0.00  0.00    +0.202 A 
ATOM     27  O   LIG A   1      -3.012  -4.265 132.390  0.00  0.00    -0.471 OA
ATOM     28  C   LIG A   1      -3.404  -3.877 133.628  0.00  0.00    +0.195 A 
ATOM     29  C   LIG A   1      -4.514  -3.068 133.547  0.00  0.00    +0.048 A 
ENDBRANCH  21  25
BRANCH  14  30
ATOM     30  O   LIG A   1      -4.339  -1.241 129.224  0.00  0.00    -0.387 OA
ATOM     31  H   LIG A   1      -4.110  -2.138 129.520  0.00  0.00    +0.210 HD
ENDBRANCH  14  30
BRANCH   4  32
ATOM     32  C   LIG A   1      -3.668   5.408 129.958  0.00  0.00    +0.126 C 
BRANCH  32  33
ATOM     33  C   LIG A   1      -2.638   5.450 128.847  0.00  0.00    +0.307 C 
ATOM     34  O   LIG A   1      -2.024   6.461 128.477  0.00  0.00    -0.251 OA
BRANCH  33  35
ATOM     35  O   LIG A   1      -2.610   4.240 128.233  0.00  0.00    -0.468 OA
ATOM     36  C   LIG A   1      -3.221   4.207 126.941  0.00  0.00    +0.280 C 
ENDBRANCH  33  35
ENDBRANCH  32  33
ENDBRANCH   4  32
TORSDOF 5
ENDMDL
