MODEL 1
REMARK VINA RESULT:      -6.3      0.000      0.000
REMARK  Name = NuBBE_663
REMARK  2 active torsions:
REMARK  status: ('A' for Active; 'I' for Inactive)
REMARK    1  A    between atoms: C_8  and  O_9
REMARK    2  A    between atoms: O_9  and  C_10
REMARK                            x       y       z     vdW  Elec       q    Type
REMARK                         _______ _______ _______ _____ _____    ______ ____
ROOT
ATOM      1  O   LIG A   1      -6.128   5.333 118.263  0.00  0.00    -0.245 OA
ATOM      2  C   LIG A   1      -6.224   4.874 119.395  0.00  0.00    +0.337 A 
ATOM      3  C   LIG A   1      -5.107   4.974 120.347  0.00  0.00    +0.093 A 
ATOM      4  C   LIG A   1      -5.173   4.474 121.584  0.00  0.00    +0.022 A 
ATOM      5  O   LIG A   1      -7.372   4.239 119.848  0.00  0.00    -0.422 OA
ATOM      6  C   LIG A   1      -7.462   3.709 121.157  0.00  0.00    +0.146 A 
ATOM      7  C   LIG A   1      -6.384   3.801 122.042  0.00  0.00    +0.060 A 
ATOM      8  C   LIG A   1      -6.505   3.242 123.330  0.00  0.00    +0.141 A 
ATOM      9  C   LIG A   1      -8.677   3.106 121.490  0.00  0.00    +0.094 A 
ATOM     10  C   LIG A   1      -8.762   2.606 122.785  0.00  0.00    +0.142 A 
ATOM     11  C   LIG A   1      -7.732   2.659 123.719  0.00  0.00    +0.062 A 
ATOM     12  C   LIG A   1      -8.260   2.070 124.901  0.00  0.00    +0.053 A 
ATOM     13  C   LIG A   1      -9.548   1.686 124.606  0.00  0.00    +0.196 A 
ATOM     14  O   LIG A   1      -9.859   2.005 123.325  0.00  0.00    -0.463 OA
ENDROOT
BRANCH   8  15
ATOM     15  O   LIG A   1      -5.452   3.354 124.216  0.00  0.00    -0.494 OA
ATOM     16  C   LIG A   1      -5.671   4.450 125.106  0.00  0.00    +0.277 C 
ENDBRANCH   8  15
TORSDOF 1
ENDMDL
MODEL 2
REMARK VINA RESULT:      -6.3      7.773      9.511
REMARK  Name = NuBBE_663
REMARK  2 active torsions:
REMARK  status: ('A' for Active; 'I' for Inactive)
REMARK    1  A    between atoms: C_8  and  O_9
REMARK    2  A    between atoms: O_9  and  C_10
REMARK                            x       y       z     vdW  Elec       q    Type
REMARK                         _______ _______ _______ _____ _____    ______ ____
ROOT
ATOM      1  O   LIG A   1     -11.043   7.665 125.454  0.00  0.00    -0.245 OA
ATOM      2  C   LIG A   1     -11.144   7.434 126.653  0.00  0.00    +0.337 A 
ATOM      3  C   LIG A   1     -12.456   7.456 127.317  0.00  0.00    +0.093 A 
ATOM      4  C   LIG A   1     -12.602   7.220 128.624  0.00  0.00    +0.022 A 
ATOM      5  O   LIG A   1     -10.047   7.142 127.452  0.00  0.00    -0.422 OA
ATOM      6  C   LIG A   1     -10.183   6.884 128.836  0.00  0.00    +0.146 A 
ATOM      7  C   LIG A   1     -11.437   6.925 129.452  0.00  0.00    +0.060 A 
ATOM      8  C   LIG A   1     -11.528   6.682 130.838  0.00  0.00    +0.141 A 
ATOM      9  C   LIG A   1      -9.002   6.593 129.523  0.00  0.00    +0.094 A 
ATOM     10  C   LIG A   1      -9.149   6.321 130.879  0.00  0.00    +0.142 A 
ATOM     11  C   LIG A   1     -10.362   6.344 131.560  0.00  0.00    +0.062 A 
ATOM     12  C   LIG A   1     -10.053   5.978 132.899  0.00  0.00    +0.053 A 
ATOM     13  C   LIG A   1      -8.693   5.780 132.948  0.00  0.00    +0.196 A 
ATOM     14  O   LIG A   1      -8.136   5.988 131.727  0.00  0.00    -0.463 OA
ENDROOT
BRANCH   8  15
ATOM     15  O   LIG A   1     -12.769   6.695 131.445  0.00  0.00    -0.494 OA
ATOM     16  C   LIG A   1     -13.078   8.010 131.908  0.00  0.00    +0.277 C 
ENDBRANCH   8  15
TORSDOF 1
ENDMDL
MODEL 3
REMARK VINA RESULT:      -6.2      0.780      4.655
REMARK  Name = NuBBE_663
REMARK  2 active torsions:
REMARK  status: ('A' for Active; 'I' for Inactive)
REMARK    1  A    between atoms: C_8  and  O_9
REMARK    2  A    between atoms: O_9  and  C_10
REMARK                            x       y       z     vdW  Elec       q    Type
REMARK                         _______ _______ _______ _____ _____    ______ ____
ROOT
ATOM      1  O   LIG A   1     -11.216   1.056 124.130  0.00  0.00    -0.245 OA
ATOM      2  C   LIG A   1     -10.116   1.576 123.981  0.00  0.00    +0.337 A 
ATOM      3  C   LIG A   1      -9.147   1.618 125.088  0.00  0.00    +0.093 A 
ATOM      4  C   LIG A   1      -7.945   2.188 124.965  0.00  0.00    +0.022 A 
ATOM      5  O   LIG A   1      -9.718   2.150 122.783  0.00  0.00    -0.422 OA
ATOM      6  C   LIG A   1      -8.446   2.751 122.633  0.00  0.00    +0.146 A 
ATOM      7  C   LIG A   1      -7.545   2.795 123.700  0.00  0.00    +0.060 A 
ATOM      8  C   LIG A   1      -6.296   3.422 123.517  0.00  0.00    +0.141 A 
ATOM      9  C   LIG A   1      -8.166   3.282 121.371  0.00  0.00    +0.094 A 
ATOM     10  C   LIG A   1      -6.906   3.853 121.228  0.00  0.00    +0.142 A 
ATOM     11  C   LIG A   1      -5.958   3.935 122.244  0.00  0.00    +0.062 A 
ATOM     12  C   LIG A   1      -4.822   4.555 121.655  0.00  0.00    +0.053 A 
ATOM     13  C   LIG A   1      -5.155   4.823 120.347  0.00  0.00    +0.196 A 
ATOM     14  O   LIG A   1      -6.418   4.402 120.081  0.00  0.00    -0.463 OA
ENDROOT
BRANCH   8  15
ATOM     15  O   LIG A   1      -5.392   3.444 124.561  0.00  0.00    -0.494 OA
ATOM     16  C   LIG A   1      -5.509   4.667 125.289  0.00  0.00    +0.277 C 
ENDBRANCH   8  15
TORSDOF 1
ENDMDL
MODEL 4
REMARK VINA RESULT:      -6.0      1.672      3.187
REMARK  Name = NuBBE_663
REMARK  2 active torsions:
REMARK  status: ('A' for Active; 'I' for Inactive)
REMARK    1  A    between atoms: C_8  and  O_9
REMARK    2  A    between atoms: O_9  and  C_10
REMARK                            x       y       z     vdW  Elec       q    Type
REMARK                         _______ _______ _______ _____ _____    ______ ____
ROOT
ATOM      1  O   LIG A   1      -4.684   5.964 120.058  0.00  0.00    -0.245 OA
ATOM      2  C   LIG A   1      -5.209   5.156 120.816  0.00  0.00    +0.337 A 
ATOM      3  C   LIG A   1      -6.219   4.206 120.323  0.00  0.00    +0.093 A 
ATOM      4  C   LIG A   1      -6.819   3.321 121.123  0.00  0.00    +0.022 A 
ATOM      5  O   LIG A   1      -4.892   5.084 122.165  0.00  0.00    -0.422 OA
ATOM      6  C   LIG A   1      -5.513   4.148 123.025  0.00  0.00    +0.146 A 
ATOM      7  C   LIG A   1      -6.482   3.264 122.542  0.00  0.00    +0.060 A 
ATOM      8  C   LIG A   1      -7.092   2.361 123.435  0.00  0.00    +0.141 A 
ATOM      9  C   LIG A   1      -5.096   4.172 124.358  0.00  0.00    +0.094 A 
ATOM     10  C   LIG A   1      -5.697   3.235 125.191  0.00  0.00    +0.142 A 
ATOM     11  C   LIG A   1      -6.669   2.326 124.782  0.00  0.00    +0.062 A 
ATOM     12  C   LIG A   1      -6.973   1.551 125.935  0.00  0.00    +0.053 A 
ATOM     13  C   LIG A   1      -6.195   2.045 126.956  0.00  0.00    +0.196 A 
ATOM     14  O   LIG A   1      -5.420   3.068 126.514  0.00  0.00    -0.463 OA
ENDROOT
BRANCH   8  15
ATOM     15  O   LIG A   1      -8.030   1.468 122.955  0.00  0.00    -0.494 OA
ATOM     16  C   LIG A   1      -9.349   1.950 123.217  0.00  0.00    +0.277 C 
ENDBRANCH   8  15
TORSDOF 1
ENDMDL
MODEL 5
REMARK VINA RESULT:      -6.0      7.836      9.937
REMARK  Name = NuBBE_663
REMARK  2 active torsions:
REMARK  status: ('A' for Active; 'I' for Inactive)
REMARK    1  A    between atoms: C_8  and  O_9
REMARK    2  A    between atoms: O_9  and  C_10
REMARK                            x       y       z     vdW  Elec       q    Type
REMARK                         _______ _______ _______ _____ _____    ______ ____
ROOT
ATOM      1  O   LIG A   1      -6.407   5.887 131.593  0.00  0.00    -0.245 OA
ATOM      2  C   LIG A   1      -7.599   6.052 131.361  0.00  0.00    +0.337 A 
ATOM      3  C   LIG A   1      -8.580   6.094 132.457  0.00  0.00    +0.093 A 
ATOM      4  C   LIG A   1      -9.888   6.261 132.241  0.00  0.00    +0.022 A 
ATOM      5  O   LIG A   1      -8.095   6.206 130.075  0.00  0.00    -0.422 OA
ATOM      6  C   LIG A   1      -9.476   6.390 129.827  0.00  0.00    +0.146 A 
ATOM      7  C   LIG A   1     -10.395   6.412 130.880  0.00  0.00    +0.060 A 
ATOM      8  C   LIG A   1     -11.765   6.576 130.591  0.00  0.00    +0.141 A 
ATOM      9  C   LIG A   1      -9.842   6.545 128.488  0.00  0.00    +0.094 A 
ATOM     10  C   LIG A   1     -11.198   6.744 128.257  0.00  0.00    +0.142 A 
ATOM     11  C   LIG A   1     -12.170   6.777 129.253  0.00  0.00    +0.062 A 
ATOM     12  C   LIG A   1     -13.396   7.035 128.579  0.00  0.00    +0.053 A 
ATOM     13  C   LIG A   1     -13.097   7.121 127.239  0.00  0.00    +0.196 A 
ATOM     14  O   LIG A   1     -11.766   6.944 127.035  0.00  0.00    -0.463 OA
ENDROOT
BRANCH   8  15
ATOM     15  O   LIG A   1     -12.672   6.626 131.631  0.00  0.00    -0.494 OA
ATOM     16  C   LIG A   1     -13.064   7.977 131.879  0.00  0.00    +0.277 C 
ENDBRANCH   8  15
TORSDOF 1
ENDMDL
MODEL 6
REMARK VINA RESULT:      -5.8      4.934      8.434
REMARK  Name = NuBBE_663
REMARK  2 active torsions:
REMARK  status: ('A' for Active; 'I' for Inactive)
REMARK    1  A    between atoms: C_8  and  O_9
REMARK    2  A    between atoms: O_9  and  C_10
REMARK                            x       y       z     vdW  Elec       q    Type
REMARK                         _______ _______ _______ _____ _____    ______ ____
ROOT
ATOM      1  O   LIG A   1      -7.487  -3.288 130.376  0.00  0.00    -0.245 OA
ATOM      2  C   LIG A   1      -7.829  -2.951 129.248  0.00  0.00    +0.337 A 
ATOM      3  C   LIG A   1      -8.634  -3.849 128.405  0.00  0.00    +0.093 A 
ATOM      4  C   LIG A   1      -9.014  -3.519 127.167  0.00  0.00    +0.022 A 
ATOM      5  O   LIG A   1      -7.487  -1.723 128.700  0.00  0.00    -0.422 OA
ATOM      6  C   LIG A   1      -7.886  -1.354 127.394  0.00  0.00    +0.146 A 
ATOM      7  C   LIG A   1      -8.637  -2.227 126.602  0.00  0.00    +0.060 A 
ATOM      8  C   LIG A   1      -8.998  -1.832 125.298  0.00  0.00    +0.141 A 
ATOM      9  C   LIG A   1      -7.485  -0.086 126.967  0.00  0.00    +0.094 A 
ATOM     10  C   LIG A   1      -7.899   0.275 125.689  0.00  0.00    +0.142 A 
ATOM     11  C   LIG A   1      -8.646  -0.541 124.844  0.00  0.00    +0.062 A 
ATOM     12  C   LIG A   1      -8.867   0.231 123.670  0.00  0.00    +0.053 A 
ATOM     13  C   LIG A   1      -8.235   1.437 123.868  0.00  0.00    +0.196 A 
ATOM     14  O   LIG A   1      -7.643   1.470 125.089  0.00  0.00    -0.463 OA
ENDROOT
BRANCH   8  15
ATOM     15  O   LIG A   1      -9.762  -2.680 124.522  0.00  0.00    -0.494 OA
ATOM     16  C   LIG A   1      -8.955  -3.287 123.512  0.00  0.00    +0.277 C 
ENDBRANCH   8  15
TORSDOF 1
ENDMDL
MODEL 7
REMARK VINA RESULT:      -5.7      9.104      9.559
REMARK  Name = NuBBE_663
REMARK  2 active torsions:
REMARK  status: ('A' for Active; 'I' for Inactive)
REMARK    1  A    between atoms: C_8  and  O_9
REMARK    2  A    between atoms: O_9  and  C_10
REMARK                            x       y       z     vdW  Elec       q    Type
REMARK                         _______ _______ _______ _____ _____    ______ ____
ROOT
ATOM      1  O   LIG A   1     -13.295   7.118 127.937  0.00  0.00    -0.245 OA
ATOM      2  C   LIG A   1     -12.422   6.794 128.735  0.00  0.00    +0.337 A 
ATOM      3  C   LIG A   1     -11.514   7.799 129.308  0.00  0.00    +0.093 A 
ATOM      4  C   LIG A   1     -10.544   7.480 130.170  0.00  0.00    +0.022 A 
ATOM      5  O   LIG A   1     -12.235   5.481 129.144  0.00  0.00    -0.422 OA
ATOM      6  C   LIG A   1     -11.219   5.125 130.061  0.00  0.00    +0.146 A 
ATOM      7  C   LIG A   1     -10.355   6.093 130.583  0.00  0.00    +0.060 A 
ATOM      8  C   LIG A   1      -9.342   5.695 131.478  0.00  0.00    +0.141 A 
ATOM      9  C   LIG A   1     -11.146   3.772 130.399  0.00  0.00    +0.094 A 
ATOM     10  C   LIG A   1     -10.156   3.436 131.316  0.00  0.00    +0.142 A 
ATOM     11  C   LIG A   1      -9.260   4.342 131.876  0.00  0.00    +0.062 A 
ATOM     12  C   LIG A   1      -8.460   3.581 132.771  0.00  0.00    +0.053 A 
ATOM     13  C   LIG A   1      -8.901   2.281 132.684  0.00  0.00    +0.196 A 
ATOM     14  O   LIG A   1      -9.928   2.184 131.802  0.00  0.00    -0.463 OA
ENDROOT
BRANCH   8  15
ATOM     15  O   LIG A   1      -8.504   6.652 132.016  0.00  0.00    -0.494 OA
ATOM     16  C   LIG A   1      -7.266   6.680 131.304  0.00  0.00    +0.277 C 
ENDBRANCH   8  15
TORSDOF 1
ENDMDL
MODEL 8
REMARK VINA RESULT:      -5.6      9.268     10.639
REMARK  Name = NuBBE_663
REMARK  2 active torsions:
REMARK  status: ('A' for Active; 'I' for Inactive)
REMARK    1  A    between atoms: C_8  and  O_9
REMARK    2  A    between atoms: O_9  and  C_10
REMARK                            x       y       z     vdW  Elec       q    Type
REMARK                         _______ _______ _______ _____ _____    ______ ____
ROOT
ATOM      1  O   LIG A   1     -10.748   8.215 128.768  0.00  0.00    -0.245 OA
ATOM      2  C   LIG A   1     -10.201   7.616 129.687  0.00  0.00    +0.337 A 
ATOM      3  C   LIG A   1     -10.990   6.836 130.653  0.00  0.00    +0.093 A 
ATOM      4  C   LIG A   1     -10.428   6.181 131.674  0.00  0.00    +0.022 A 
ATOM      5  O   LIG A   1      -8.826   7.635 129.876  0.00  0.00    -0.422 OA
ATOM      6  C   LIG A   1      -8.214   6.942 130.947  0.00  0.00    +0.146 A 
ATOM      7  C   LIG A   1      -8.981   6.218 131.863  0.00  0.00    +0.060 A 
ATOM      8  C   LIG A   1      -8.336   5.559 132.929  0.00  0.00    +0.141 A 
ATOM      9  C   LIG A   1      -6.822   7.032 131.017  0.00  0.00    +0.094 A 
ATOM     10  C   LIG A   1      -6.227   6.332 132.061  0.00  0.00    +0.142 A 
ATOM     11  C   LIG A   1      -6.925   5.593 133.011  0.00  0.00    +0.062 A 
ATOM     12  C   LIG A   1      -5.932   5.027 133.857  0.00  0.00    +0.053 A 
ATOM     13  C   LIG A   1      -4.717   5.468 133.386  0.00  0.00    +0.196 A 
ATOM     14  O   LIG A   1      -4.888   6.262 132.298  0.00  0.00    -0.463 OA
ENDROOT
BRANCH   8  15
ATOM     15  O   LIG A   1      -9.088   4.821 133.821  0.00  0.00    -0.494 OA
ATOM     16  C   LIG A   1      -9.040   3.435 133.478  0.00  0.00    +0.277 C 
ENDBRANCH   8  15
TORSDOF 1
ENDMDL
MODEL 9
REMARK VINA RESULT:      -5.6      5.720      7.240
REMARK  Name = NuBBE_663
REMARK  2 active torsions:
REMARK  status: ('A' for Active; 'I' for Inactive)
REMARK    1  A    between atoms: C_8  and  O_9
REMARK    2  A    between atoms: O_9  and  C_10
REMARK                            x       y       z     vdW  Elec       q    Type
REMARK                         _______ _______ _______ _____ _____    ______ ____
ROOT
ATOM      1  O   LIG A   1      -8.514   3.327 128.367  0.00  0.00    -0.245 OA
ATOM      2  C   LIG A   1      -8.404   2.155 128.026  0.00  0.00    +0.337 A 
ATOM      3  C   LIG A   1      -7.796   1.163 128.926  0.00  0.00    +0.093 A 
ATOM      4  C   LIG A   1      -7.650  -0.120 128.583  0.00  0.00    +0.022 A 
ATOM      5  O   LIG A   1      -8.837   1.693 126.791  0.00  0.00    -0.422 OA
ATOM      6  C   LIG A   1      -8.695   0.337 126.414  0.00  0.00    +0.146 A 
ATOM      7  C   LIG A   1      -8.101  -0.588 127.277  0.00  0.00    +0.060 A 
ATOM      8  C   LIG A   1      -7.960  -1.926 126.856  0.00  0.00    +0.141 A 
ATOM      9  C   LIG A   1      -9.183   0.001 125.149  0.00  0.00    +0.094 A 
ATOM     10  C   LIG A   1      -9.057  -1.338 124.795  0.00  0.00    +0.142 A 
ATOM     11  C   LIG A   1      -8.476  -2.314 125.599  0.00  0.00    +0.062 A 
ATOM     12  C   LIG A   1      -8.589  -3.527 124.866  0.00  0.00    +0.053 A 
ATOM     13  C   LIG A   1      -9.203  -3.211 123.676  0.00  0.00    +0.196 A 
ATOM     14  O   LIG A   1      -9.488  -1.885 123.624  0.00  0.00    -0.463 OA
ENDROOT
BRANCH   8  15
ATOM     15  O   LIG A   1      -7.398  -2.848 127.716  0.00  0.00    -0.494 OA
ATOM     16  C   LIG A   1      -8.420  -3.528 128.446  0.00  0.00    +0.277 C 
ENDBRANCH   8  15
TORSDOF 1
ENDMDL
