MODEL 1
REMARK VINA RESULT:      -9.4      0.000      0.000
REMARK  Name = NuBBE_314
REMARK  16 active torsions:
REMARK  status: ('A' for Active; 'I' for Inactive)
REMARK    1  A    between atoms: C_1  and  C_2
REMARK    2  A    between atoms: C_2  and  C_56
REMARK    3  A    between atoms: C_3  and  O_40
REMARK    4  A    between atoms: C_7  and  C_39
REMARK    5  A    between atoms: C_12  and  C_38
REMARK    6  A    between atoms: C_18  and  C_35
REMARK    7  A    between atoms: C_21  and  C_32
REMARK    8  A    between atoms: C_24  and  C_31
REMARK    9  A    between atoms: C_26  and  C_30
REMARK   10  A    between atoms: C_32  and  O_33
REMARK   11  A    between atoms: C_35  and  O_36
REMARK   12  A    between atoms: O_40  and  C_41
REMARK   13  A    between atoms: C_44  and  C_55
REMARK   14  A    between atoms: C_46  and  O_54
REMARK   15  A    between atoms: C_48  and  O_53
REMARK   16  A    between atoms: C_50  and  O_52
REMARK                            x       y       z     vdW  Elec       q    Type
REMARK                         _______ _______ _______ _____ _____    ______ ____
ROOT
ATOM      1  C   LIG A   1     -10.037   1.588 131.847  0.00  0.00    +0.014 C 
ATOM      2  C   LIG A   1      -8.627   2.221 132.009  0.00  0.00    -0.005 C 
ATOM      3  C   LIG A   1      -7.753   1.276 132.902  0.00  0.00    +0.127 C 
ATOM      4  C   LIG A   1      -6.357   1.893 133.084  0.00  0.00    +0.033 C 
ATOM      5  C   LIG A   1      -5.606   2.091 131.757  0.00  0.00    +0.010 C 
ATOM      6  C   LIG A   1      -6.416   2.805 130.603  0.00  0.00    -0.025 C 
ATOM      7  C   LIG A   1      -7.909   2.321 130.606  0.00  0.00    +0.003 C 
ATOM      8  C   LIG A   1      -8.711   3.040 129.520  0.00  0.00    +0.005 C 
ATOM      9  C   LIG A   1      -8.179   2.675 128.134  0.00  0.00    +0.009 C 
ATOM     10  C   LIG A   1      -6.673   2.962 127.849  0.00  0.00    -0.009 C 
ATOM     11  C   LIG A   1      -5.798   2.508 129.114  0.00  0.00    +0.006 C 
ATOM     12  C   LIG A   1      -5.312   1.037 129.005  0.00  0.00    +0.031 C 
ATOM     13  C   LIG A   1      -5.517   0.257 127.754  0.00  0.00    -0.026 C 
ATOM     14  C   LIG A   1      -5.927   0.716 126.564  0.00  0.00    -0.052 C 
ATOM     15  C   LIG A   1      -6.227   2.224 126.415  0.00  0.00    +0.094 C 
ATOM     16  C   LIG A   1      -7.363   2.399 125.335  0.00  0.00    +0.024 C 
ATOM     17  C   LIG A   1      -7.234   1.566 124.050  0.00  0.00    +0.020 C 
ATOM     18  C   LIG A   1      -7.133   0.048 124.311  0.00  0.00    +0.074 C 
ATOM     19  C   LIG A   1      -5.953  -0.201 125.300  0.00  0.00    +0.036 C 
ATOM     20  C   LIG A   1      -5.637  -1.744 125.463  0.00  0.00    -0.003 C 
ATOM     21  C   LIG A   1      -5.353  -2.383 124.070  0.00  0.00    -0.011 C 
ATOM     22  C   LIG A   1      -6.502  -2.144 123.085  0.00  0.00    +0.004 C 
ATOM     23  C   LIG A   1      -6.817  -0.653 122.953  0.00  0.00    +0.019 C 
ATOM     24  C   LIG A   1      -5.014  -3.876 124.134  0.00  0.00    +0.008 C 
ATOM     25  C   LIG A   1      -6.675  -2.560 126.253  0.00  0.00    +0.008 C 
ATOM     26  C   LIG A   1      -6.543   4.505 127.662  0.00  0.00    +0.013 C 
ATOM     27  C   LIG A   1      -6.262   4.323 130.916  0.00  0.00    +0.012 C 
ATOM     28  C   LIG A   1      -8.879   3.575 132.708  0.00  0.00    +0.014 C 
ENDROOT
BRANCH  18  29
ATOM     29  C   LIG A   1      -8.493  -0.436 124.844  0.00  0.00    +0.311 C 
ATOM     30  O   LIG A   1      -8.863  -0.456 125.993  0.00  0.00    -0.250 OA
BRANCH  29  31
ATOM     31  O   LIG A   1      -9.353  -0.818 123.869  0.00  0.00    -0.480 OA
ATOM     32  H   LIG A   1      -8.954  -1.634 123.499  0.00  0.00    +0.295 HD
ENDBRANCH  29  31
ENDBRANCH  18  29
BRANCH  15  33
ATOM     33  C   LIG A   1      -4.942   2.916 125.837  0.00  0.00    +0.316 C 
ATOM     34  O   LIG A   1      -3.801   2.689 126.223  0.00  0.00    -0.250 OA
BRANCH  33  35
ATOM     35  O   LIG A   1      -5.142   3.817 124.849  0.00  0.00    -0.480 OA
ATOM     36  H   LIG A   1      -5.445   4.686 125.160  0.00  0.00    +0.295 HD
ENDBRANCH  33  35
ENDBRANCH  15  33
BRANCH   3  37
ATOM     37  O   LIG A   1      -7.703  -0.012 132.257  0.00  0.00    -0.345 OA
BRANCH  37  38
ATOM     38  C   LIG A   1      -7.014  -1.057 132.949  0.00  0.00    +0.282 C 
ATOM     39  O   LIG A   1      -7.927  -2.031 133.448  0.00  0.00    -0.343 OA
ATOM     40  C   LIG A   1      -7.237  -3.127 134.042  0.00  0.00    +0.149 C 
ATOM     41  C   LIG A   1      -6.482  -3.961 132.985  0.00  0.00    +0.174 C 
ATOM     42  C   LIG A   1      -6.165  -3.162 131.707  0.00  0.00    +0.179 C 
ATOM     43  C   LIG A   1      -5.929  -1.672 132.013  0.00  0.00    +0.201 C 
ATOM     44  C   LIG A   1      -8.263  -3.969 134.795  0.00  0.00    +0.040 C 
BRANCH  43  45
ATOM     45  O   LIG A   1      -4.624  -1.533 132.630  0.00  0.00    -0.384 OA
ATOM     46  H   LIG A   1      -4.292  -2.427 132.843  0.00  0.00    +0.210 HD
ENDBRANCH  43  45
BRANCH  42  47
ATOM     47  O   LIG A   1      -7.195  -3.335 130.735  0.00  0.00    -0.386 OA
ATOM     48  H   LIG A   1      -6.980  -2.782 129.964  0.00  0.00    +0.210 HD
ENDBRANCH  42  47
BRANCH  41  49
ATOM     49  O   LIG A   1      -5.248  -4.393 133.585  0.00  0.00    -0.387 OA
ATOM     50  H   LIG A   1      -4.809  -3.604 133.957  0.00  0.00    +0.210 HD
ENDBRANCH  41  49
ENDBRANCH  37  38
ENDBRANCH   3  37
TORSDOF 9
ENDMDL
MODEL 2
REMARK VINA RESULT:      -9.3      3.259      6.827
REMARK  Name = NuBBE_314
REMARK  16 active torsions:
REMARK  status: ('A' for Active; 'I' for Inactive)
REMARK    1  A    between atoms: C_1  and  C_2
REMARK    2  A    between atoms: C_2  and  C_56
REMARK    3  A    between atoms: C_3  and  O_40
REMARK    4  A    between atoms: C_7  and  C_39
REMARK    5  A    between atoms: C_12  and  C_38
REMARK    6  A    between atoms: C_18  and  C_35
REMARK    7  A    between atoms: C_21  and  C_32
REMARK    8  A    between atoms: C_24  and  C_31
REMARK    9  A    between atoms: C_26  and  C_30
REMARK   10  A    between atoms: C_32  and  O_33
REMARK   11  A    between atoms: C_35  and  O_36
REMARK   12  A    between atoms: O_40  and  C_41
REMARK   13  A    between atoms: C_44  and  C_55
REMARK   14  A    between atoms: C_46  and  O_54
REMARK   15  A    between atoms: C_48  and  O_53
REMARK   16  A    between atoms: C_50  and  O_52
REMARK                            x       y       z     vdW  Elec       q    Type
REMARK                         _______ _______ _______ _____ _____    ______ ____
ROOT
ATOM      1  C   LIG A   1      -5.227   6.430 131.762  0.00  0.00    +0.014 C 
ATOM      2  C   LIG A   1      -5.892   5.609 132.901  0.00  0.00    -0.005 C 
ATOM      3  C   LIG A   1      -7.405   6.011 132.990  0.00  0.00    +0.127 C 
ATOM      4  C   LIG A   1      -8.077   5.218 134.122  0.00  0.00    +0.033 C 
ATOM      5  C   LIG A   1      -8.021   3.696 133.909  0.00  0.00    +0.010 C 
ATOM      6  C   LIG A   1      -6.603   3.101 133.540  0.00  0.00    -0.025 C 
ATOM      7  C   LIG A   1      -5.846   4.068 132.563  0.00  0.00    +0.003 C 
ATOM      8  C   LIG A   1      -4.455   3.521 132.235  0.00  0.00    +0.005 C 
ATOM      9  C   LIG A   1      -4.568   2.199 131.476  0.00  0.00    +0.009 C 
ATOM     10  C   LIG A   1      -5.357   1.044 132.165  0.00  0.00    -0.009 C 
ATOM     11  C   LIG A   1      -6.700   1.634 132.816  0.00  0.00    +0.006 C 
ATOM     12  C   LIG A   1      -7.906   1.581 131.840  0.00  0.00    +0.031 C 
ATOM     13  C   LIG A   1      -7.800   0.878 130.532  0.00  0.00    -0.026 C 
ATOM     14  C   LIG A   1      -6.809   0.079 130.114  0.00  0.00    -0.052 C 
ATOM     15  C   LIG A   1      -5.621  -0.187 131.062  0.00  0.00    +0.094 C 
ATOM     16  C   LIG A   1      -4.330  -0.420 130.188  0.00  0.00    +0.024 C 
ATOM     17  C   LIG A   1      -4.480  -1.330 128.958  0.00  0.00    +0.020 C 
ATOM     18  C   LIG A   1      -5.573  -0.860 127.976  0.00  0.00    +0.074 C 
ATOM     19  C   LIG A   1      -6.908  -0.708 128.768  0.00  0.00    +0.036 C 
ATOM     20  C   LIG A   1      -8.135  -0.432 127.805  0.00  0.00    -0.003 C 
ATOM     21  C   LIG A   1      -8.238  -1.559 126.732  0.00  0.00    -0.011 C 
ATOM     22  C   LIG A   1      -6.932  -1.723 125.948  0.00  0.00    +0.004 C 
ATOM     23  C   LIG A   1      -5.749  -1.963 126.887  0.00  0.00    +0.019 C 
ATOM     24  C   LIG A   1      -9.416  -1.385 125.768  0.00  0.00    +0.008 C 
ATOM     25  C   LIG A   1      -8.180   0.963 127.159  0.00  0.00    +0.008 C 
ATOM     26  C   LIG A   1      -4.437   0.493 133.298  0.00  0.00    +0.013 C 
ATOM     27  C   LIG A   1      -5.892   2.936 134.916  0.00  0.00    +0.012 C 
ATOM     28  C   LIG A   1      -5.129   6.018 134.180  0.00  0.00    +0.014 C 
ENDROOT
BRANCH  18  29
ATOM     29  C   LIG A   1      -5.095   0.448 127.321  0.00  0.00    +0.311 C 
ATOM     30  O   LIG A   1      -5.089   1.551 127.811  0.00  0.00    -0.250 OA
BRANCH  29  31
ATOM     31  O   LIG A   1      -4.583   0.277 126.078  0.00  0.00    -0.480 OA
ATOM     32  H   LIG A   1      -5.270  -0.234 125.601  0.00  0.00    +0.295 HD
ENDBRANCH  29  31
ENDBRANCH  18  29
BRANCH  15  33
ATOM     33  C   LIG A   1      -5.902  -1.531 131.823  0.00  0.00    +0.316 C 
ATOM     34  O   LIG A   1      -6.976  -1.826 132.333  0.00  0.00    -0.250 OA
BRANCH  33  35
ATOM     35  O   LIG A   1      -4.869  -2.399 131.902  0.00  0.00    -0.480 OA
ATOM     36  H   LIG A   1      -4.117  -2.076 132.425  0.00  0.00    +0.295 HD
ENDBRANCH  33  35
ENDBRANCH  15  33
BRANCH   3  37
ATOM     37  O   LIG A   1      -8.002   5.748 131.705  0.00  0.00    -0.345 OA
BRANCH  37  38
ATOM     38  C   LIG A   1      -9.213   6.445 131.400  0.00  0.00    +0.282 C 
ATOM     39  O   LIG A   1      -9.212   6.911 130.052  0.00  0.00    -0.343 OA
ATOM     40  C   LIG A   1     -10.460   7.509 129.713  0.00  0.00    +0.149 C 
ATOM     41  C   LIG A   1     -11.591   6.461 129.649  0.00  0.00    +0.174 C 
ATOM     42  C   LIG A   1     -11.287   5.199 130.480  0.00  0.00    +0.179 C 
ATOM     43  C   LIG A   1     -10.434   5.528 131.719  0.00  0.00    +0.201 C 
ATOM     44  C   LIG A   1     -10.283   8.227 128.379  0.00  0.00    +0.040 C 
BRANCH  43  45
ATOM     45  O   LIG A   1     -11.283   6.178 132.699  0.00  0.00    -0.384 OA
ATOM     46  H   LIG A   1     -11.800   5.488 133.158  0.00  0.00    +0.210 HD
ENDBRANCH  43  45
BRANCH  42  47
ATOM     47  O   LIG A   1     -10.664   4.202 129.672  0.00  0.00    -0.386 OA
ATOM     48  H   LIG A   1     -10.185   4.649 128.953  0.00  0.00    +0.210 HD
ENDBRANCH  42  47
BRANCH  41  49
ATOM     49  O   LIG A   1     -12.780   7.084 130.166  0.00  0.00    -0.387 OA
ATOM     50  H   LIG A   1     -12.538   7.984 130.458  0.00  0.00    +0.210 HD
ENDBRANCH  41  49
ENDBRANCH  37  38
ENDBRANCH   3  37
TORSDOF 9
ENDMDL
MODEL 3
REMARK VINA RESULT:      -9.2      2.836      8.090
REMARK  Name = NuBBE_314
REMARK  16 active torsions:
REMARK  status: ('A' for Active; 'I' for Inactive)
REMARK    1  A    between atoms: C_1  and  C_2
REMARK    2  A    between atoms: C_2  and  C_56
REMARK    3  A    between atoms: C_3  and  O_40
REMARK    4  A    between atoms: C_7  and  C_39
REMARK    5  A    between atoms: C_12  and  C_38
REMARK    6  A    between atoms: C_18  and  C_35
REMARK    7  A    between atoms: C_21  and  C_32
REMARK    8  A    between atoms: C_24  and  C_31
REMARK    9  A    between atoms: C_26  and  C_30
REMARK   10  A    between atoms: C_32  and  O_33
REMARK   11  A    between atoms: C_35  and  O_36
REMARK   12  A    between atoms: O_40  and  C_41
REMARK   13  A    between atoms: C_44  and  C_55
REMARK   14  A    between atoms: C_46  and  O_54
REMARK   15  A    between atoms: C_48  and  O_53
REMARK   16  A    between atoms: C_50  and  O_52
REMARK                            x       y       z     vdW  Elec       q    Type
REMARK                         _______ _______ _______ _____ _____    ______ ____
ROOT
ATOM      1  C   LIG A   1      -8.279  -3.323 129.857  0.00  0.00    +0.014 C 
ATOM      2  C   LIG A   1      -6.851  -2.935 129.384  0.00  0.00    -0.005 C 
ATOM      3  C   LIG A   1      -6.901  -2.614 127.851  0.00  0.00    +0.127 C 
ATOM      4  C   LIG A   1      -5.492  -2.241 127.362  0.00  0.00    +0.033 C 
ATOM      5  C   LIG A   1      -4.916  -1.003 128.069  0.00  0.00    +0.010 C 
ATOM      6  C   LIG A   1      -5.006  -1.002 129.648  0.00  0.00    -0.025 C 
ATOM      7  C   LIG A   1      -6.372  -1.619 130.113  0.00  0.00    +0.003 C 
ATOM      8  C   LIG A   1      -6.451  -1.663 131.641  0.00  0.00    +0.005 C 
ATOM      9  C   LIG A   1      -6.438  -0.246 132.216  0.00  0.00    +0.009 C 
ATOM     10  C   LIG A   1      -5.224   0.663 131.851  0.00  0.00    -0.009 C 
ATOM     11  C   LIG A   1      -4.892   0.501 130.290  0.00  0.00    +0.006 C 
ATOM     12  C   LIG A   1      -5.648   1.533 129.411  0.00  0.00    +0.031 C 
ATOM     13  C   LIG A   1      -6.431   2.636 130.032  0.00  0.00    -0.026 C 
ATOM     14  C   LIG A   1      -6.441   3.005 131.320  0.00  0.00    -0.052 C 
ATOM     15  C   LIG A   1      -5.547   2.238 132.317  0.00  0.00    +0.094 C 
ATOM     16  C   LIG A   1      -6.249   2.254 133.729  0.00  0.00    +0.024 C 
ATOM     17  C   LIG A   1      -6.848   3.593 134.190  0.00  0.00    +0.020 C 
ATOM     18  C   LIG A   1      -7.877   4.178 133.201  0.00  0.00    +0.074 C 
ATOM     19  C   LIG A   1      -7.204   4.281 131.798  0.00  0.00    +0.036 C 
ATOM     20  C   LIG A   1      -8.113   5.066 130.766  0.00  0.00    -0.003 C 
ATOM     21  C   LIG A   1      -8.470   6.475 131.328  0.00  0.00    -0.011 C 
ATOM     22  C   LIG A   1      -9.130   6.390 132.708  0.00  0.00    +0.004 C 
ATOM     23  C   LIG A   1      -8.257   5.610 133.692  0.00  0.00    +0.019 C 
ATOM     24  C   LIG A   1      -9.332   7.316 130.380  0.00  0.00    +0.008 C 
ATOM     25  C   LIG A   1      -9.369   4.321 130.279  0.00  0.00    +0.008 C 
ATOM     26  C   LIG A   1      -4.015   0.145 132.690  0.00  0.00    +0.013 C 
ATOM     27  C   LIG A   1      -3.770  -1.836 130.098  0.00  0.00    +0.012 C 
ATOM     28  C   LIG A   1      -5.988  -4.184 129.666  0.00  0.00    +0.014 C 
ENDROOT
BRANCH  18  29
ATOM     29  C   LIG A   1      -9.123   3.274 133.219  0.00  0.00    +0.311 C 
ATOM     30  O   LIG A   1      -9.278   2.230 132.632  0.00  0.00    -0.250 OA
BRANCH  29  31
ATOM     31  O   LIG A   1     -10.103   3.715 134.044  0.00  0.00    -0.480 OA
ATOM     32  H   LIG A   1      -9.736   4.533 134.441  0.00  0.00    +0.295 HD
ENDBRANCH  29  31
ENDBRANCH  18  29
BRANCH  15  33
ATOM     33  C   LIG A   1      -4.202   3.033 132.470  0.00  0.00    +0.316 C 
ATOM     34  O   LIG A   1      -3.572   3.512 131.536  0.00  0.00    -0.250 OA
BRANCH  33  35
ATOM     35  O   LIG A   1      -3.737   3.180 133.731  0.00  0.00    -0.480 OA
ATOM     36  H   LIG A   1      -3.954   4.035 134.137  0.00  0.00    +0.295 HD
ENDBRANCH  33  35
ENDBRANCH  15  33
BRANCH   3  37
ATOM     37  O   LIG A   1      -7.850  -1.546 127.659  0.00  0.00    -0.345 OA
BRANCH  37  38
ATOM     38  C   LIG A   1      -8.680  -1.619 126.497  0.00  0.00    +0.282 C 
ATOM     39  O   LIG A   1      -8.112  -0.886 125.414  0.00  0.00    -0.343 OA
ATOM     40  C   LIG A   1      -8.880  -1.047 124.225  0.00  0.00    +0.149 C 
ATOM     41  C   LIG A   1      -8.780  -2.487 123.676  0.00  0.00    +0.174 C 
ATOM     42  C   LIG A   1      -8.395  -3.514 124.758  0.00  0.00    +0.179 C 
ATOM     43  C   LIG A   1      -8.942  -3.115 126.140  0.00  0.00    +0.201 C 
ATOM     44  C   LIG A   1      -8.385  -0.023 123.209  0.00  0.00    +0.040 C 
BRANCH  43  45
ATOM     45  O   LIG A   1     -10.369  -3.373 126.159  0.00  0.00    -0.384 OA
ATOM     46  H   LIG A   1     -10.516  -4.237 126.589  0.00  0.00    +0.210 HD
ENDBRANCH  43  45
BRANCH  42  47
ATOM     47  O   LIG A   1      -6.981  -3.702 124.795  0.00  0.00    -0.386 OA
ATOM     48  H   LIG A   1      -6.790  -4.616 124.523  0.00  0.00    +0.210 HD
ENDBRANCH  42  47
BRANCH  41  49
ATOM     49  O   LIG A   1     -10.071  -2.831 123.144  0.00  0.00    -0.387 OA
ATOM     50  H   LIG A   1     -10.314  -2.145 122.494  0.00  0.00    +0.210 HD
ENDBRANCH  41  49
ENDBRANCH  37  38
ENDBRANCH   3  37
TORSDOF 9
ENDMDL
MODEL 4
REMARK VINA RESULT:      -9.2      1.980      2.714
REMARK  Name = NuBBE_314
REMARK  16 active torsions:
REMARK  status: ('A' for Active; 'I' for Inactive)
REMARK    1  A    between atoms: C_1  and  C_2
REMARK    2  A    between atoms: C_2  and  C_56
REMARK    3  A    between atoms: C_3  and  O_40
REMARK    4  A    between atoms: C_7  and  C_39
REMARK    5  A    between atoms: C_12  and  C_38
REMARK    6  A    between atoms: C_18  and  C_35
REMARK    7  A    between atoms: C_21  and  C_32
REMARK    8  A    between atoms: C_24  and  C_31
REMARK    9  A    between atoms: C_26  and  C_30
REMARK   10  A    between atoms: C_32  and  O_33
REMARK   11  A    between atoms: C_35  and  O_36
REMARK   12  A    between atoms: O_40  and  C_41
REMARK   13  A    between atoms: C_44  and  C_55
REMARK   14  A    between atoms: C_46  and  O_54
REMARK   15  A    between atoms: C_48  and  O_53
REMARK   16  A    between atoms: C_50  and  O_52
REMARK                            x       y       z     vdW  Elec       q    Type
REMARK                         _______ _______ _______ _____ _____    ______ ____
ROOT
ATOM      1  C   LIG A   1      -6.930  -0.481 133.053  0.00  0.00    +0.014 C 
ATOM      2  C   LIG A   1      -6.183   0.820 132.647  0.00  0.00    -0.005 C 
ATOM      3  C   LIG A   1      -4.640   0.547 132.697  0.00  0.00    +0.127 C 
ATOM      4  C   LIG A   1      -3.883   1.828 132.311  0.00  0.00    +0.033 C 
ATOM      5  C   LIG A   1      -4.214   2.321 130.893  0.00  0.00    +0.010 C 
ATOM      6  C   LIG A   1      -5.751   2.419 130.535  0.00  0.00    -0.025 C 
ATOM      7  C   LIG A   1      -6.532   1.209 131.157  0.00  0.00    +0.003 C 
ATOM      8  C   LIG A   1      -8.028   1.319 130.853  0.00  0.00    +0.005 C 
ATOM      9  C   LIG A   1      -8.274   1.218 129.347  0.00  0.00    +0.009 C 
ATOM     10  C   LIG A   1      -7.548   2.253 128.433  0.00  0.00    -0.009 C 
ATOM     11  C   LIG A   1      -6.028   2.415 128.919  0.00  0.00    +0.006 C 
ATOM     12  C   LIG A   1      -5.066   1.433 128.199  0.00  0.00    +0.031 C 
ATOM     13  C   LIG A   1      -5.539   0.595 127.064  0.00  0.00    -0.026 C 
ATOM     14  C   LIG A   1      -6.704   0.691 126.409  0.00  0.00    -0.052 C 
ATOM     15  C   LIG A   1      -7.704   1.788 126.833  0.00  0.00    +0.094 C 
ATOM     16  C   LIG A   1      -9.164   1.262 126.558  0.00  0.00    +0.024 C 
ATOM     17  C   LIG A   1      -9.406   0.556 125.214  0.00  0.00    +0.020 C 
ATOM     18  C   LIG A   1      -8.473  -0.651 124.979  0.00  0.00    +0.074 C 
ATOM     19  C   LIG A   1      -6.999  -0.168 125.138  0.00  0.00    +0.036 C 
ATOM     20  C   LIG A   1      -5.964  -1.286 124.708  0.00  0.00    -0.003 C 
ATOM     21  C   LIG A   1      -6.252  -1.752 123.249  0.00  0.00    -0.011 C 
ATOM     22  C   LIG A   1      -7.699  -2.226 123.075  0.00  0.00    +0.004 C 
ATOM     23  C   LIG A   1      -8.692  -1.150 123.516  0.00  0.00    +0.019 C 
ATOM     24  C   LIG A   1      -5.280  -2.821 122.739  0.00  0.00    +0.008 C 
ATOM     25  C   LIG A   1      -5.837  -2.485 125.665  0.00  0.00    +0.008 C 
ATOM     26  C   LIG A   1      -8.295   3.609 128.621  0.00  0.00    +0.013 C 
ATOM     27  C   LIG A   1      -6.187   3.797 131.115  0.00  0.00    +0.012 C 
ATOM     28  C   LIG A   1      -6.601   1.863 133.706  0.00  0.00    +0.014 C 
ENDROOT
BRANCH  18  29
ATOM     29  C   LIG A   1      -8.867  -1.759 125.972  0.00  0.00    +0.311 C 
ATOM     30  O   LIG A   1      -8.422  -1.940 127.079  0.00  0.00    -0.250 OA
BRANCH  29  31
ATOM     31  O   LIG A   1      -9.867  -2.557 125.526  0.00  0.00    -0.480 OA
ATOM     32  H   LIG A   1     -10.174  -2.125 124.702  0.00  0.00    +0.295 HD
ENDBRANCH  29  31
ENDBRANCH  18  29
BRANCH  15  33
ATOM     33  C   LIG A   1      -7.484   3.028 125.896  0.00  0.00    +0.316 C 
ATOM     34  O   LIG A   1      -6.387   3.465 125.572  0.00  0.00    -0.250 OA
BRANCH  33  35
ATOM     35  O   LIG A   1      -8.602   3.631 125.432  0.00  0.00    -0.480 OA
ATOM     36  H   LIG A   1      -8.746   3.522 124.478  0.00  0.00    +0.295 HD
ENDBRANCH  33  35
ENDBRANCH  15  33
BRANCH   3  37
ATOM     37  O   LIG A   1      -4.361  -0.547 131.801  0.00  0.00    -0.345 OA
BRANCH  37  38
ATOM     38  C   LIG A   1      -3.394  -1.507 132.235  0.00  0.00    +0.282 C 
ATOM     39  O   LIG A   1      -3.053  -1.308 133.605  0.00  0.00    -0.343 OA
ATOM     40  C   LIG A   1      -2.174  -2.329 134.070  0.00  0.00    +0.149 C 
ATOM     41  C   LIG A   1      -2.887  -3.696 134.151  0.00  0.00    +0.174 C 
ATOM     42  C   LIG A   1      -4.115  -3.787 133.225  0.00  0.00    +0.179 C 
ATOM     43  C   LIG A   1      -3.927  -2.945 131.950  0.00  0.00    +0.201 C 
ATOM     44  C   LIG A   1      -1.636  -1.895 135.429  0.00  0.00    +0.040 C 
BRANCH  43  45
ATOM     45  O   LIG A   1      -3.001  -3.639 131.076  0.00  0.00    -0.384 OA
ATOM     46  H   LIG A   1      -2.831  -3.069 130.301  0.00  0.00    +0.210 HD
ENDBRANCH  43  45
BRANCH  42  47
ATOM     47  O   LIG A   1      -5.302  -3.415 133.923  0.00  0.00    -0.386 OA
ATOM     48  H   LIG A   1      -5.267  -3.808 134.812  0.00  0.00    +0.210 HD
ENDBRANCH  42  47
BRANCH  41  49
ATOM     49  O   LIG A   1      -1.932  -4.699 133.761  0.00  0.00    -0.387 OA
ATOM     50  H   LIG A   1      -1.436  -4.351 132.996  0.00  0.00    +0.210 HD
ENDBRANCH  41  49
ENDBRANCH  37  38
ENDBRANCH   3  37
TORSDOF 9
ENDMDL
MODEL 5
REMARK VINA RESULT:      -8.5      2.882      7.609
REMARK  Name = NuBBE_314
REMARK  16 active torsions:
REMARK  status: ('A' for Active; 'I' for Inactive)
REMARK    1  A    between atoms: C_1  and  C_2
REMARK    2  A    between atoms: C_2  and  C_56
REMARK    3  A    between atoms: C_3  and  O_40
REMARK    4  A    between atoms: C_7  and  C_39
REMARK    5  A    between atoms: C_12  and  C_38
REMARK    6  A    between atoms: C_18  and  C_35
REMARK    7  A    between atoms: C_21  and  C_32
REMARK    8  A    between atoms: C_24  and  C_31
REMARK    9  A    between atoms: C_26  and  C_30
REMARK   10  A    between atoms: C_32  and  O_33
REMARK   11  A    between atoms: C_35  and  O_36
REMARK   12  A    between atoms: O_40  and  C_41
REMARK   13  A    between atoms: C_44  and  C_55
REMARK   14  A    between atoms: C_46  and  O_54
REMARK   15  A    between atoms: C_48  and  O_53
REMARK   16  A    between atoms: C_50  and  O_52
REMARK                            x       y       z     vdW  Elec       q    Type
REMARK                         _______ _______ _______ _____ _____    ______ ____
ROOT
ATOM      1  C   LIG A   1      -9.176   2.343 128.927  0.00  0.00    +0.014 C 
ATOM      2  C   LIG A   1      -7.785   2.457 128.244  0.00  0.00    -0.005 C 
ATOM      3  C   LIG A   1      -7.034   3.696 128.842  0.00  0.00    +0.127 C 
ATOM      4  C   LIG A   1      -5.660   3.832 128.168  0.00  0.00    +0.033 C 
ATOM      5  C   LIG A   1      -4.758   2.605 128.380  0.00  0.00    +0.010 C 
ATOM      6  C   LIG A   1      -5.419   1.200 128.082  0.00  0.00    -0.025 C 
ATOM      7  C   LIG A   1      -6.909   1.185 128.574  0.00  0.00    +0.003 C 
ATOM      8  C   LIG A   1      -7.570  -0.156 128.249  0.00  0.00    +0.005 C 
ATOM      9  C   LIG A   1      -6.887  -1.287 129.019  0.00  0.00    +0.009 C 
ATOM     10  C   LIG A   1      -5.354  -1.474 128.802  0.00  0.00    -0.009 C 
ATOM     11  C   LIG A   1      -4.637  -0.039 128.817  0.00  0.00    +0.006 C 
ATOM     12  C   LIG A   1      -4.165   0.375 130.237  0.00  0.00    +0.031 C 
ATOM     13  C   LIG A   1      -4.235  -0.582 131.374  0.00  0.00    -0.026 C 
ATOM     14  C   LIG A   1      -4.499  -1.894 131.321  0.00  0.00    -0.052 C 
ATOM     15  C   LIG A   1      -4.757  -2.543 129.943  0.00  0.00    +0.094 C 
ATOM     16  C   LIG A   1      -5.758  -3.745 130.140  0.00  0.00    +0.024 C 
ATOM     17  C   LIG A   1      -5.494  -4.679 131.332  0.00  0.00    +0.020 C 
ATOM     18  C   LIG A   1      -5.447  -3.946 132.688  0.00  0.00    +0.074 C 
ATOM     19  C   LIG A   1      -4.392  -2.801 132.588  0.00  0.00    +0.036 C 
ATOM     20  C   LIG A   1      -4.121  -2.127 133.995  0.00  0.00    -0.003 C 
ATOM     21  C   LIG A   1      -3.687  -3.206 135.033  0.00  0.00    -0.011 C 
ATOM     22  C   LIG A   1      -4.712  -4.340 135.140  0.00  0.00    +0.004 C 
ATOM     23  C   LIG A   1      -4.987  -4.969 133.773  0.00  0.00    +0.019 C 
ATOM     24  C   LIG A   1      -3.380  -2.637 136.422  0.00  0.00    +0.008 C 
ATOM     25  C   LIG A   1      -5.255  -1.243 134.545  0.00  0.00    +0.008 C 
ATOM     26  C   LIG A   1      -5.181  -2.120 127.393  0.00  0.00    +0.013 C 
ATOM     27  C   LIG A   1      -5.279   1.036 126.539  0.00  0.00    +0.012 C 
ATOM     28  C   LIG A   1      -8.097   2.661 126.745  0.00  0.00    +0.014 C 
ENDROOT
BRANCH  18  29
ATOM     29  C   LIG A   1      -6.867  -3.447 133.011  0.00  0.00    +0.311 C 
ATOM     30  O   LIG A   1      -7.474  -2.562 132.458  0.00  0.00    -0.250 OA
BRANCH  29  31
ATOM     31  O   LIG A   1      -7.479  -4.149 133.995  0.00  0.00    -0.480 OA
ATOM     32  H   LIG A   1      -8.210  -3.567 134.289  0.00  0.00    +0.295 HD
ENDBRANCH  29  31
ENDBRANCH  18  29
BRANCH  15  33
ATOM     33  C   LIG A   1      -3.404  -3.158 129.439  0.00  0.00    +0.316 C 
ATOM     34  O   LIG A   1      -3.300  -4.249 128.893  0.00  0.00    -0.250 OA
BRANCH  33  35
ATOM     35  O   LIG A   1      -2.297  -2.407 129.636  0.00  0.00    -0.480 OA
ATOM     36  H   LIG A   1      -2.231  -2.022 130.525  0.00  0.00    +0.295 HD
ENDBRANCH  33  35
ENDBRANCH  15  33
BRANCH   3  37
ATOM     37  O   LIG A   1      -6.930   3.497 130.266  0.00  0.00    -0.345 OA
BRANCH  37  38
ATOM     38  C   LIG A   1      -7.403   4.556 131.102  0.00  0.00    +0.282 C 
ATOM     39  O   LIG A   1      -8.504   5.233 130.499  0.00  0.00    -0.343 OA
ATOM     40  C   LIG A   1      -9.047   6.216 131.377  0.00  0.00    +0.149 C 
ATOM     41  C   LIG A   1      -9.744   5.568 132.592  0.00  0.00    +0.174 C 
ATOM     42  C   LIG A   1      -9.230   4.146 132.888  0.00  0.00    +0.179 C 
ATOM     43  C   LIG A   1      -7.746   3.989 132.514  0.00  0.00    +0.201 C 
ATOM     44  C   LIG A   1     -10.012   7.078 130.569  0.00  0.00    +0.040 C 
BRANCH  43  45
ATOM     45  O   LIG A   1      -6.948   4.672 133.515  0.00  0.00    -0.384 OA
ATOM     46  H   LIG A   1      -6.032   4.338 133.452  0.00  0.00    +0.210 HD
ENDBRANCH  43  45
BRANCH  42  47
ATOM     47  O   LIG A   1     -10.036   3.171 132.229  0.00  0.00    -0.386 OA
ATOM     48  H   LIG A   1     -10.922   3.187 132.632  0.00  0.00    +0.210 HD
ENDBRANCH  42  47
BRANCH  41  49
ATOM     49  O   LIG A   1      -9.482   6.406 133.731  0.00  0.00    -0.387 OA
ATOM     50  H   LIG A   1      -9.615   5.864 134.532  0.00  0.00    +0.210 HD
ENDBRANCH  41  49
ENDBRANCH  37  38
ENDBRANCH   3  37
TORSDOF 9
ENDMDL
MODEL 6
REMARK VINA RESULT:      -8.5      1.990      8.652
REMARK  Name = NuBBE_314
REMARK  16 active torsions:
REMARK  status: ('A' for Active; 'I' for Inactive)
REMARK    1  A    between atoms: C_1  and  C_2
REMARK    2  A    between atoms: C_2  and  C_56
REMARK    3  A    between atoms: C_3  and  O_40
REMARK    4  A    between atoms: C_7  and  C_39
REMARK    5  A    between atoms: C_12  and  C_38
REMARK    6  A    between atoms: C_18  and  C_35
REMARK    7  A    between atoms: C_21  and  C_32
REMARK    8  A    between atoms: C_24  and  C_31
REMARK    9  A    between atoms: C_26  and  C_30
REMARK   10  A    between atoms: C_32  and  O_33
REMARK   11  A    between atoms: C_35  and  O_36
REMARK   12  A    between atoms: O_40  and  C_41
REMARK   13  A    between atoms: C_44  and  C_55
REMARK   14  A    between atoms: C_46  and  O_54
REMARK   15  A    between atoms: C_48  and  O_53
REMARK   16  A    between atoms: C_50  and  O_52
REMARK                            x       y       z     vdW  Elec       q    Type
REMARK                         _______ _______ _______ _____ _____    ______ ____
ROOT
ATOM      1  C   LIG A   1      -9.586  -1.807 125.617  0.00  0.00    +0.014 C 
ATOM      2  C   LIG A   1      -8.045  -1.999 125.580  0.00  0.00    -0.005 C 
ATOM      3  C   LIG A   1      -7.447  -1.036 124.497  0.00  0.00    +0.127 C 
ATOM      4  C   LIG A   1      -5.923  -1.222 124.436  0.00  0.00    +0.033 C 
ATOM      5  C   LIG A   1      -5.221  -0.905 125.768  0.00  0.00    +0.010 C 
ATOM      6  C   LIG A   1      -5.842  -1.580 127.055  0.00  0.00    -0.025 C 
ATOM      7  C   LIG A   1      -7.409  -1.586 126.964  0.00  0.00    +0.003 C 
ATOM      8  C   LIG A   1      -8.017  -2.278 128.186  0.00  0.00    +0.005 C 
ATOM      9  C   LIG A   1      -7.696  -1.492 129.458  0.00  0.00    +0.009 C 
ATOM     10  C   LIG A   1      -6.192  -1.241 129.782  0.00  0.00    -0.009 C 
ATOM     11  C   LIG A   1      -5.425  -0.810 128.440  0.00  0.00    +0.006 C 
ATOM     12  C   LIG A   1      -5.411   0.728 128.232  0.00  0.00    +0.031 C 
ATOM     13  C   LIG A   1      -5.909   1.647 129.291  0.00  0.00    -0.026 C 
ATOM     14  C   LIG A   1      -6.227   1.338 130.555  0.00  0.00    -0.052 C 
ATOM     15  C   LIG A   1      -6.068  -0.124 131.023  0.00  0.00    +0.094 C 
ATOM     16  C   LIG A   1      -7.157  -0.414 132.126  0.00  0.00    +0.024 C 
ATOM     17  C   LIG A   1      -7.356   0.664 133.204  0.00  0.00    +0.020 C 
ATOM     18  C   LIG A   1      -7.701   2.053 132.627  0.00  0.00    +0.074 C 
ATOM     19  C   LIG A   1      -6.597   2.442 131.596  0.00  0.00    +0.036 C 
ATOM     20  C   LIG A   1      -6.751   3.940 131.107  0.00  0.00    -0.003 C 
ATOM     21  C   LIG A   1      -6.750   4.907 132.331  0.00  0.00    -0.011 C 
ATOM     22  C   LIG A   1      -7.827   4.535 133.355  0.00  0.00    +0.004 C 
ATOM     23  C   LIG A   1      -7.686   3.079 133.803  0.00  0.00    +0.019 C 
ATOM     24  C   LIG A   1      -6.871   6.385 131.948  0.00  0.00    +0.008 C 
ATOM     25  C   LIG A   1      -7.941   4.221 130.172  0.00  0.00    +0.008 C 
ATOM     26  C   LIG A   1      -5.616  -2.598 130.290  0.00  0.00    +0.013 C 
ATOM     27  C   LIG A   1      -5.222  -3.009 127.069  0.00  0.00    +0.012 C 
ATOM     28  C   LIG A   1      -7.840  -3.479 125.186  0.00  0.00    +0.014 C 
ENDROOT
BRANCH  18  29
ATOM     29  C   LIG A   1      -9.112   1.979 132.018  0.00  0.00    +0.311 C 
ATOM     30  O   LIG A   1      -9.422   1.522 130.944  0.00  0.00    -0.250 OA
BRANCH  29  31
ATOM     31  O   LIG A   1     -10.084   2.439 132.841  0.00  0.00    -0.480 OA
ATOM     32  H   LIG A   1     -10.092   1.803 133.587  0.00  0.00    +0.295 HD
ENDBRANCH  29  31
ENDBRANCH  18  29
BRANCH  15  33
ATOM     33  C   LIG A   1      -4.669  -0.258 131.721  0.00  0.00    +0.316 C 
ATOM     34  O   LIG A   1      -3.622   0.186 131.264  0.00  0.00    -0.250 OA
BRANCH  33  35
ATOM     35  O   LIG A   1      -4.652  -0.912 132.904  0.00  0.00    -0.480 OA
ATOM     36  H   LIG A   1      -3.812  -1.359 133.099  0.00  0.00    +0.295 HD
ENDBRANCH  33  35
ENDBRANCH  15  33
BRANCH   3  37
ATOM     37  O   LIG A   1      -7.822   0.309 124.855  0.00  0.00    -0.345 OA
BRANCH  37  38
ATOM     38  C   LIG A   1      -7.035   1.368 124.304  0.00  0.00    +0.282 C 
ATOM     39  O   LIG A   1      -7.621   1.872 123.105  0.00  0.00    -0.343 OA
ATOM     40  C   LIG A   1      -6.900   2.998 122.614  0.00  0.00    +0.149 C 
ATOM     41  C   LIG A   1      -7.058   4.221 123.542  0.00  0.00    +0.174 C 
ATOM     42  C   LIG A   1      -7.431   3.833 124.986  0.00  0.00    +0.179 C 
ATOM     43  C   LIG A   1      -6.825   2.475 125.382  0.00  0.00    +0.201 C 
ATOM     44  C   LIG A   1      -7.404   3.294 121.205  0.00  0.00    +0.040 C 
BRANCH  43  45
ATOM     45  O   LIG A   1      -5.406   2.658 125.616  0.00  0.00    -0.384 OA
ATOM     46  H   LIG A   1      -5.072   1.871 126.090  0.00  0.00    +0.210 HD
ENDBRANCH  43  45
BRANCH  42  47
ATOM     47  O   LIG A   1      -8.847   3.840 125.159  0.00  0.00    -0.386 OA
ATOM     48  H   LIG A   1      -9.140   2.922 125.297  0.00  0.00    +0.210 HD
ENDBRANCH  42  47
BRANCH  41  49
ATOM     49  O   LIG A   1      -5.796   4.911 123.556  0.00  0.00    -0.387 OA
ATOM     50  H   LIG A   1      -5.095   4.249 123.405  0.00  0.00    +0.210 HD
ENDBRANCH  41  49
ENDBRANCH  37  38
ENDBRANCH   3  37
TORSDOF 9
ENDMDL
MODEL 7
REMARK VINA RESULT:      -8.5      2.685      8.102
REMARK  Name = NuBBE_314
REMARK  16 active torsions:
REMARK  status: ('A' for Active; 'I' for Inactive)
REMARK    1  A    between atoms: C_1  and  C_2
REMARK    2  A    between atoms: C_2  and  C_56
REMARK    3  A    between atoms: C_3  and  O_40
REMARK    4  A    between atoms: C_7  and  C_39
REMARK    5  A    between atoms: C_12  and  C_38
REMARK    6  A    between atoms: C_18  and  C_35
REMARK    7  A    between atoms: C_21  and  C_32
REMARK    8  A    between atoms: C_24  and  C_31
REMARK    9  A    between atoms: C_26  and  C_30
REMARK   10  A    between atoms: C_32  and  O_33
REMARK   11  A    between atoms: C_35  and  O_36
REMARK   12  A    between atoms: O_40  and  C_41
REMARK   13  A    between atoms: C_44  and  C_55
REMARK   14  A    between atoms: C_46  and  O_54
REMARK   15  A    between atoms: C_48  and  O_53
REMARK   16  A    between atoms: C_50  and  O_52
REMARK                            x       y       z     vdW  Elec       q    Type
REMARK                         _______ _______ _______ _____ _____    ______ ____
ROOT
ATOM      1  C   LIG A   1      -7.975  -2.749 128.682  0.00  0.00    +0.014 C 
ATOM      2  C   LIG A   1      -6.584  -3.011 129.324  0.00  0.00    -0.005 C 
ATOM      3  C   LIG A   1      -5.490  -2.914 128.206  0.00  0.00    +0.127 C 
ATOM      4  C   LIG A   1      -4.108  -3.184 128.821  0.00  0.00    +0.033 C 
ATOM      5  C   LIG A   1      -3.729  -2.177 129.920  0.00  0.00    +0.010 C 
ATOM      6  C   LIG A   1      -4.823  -1.920 131.031  0.00  0.00    -0.025 C 
ATOM      7  C   LIG A   1      -6.254  -1.891 130.388  0.00  0.00    +0.003 C 
ATOM      8  C   LIG A   1      -7.324  -1.687 131.462  0.00  0.00    +0.005 C 
ATOM      9  C   LIG A   1      -7.160  -0.318 132.124  0.00  0.00    +0.009 C 
ATOM     10  C   LIG A   1      -5.784  -0.007 132.790  0.00  0.00    -0.009 C 
ATOM     11  C   LIG A   1      -4.603  -0.502 131.823  0.00  0.00    +0.006 C 
ATOM     12  C   LIG A   1      -4.133   0.607 130.844  0.00  0.00    +0.031 C 
ATOM     13  C   LIG A   1      -4.637   2.002 130.971  0.00  0.00    -0.026 C 
ATOM     14  C   LIG A   1      -5.350   2.523 131.979  0.00  0.00    -0.052 C 
ATOM     15  C   LIG A   1      -5.708   1.619 133.178  0.00  0.00    +0.094 C 
ATOM     16  C   LIG A   1      -7.087   2.103 133.770  0.00  0.00    +0.024 C 
ATOM     17  C   LIG A   1      -7.277   3.619 133.936  0.00  0.00    +0.020 C 
ATOM     18  C   LIG A   1      -7.082   4.409 132.626  0.00  0.00    +0.074 C 
ATOM     19  C   LIG A   1      -5.682   4.048 132.041  0.00  0.00    +0.036 C 
ATOM     20  C   LIG A   1      -5.304   4.968 130.809  0.00  0.00    -0.003 C 
ATOM     21  C   LIG A   1      -5.375   6.470 131.219  0.00  0.00    -0.011 C 
ATOM     22  C   LIG A   1      -6.744   6.840 131.799  0.00  0.00    +0.004 C 
ATOM     23  C   LIG A   1      -7.113   5.931 132.972  0.00  0.00    +0.019 C 
ATOM     24  C   LIG A   1      -5.000   7.436 130.090  0.00  0.00    +0.008 C 
ATOM     25  C   LIG A   1      -6.086   4.703 129.510  0.00  0.00    +0.008 C 
ATOM     26  C   LIG A   1      -5.739  -0.827 134.117  0.00  0.00    +0.013 C 
ATOM     27  C   LIG A   1      -4.624  -3.092 132.037  0.00  0.00    +0.012 C 
ATOM     28  C   LIG A   1      -6.676  -4.443 129.895  0.00  0.00    +0.014 C 
ENDROOT
BRANCH  18  29
ATOM     29  C   LIG A   1      -8.249   4.066 131.682  0.00  0.00    +0.311 C 
ATOM     30  O   LIG A   1      -8.319   3.138 130.914  0.00  0.00    -0.250 OA
BRANCH  29  31
ATOM     31  O   LIG A   1      -9.312   4.896 131.809  0.00  0.00    -0.480 OA
ATOM     32  H   LIG A   1     -10.083   4.295 131.878  0.00  0.00    +0.295 HD
ENDBRANCH  29  31
ENDBRANCH  18  29
BRANCH  15  33
ATOM     33  C   LIG A   1      -4.630   1.849 134.295  0.00  0.00    +0.316 C 
ATOM     34  O   LIG A   1      -3.424   1.907 134.091  0.00  0.00    -0.250 OA
BRANCH  33  35
ATOM     35  O   LIG A   1      -5.098   1.990 135.556  0.00  0.00    -0.480 OA
ATOM     36  H   LIG A   1      -4.465   2.395 136.171  0.00  0.00    +0.295 HD
ENDBRANCH  33  35
ENDBRANCH  15  33
BRANCH   3  37
ATOM     37  O   LIG A   1      -5.583  -1.602 127.617  0.00  0.00    -0.345 OA
BRANCH  37  38
ATOM     38  C   LIG A   1      -5.480  -1.523 126.193  0.00  0.00    +0.282 C 
ATOM     39  O   LIG A   1      -5.228  -2.807 125.626  0.00  0.00    -0.343 OA
ATOM     40  C   LIG A   1      -5.234  -2.751 124.202  0.00  0.00    +0.149 C 
ATOM     41  C   LIG A   1      -6.649  -2.470 123.652  0.00  0.00    +0.174 C 
ATOM     42  C   LIG A   1      -7.563  -1.773 124.678  0.00  0.00    +0.179 C 
ATOM     43  C   LIG A   1      -6.763  -0.851 125.616  0.00  0.00    +0.201 C 
ATOM     44  C   LIG A   1      -4.682  -4.074 123.682  0.00  0.00    +0.040 C 
BRANCH  43  45
ATOM     45  O   LIG A   1      -6.393   0.342 124.878  0.00  0.00    -0.384 OA
ATOM     46  H   LIG A   1      -6.939   0.380 124.069  0.00  0.00    +0.210 HD
ENDBRANCH  43  45
BRANCH  42  47
ATOM     47  O   LIG A   1      -8.318  -2.733 125.415  0.00  0.00    -0.386 OA
ATOM     48  H   LIG A   1      -9.193  -2.816 124.998  0.00  0.00    +0.210 HD
ENDBRANCH  42  47
BRANCH  41  49
ATOM     49  O   LIG A   1      -6.499  -1.616 122.505  0.00  0.00    -0.387 OA
ATOM     50  H   LIG A   1      -6.282  -0.721 122.829  0.00  0.00    +0.210 HD
ENDBRANCH  41  49
ENDBRANCH  37  38
ENDBRANCH   3  37
TORSDOF 9
ENDMDL
MODEL 8
REMARK VINA RESULT:      -8.4      1.636      2.255
REMARK  Name = NuBBE_314
REMARK  16 active torsions:
REMARK  status: ('A' for Active; 'I' for Inactive)
REMARK    1  A    between atoms: C_1  and  C_2
REMARK    2  A    between atoms: C_2  and  C_56
REMARK    3  A    between atoms: C_3  and  O_40
REMARK    4  A    between atoms: C_7  and  C_39
REMARK    5  A    between atoms: C_12  and  C_38
REMARK    6  A    between atoms: C_18  and  C_35
REMARK    7  A    between atoms: C_21  and  C_32
REMARK    8  A    between atoms: C_24  and  C_31
REMARK    9  A    between atoms: C_26  and  C_30
REMARK   10  A    between atoms: C_32  and  O_33
REMARK   11  A    between atoms: C_35  and  O_36
REMARK   12  A    between atoms: O_40  and  C_41
REMARK   13  A    between atoms: C_44  and  C_55
REMARK   14  A    between atoms: C_46  and  O_54
REMARK   15  A    between atoms: C_48  and  O_53
REMARK   16  A    between atoms: C_50  and  O_52
REMARK                            x       y       z     vdW  Elec       q    Type
REMARK                         _______ _______ _______ _____ _____    ______ ____
ROOT
ATOM      1  C   LIG A   1      -8.514   1.337 132.307  0.00  0.00    +0.014 C 
ATOM      2  C   LIG A   1      -7.448   2.396 131.914  0.00  0.00    -0.005 C 
ATOM      3  C   LIG A   1      -6.056   1.933 132.466  0.00  0.00    +0.127 C 
ATOM      4  C   LIG A   1      -4.989   2.976 132.098  0.00  0.00    +0.033 C 
ATOM      5  C   LIG A   1      -4.836   3.175 130.580  0.00  0.00    +0.010 C 
ATOM      6  C   LIG A   1      -6.177   3.399 129.774  0.00  0.00    -0.025 C 
ATOM      7  C   LIG A   1      -7.314   2.481 130.343  0.00  0.00    +0.003 C 
ATOM      8  C   LIG A   1      -8.628   2.723 129.596  0.00  0.00    +0.005 C 
ATOM      9  C   LIG A   1      -8.488   2.317 128.129  0.00  0.00    +0.009 C 
ATOM     10  C   LIG A   1      -7.362   3.008 127.300  0.00  0.00    -0.009 C 
ATOM     11  C   LIG A   1      -6.019   3.067 128.176  0.00  0.00    +0.006 C 
ATOM     12  C   LIG A   1      -5.114   1.824 127.960  0.00  0.00    +0.031 C 
ATOM     13  C   LIG A   1      -5.431   0.823 126.905  0.00  0.00    -0.026 C 
ATOM     14  C   LIG A   1      -6.343   0.927 125.930  0.00  0.00    -0.052 C 
ATOM     15  C   LIG A   1      -7.184   2.219 125.835  0.00  0.00    +0.094 C 
ATOM     16  C   LIG A   1      -8.596   1.849 125.240  0.00  0.00    +0.024 C 
ATOM     17  C   LIG A   1      -8.613   0.896 124.034  0.00  0.00    +0.020 C 
ATOM     18  C   LIG A   1      -7.907  -0.448 124.305  0.00  0.00    +0.074 C 
ATOM     19  C   LIG A   1      -6.460  -0.149 124.803  0.00  0.00    +0.036 C 
ATOM     20  C   LIG A   1      -5.588  -1.467 124.905  0.00  0.00    -0.003 C 
ATOM     21  C   LIG A   1      -5.572  -2.208 123.534  0.00  0.00    -0.011 C 
ATOM     22  C   LIG A   1      -6.988  -2.506 123.029  0.00  0.00    +0.004 C 
ATOM     23  C   LIG A   1      -7.830  -1.232 122.957  0.00  0.00    +0.019 C 
ATOM     24  C   LIG A   1      -4.730  -3.487 123.534  0.00  0.00    +0.008 C 
ATOM     25  C   LIG A   1      -5.951  -2.423 126.055  0.00  0.00    +0.008 C 
ATOM     26  C   LIG A   1      -7.852   4.461 127.013  0.00  0.00    +0.013 C 
ATOM     27  C   LIG A   1      -6.471   4.919 129.943  0.00  0.00    +0.012 C 
ATOM     28  C   LIG A   1      -7.914   3.700 132.598  0.00  0.00    +0.014 C 
ENDROOT
BRANCH  18  29
ATOM     29  C   LIG A   1      -8.754  -1.238 125.319  0.00  0.00    +0.311 C 
ATOM     30  O   LIG A   1      -9.515  -2.146 125.085  0.00  0.00    -0.250 OA
BRANCH  29  31
ATOM     31  O   LIG A   1      -8.543  -0.871 126.605  0.00  0.00    -0.480 OA
ATOM     32  H   LIG A   1      -9.376  -0.428 126.872  0.00  0.00    +0.295 HD
ENDBRANCH  29  31
ENDBRANCH  18  29
BRANCH  15  33
ATOM     33  C   LIG A   1      -6.490   3.171 124.799  0.00  0.00    +0.316 C 
ATOM     34  O   LIG A   1      -5.287   3.399 124.765  0.00  0.00    -0.250 OA
BRANCH  33  35
ATOM     35  O   LIG A   1      -7.303   3.764 123.896  0.00  0.00    -0.480 OA
ATOM     36  H   LIG A   1      -7.877   3.146 123.413  0.00  0.00    +0.295 HD
ENDBRANCH  33  35
ENDBRANCH  15  33
BRANCH   3  37
ATOM     37  O   LIG A   1      -5.773   0.636 131.903  0.00  0.00    -0.345 OA
BRANCH  37  38
ATOM     38  C   LIG A   1      -5.605  -0.445 132.823  0.00  0.00    +0.282 C 
ATOM     39  O   LIG A   1      -4.650  -1.386 132.340  0.00  0.00    -0.343 OA
ATOM     40  C   LIG A   1      -4.400  -2.407 133.303  0.00  0.00    +0.149 C 
ATOM     41  C   LIG A   1      -3.653  -1.853 134.535  0.00  0.00    +0.174 C 
ATOM     42  C   LIG A   1      -3.850  -0.336 134.722  0.00  0.00    +0.179 C 
ATOM     43  C   LIG A   1      -5.235   0.121 134.229  0.00  0.00    +0.201 C 
ATOM     44  C   LIG A   1      -3.605  -3.511 132.614  0.00  0.00    +0.040 C 
BRANCH  43  45
ATOM     45  O   LIG A   1      -6.228  -0.301 135.197  0.00  0.00    -0.384 OA
ATOM     46  H   LIG A   1      -6.294   0.388 135.886  0.00  0.00    +0.210 HD
ENDBRANCH  43  45
BRANCH  42  47
ATOM     47  O   LIG A   1      -2.805   0.392 134.080  0.00  0.00    -0.386 OA
ATOM     48  H   LIG A   1      -2.706   1.246 134.536  0.00  0.00    +0.210 HD
ENDBRANCH  42  47
BRANCH  41  49
ATOM     49  O   LIG A   1      -4.170  -2.537 135.690  0.00  0.00    -0.387 OA
ATOM     50  H   LIG A   1      -5.015  -2.111 135.931  0.00  0.00    +0.210 HD
ENDBRANCH  41  49
ENDBRANCH  37  38
ENDBRANCH   3  37
TORSDOF 9
ENDMDL
MODEL 9
REMARK VINA RESULT:      -8.4      2.146      2.930
REMARK  Name = NuBBE_314
REMARK  16 active torsions:
REMARK  status: ('A' for Active; 'I' for Inactive)
REMARK    1  A    between atoms: C_1  and  C_2
REMARK    2  A    between atoms: C_2  and  C_56
REMARK    3  A    between atoms: C_3  and  O_40
REMARK    4  A    between atoms: C_7  and  C_39
REMARK    5  A    between atoms: C_12  and  C_38
REMARK    6  A    between atoms: C_18  and  C_35
REMARK    7  A    between atoms: C_21  and  C_32
REMARK    8  A    between atoms: C_24  and  C_31
REMARK    9  A    between atoms: C_26  and  C_30
REMARK   10  A    between atoms: C_32  and  O_33
REMARK   11  A    between atoms: C_35  and  O_36
REMARK   12  A    between atoms: O_40  and  C_41
REMARK   13  A    between atoms: C_44  and  C_55
REMARK   14  A    between atoms: C_46  and  O_54
REMARK   15  A    between atoms: C_48  and  O_53
REMARK   16  A    between atoms: C_50  and  O_52
REMARK                            x       y       z     vdW  Elec       q    Type
REMARK                         _______ _______ _______ _____ _____    ______ ____
ROOT
ATOM      1  C   LIG A   1      -7.261   4.572 133.101  0.00  0.00    +0.014 C 
ATOM      2  C   LIG A   1      -5.766   4.147 133.086  0.00  0.00    -0.005 C 
ATOM      3  C   LIG A   1      -5.640   2.737 133.759  0.00  0.00    +0.127 C 
ATOM      4  C   LIG A   1      -4.166   2.305 133.766  0.00  0.00    +0.033 C 
ATOM      5  C   LIG A   1      -3.562   2.194 132.356  0.00  0.00    +0.010 C 
ATOM      6  C   LIG A   1      -3.806   3.428 131.399  0.00  0.00    -0.025 C 
ATOM      7  C   LIG A   1      -5.257   3.993 131.600  0.00  0.00    +0.003 C 
ATOM      8  C   LIG A   1      -5.487   5.215 130.709  0.00  0.00    +0.005 C 
ATOM      9  C   LIG A   1      -5.416   4.821 129.233  0.00  0.00    +0.009 C 
ATOM     10  C   LIG A   1      -4.103   4.140 128.738  0.00  0.00    -0.009 C 
ATOM     11  C   LIG A   1      -3.634   3.047 129.814  0.00  0.00    +0.006 C 
ATOM     12  C   LIG A   1      -4.215   1.637 129.521  0.00  0.00    +0.031 C 
ATOM     13  C   LIG A   1      -4.963   1.366 128.263  0.00  0.00    -0.026 C 
ATOM     14  C   LIG A   1      -5.069   2.161 127.190  0.00  0.00    -0.052 C 
ATOM     15  C   LIG A   1      -4.341   3.522 127.201  0.00  0.00    +0.094 C 
ATOM     16  C   LIG A   1      -5.174   4.538 126.329  0.00  0.00    +0.024 C 
ATOM     17  C   LIG A   1      -5.705   4.022 124.981  0.00  0.00    +0.020 C 
ATOM     18  C   LIG A   1      -6.583   2.760 125.110  0.00  0.00    +0.074 C 
ATOM     19  C   LIG A   1      -5.769   1.675 125.881  0.00  0.00    +0.036 C 
ATOM     20  C   LIG A   1      -6.507   0.274 125.878  0.00  0.00    -0.003 C 
ATOM     21  C   LIG A   1      -6.802  -0.174 124.414  0.00  0.00    -0.011 C 
ATOM     22  C   LIG A   1      -7.598   0.883 123.642  0.00  0.00    +0.004 C 
ATOM     23  C   LIG A   1      -6.891   2.240 123.671  0.00  0.00    +0.019 C 
ATOM     24  C   LIG A   1      -7.497  -1.536 124.314  0.00  0.00    +0.008 C 
ATOM     25  C   LIG A   1      -7.765   0.177 126.758  0.00  0.00    +0.008 C 
ATOM     26  C   LIG A   1      -3.027   5.267 128.648  0.00  0.00    +0.013 C 
ATOM     27  C   LIG A   1      -2.691   4.440 131.795  0.00  0.00    +0.012 C 
ATOM     28  C   LIG A   1      -5.039   5.229 133.914  0.00  0.00    +0.014 C 
ENDROOT
BRANCH  18  29
ATOM     29  C   LIG A   1      -7.893   3.159 125.812  0.00  0.00    +0.311 C 
ATOM     30  O   LIG A   1      -8.108   3.183 126.999  0.00  0.00    -0.250 OA
BRANCH  29  31
ATOM     31  O   LIG A   1      -8.861   3.575 124.959  0.00  0.00    -0.480 OA
ATOM     32  H   LIG A   1      -8.552   3.278 124.078  0.00  0.00    +0.295 HD
ENDBRANCH  29  31
ENDBRANCH  18  29
BRANCH  15  33
ATOM     33  C   LIG A   1      -2.958   3.336 126.482  0.00  0.00    +0.316 C 
ATOM     34  O   LIG A   1      -2.537   4.065 125.593  0.00  0.00    -0.250 OA
BRANCH  33  35
ATOM     35  O   LIG A   1      -2.207   2.291 126.897  0.00  0.00    -0.480 OA
ATOM     36  H   LIG A   1      -1.325   2.540 127.219  0.00  0.00    +0.295 HD
ENDBRANCH  33  35
ENDBRANCH  15  33
BRANCH   3  37
ATOM     37  O   LIG A   1      -6.477   1.824 133.021  0.00  0.00    -0.345 OA
BRANCH  37  38
ATOM     38  C   LIG A   1      -6.142   0.436 133.096  0.00  0.00    +0.282 C 
ATOM     39  O   LIG A   1      -6.562  -0.126 134.337  0.00  0.00    -0.343 OA
ATOM     40  C   LIG A   1      -6.329  -1.531 134.371  0.00  0.00    +0.149 C 
ATOM     41  C   LIG A   1      -7.256  -2.283 133.393  0.00  0.00    +0.174 C 
ATOM     42  C   LIG A   1      -7.771  -1.388 132.249  0.00  0.00    +0.179 C 
ATOM     43  C   LIG A   1      -6.742  -0.310 131.864  0.00  0.00    +0.201 C 
ATOM     44  C   LIG A   1      -6.529  -2.001 135.808  0.00  0.00    +0.040 C 
BRANCH  43  45
ATOM     45  O   LIG A   1      -5.673  -0.944 131.117  0.00  0.00    -0.384 OA
ATOM     46  H   LIG A   1      -5.307  -1.667 131.664  0.00  0.00    +0.210 HD
ENDBRANCH  43  45
BRANCH  42  47
ATOM     47  O   LIG A   1      -9.028  -0.806 132.591  0.00  0.00    -0.386 OA
ATOM     48  H   LIG A   1      -9.688  -1.107 131.943  0.00  0.00    +0.210 HD
ENDBRANCH  42  47
BRANCH  41  49
ATOM     49  O   LIG A   1      -6.495  -3.366 132.831  0.00  0.00    -0.387 OA
ATOM     50  H   LIG A   1      -6.928  -4.200 133.096  0.00  0.00    +0.210 HD
ENDBRANCH  41  49
ENDBRANCH  37  38
ENDBRANCH   3  37
TORSDOF 9
ENDMDL
