MODEL 1
REMARK VINA RESULT:      -8.3      0.000      0.000
REMARK  Name = NuBBE_1405
REMARK  13 active torsions:
REMARK  status: ('A' for Active; 'I' for Inactive)
REMARK    1  A    between atoms: C_1  and  C_2
REMARK    2  A    between atoms: C_11  and  C_12
REMARK    3  A    between atoms: C_18  and  O_22
REMARK    4  A    between atoms: C_25  and  C_27
REMARK    5  A    between atoms: C_27  and  C_29
REMARK    6  A    between atoms: C_27  and  C_38
REMARK    7  A    between atoms: C_29  and  C_30
REMARK    8  A    between atoms: C_30  and  C_31
REMARK    9  A    between atoms: C_31  and  C_33
REMARK   10  A    between atoms: C_31  and  C_36
REMARK   11  A    between atoms: C_33  and  C_34
REMARK   12  A    between atoms: C_33  and  C_35
REMARK   13  A    between atoms: C_36  and  C_37
REMARK                            x       y       z     vdW  Elec       q    Type
REMARK                         _______ _______ _______ _____ _____    ______ ____
ROOT
ATOM      1  C   LIG A   1      -5.487   0.654 130.767  0.00  0.00    +0.012 C 
ATOM      2  C   LIG A   1      -6.058  -0.324 129.690  0.00  0.00    -0.025 C 
ATOM      3  C   LIG A   1      -7.397  -0.979 130.088  0.00  0.00    +0.006 C 
ATOM      4  C   LIG A   1      -7.361  -2.157 131.066  0.00  0.00    +0.067 C 
ATOM      5  C   LIG A   1      -6.388  -3.260 130.547  0.00  0.00    +0.010 C 
ATOM      6  C   LIG A   1      -5.508  -2.806 129.361  0.00  0.00    +0.005 C 
ATOM      7  C   LIG A   1      -4.967  -1.387 129.494  0.00  0.00    +0.007 C 
ATOM      8  C   LIG A   1      -5.627  -4.144 131.597  0.00  0.00    -0.007 C 
ATOM      9  C   LIG A   1      -5.559  -5.568 130.960  0.00  0.00    +0.016 C 
ATOM     10  C   LIG A   1      -6.313  -4.139 132.953  0.00  0.00    -0.058 C 
ATOM     11  C   LIG A   1      -7.055  -3.111 133.400  0.00  0.00    +0.046 C 
ATOM     12  C   LIG A   1      -7.269  -1.921 132.542  0.00  0.00    +0.160 C 
ATOM     13  O   LIG A   1      -7.494  -0.826 133.086  0.00  0.00    -0.292 OA
ATOM     14  C   LIG A   1      -5.815  -5.179 133.922  0.00  0.00    +0.062 C 
ATOM     15  C   LIG A   1      -4.331  -4.899 134.217  0.00  0.00    +0.119 C 
ATOM     16  C   LIG A   1      -3.486  -4.593 132.968  0.00  0.00    +0.032 C 
ATOM     17  C   LIG A   1      -4.181  -3.680 131.937  0.00  0.00    +0.013 C 
ATOM     18  C   LIG A   1      -8.338   0.205 130.238  0.00  0.00    +0.005 C 
ATOM     19  C   LIG A   1      -7.905   1.131 129.069  0.00  0.00    +0.004 C 
ATOM     20  C   LIG A   1      -6.567   0.546 128.466  0.00  0.00    -0.002 C 
ENDROOT
BRANCH  15  21
ATOM     21  O   LIG A   1      -3.761  -6.008 134.908  0.00  0.00    -0.392 OA
ATOM     22  H   LIG A   1      -2.884  -5.742 135.233  0.00  0.00    +0.210 HD
ENDBRANCH  15  21
BRANCH  20  23
ATOM     23  C   LIG A   1      -6.858  -0.142 127.066  0.00  0.00    -0.010 C 
ATOM     24  C   LIG A   1      -6.021   0.390 125.896  0.00  0.00    +0.008 C 
BRANCH  23  25
ATOM     25  C   LIG A   1      -8.362  -0.107 126.615  0.00  0.00    +0.004 C 
BRANCH  25  26
ATOM     26  C   LIG A   1      -8.714  -1.082 125.484  0.00  0.00    +0.004 C 
BRANCH  26  27
ATOM     27  C   LIG A   1      -9.046  -2.543 125.902  0.00  0.00    -0.009 C 
BRANCH  27  28
ATOM     28  C   LIG A   1      -8.728  -3.528 124.721  0.00  0.00    -0.014 C 
ATOM     29  C   LIG A   1      -9.457  -3.168 123.418  0.00  0.00    +0.007 C 
ATOM     30  C   LIG A   1      -7.220  -3.618 124.420  0.00  0.00    +0.007 C 
ENDBRANCH  27  28
BRANCH  27  31
ATOM     31  C   LIG A   1      -8.447  -2.987 127.266  0.00  0.00    +0.000 C 
ATOM     32  C   LIG A   1      -9.161  -4.077 128.057  0.00  0.00    +0.004 C 
ENDBRANCH  27  31
ENDBRANCH  26  27
ENDBRANCH  25  26
ENDBRANCH  23  25
ENDBRANCH  20  23
TORSDOF 7
ENDMDL
MODEL 2
REMARK VINA RESULT:      -8.1      3.722      8.669
REMARK  Name = NuBBE_1405
REMARK  13 active torsions:
REMARK  status: ('A' for Active; 'I' for Inactive)
REMARK    1  A    between atoms: C_1  and  C_2
REMARK    2  A    between atoms: C_11  and  C_12
REMARK    3  A    between atoms: C_18  and  O_22
REMARK    4  A    between atoms: C_25  and  C_27
REMARK    5  A    between atoms: C_27  and  C_29
REMARK    6  A    between atoms: C_27  and  C_38
REMARK    7  A    between atoms: C_29  and  C_30
REMARK    8  A    between atoms: C_30  and  C_31
REMARK    9  A    between atoms: C_31  and  C_33
REMARK   10  A    between atoms: C_31  and  C_36
REMARK   11  A    between atoms: C_33  and  C_34
REMARK   12  A    between atoms: C_33  and  C_35
REMARK   13  A    between atoms: C_36  and  C_37
REMARK                            x       y       z     vdW  Elec       q    Type
REMARK                         _______ _______ _______ _____ _____    ______ ____
ROOT
ATOM      1  C   LIG A   1      -6.616  -2.467 125.297  0.00  0.00    +0.012 C 
ATOM      2  C   LIG A   1      -7.298  -1.642 126.435  0.00  0.00    -0.025 C 
ATOM      3  C   LIG A   1      -8.800  -1.379 126.202  0.00  0.00    +0.006 C 
ATOM      4  C   LIG A   1      -9.195  -0.266 125.227  0.00  0.00    +0.067 C 
ATOM      5  C   LIG A   1      -8.498   1.072 125.625  0.00  0.00    +0.010 C 
ATOM      6  C   LIG A   1      -7.397   0.906 126.696  0.00  0.00    +0.005 C 
ATOM      7  C   LIG A   1      -6.515  -0.322 126.498  0.00  0.00    +0.007 C 
ATOM      8  C   LIG A   1      -8.129   2.093 124.491  0.00  0.00    -0.007 C 
ATOM      9  C   LIG A   1      -8.370   3.503 125.116  0.00  0.00    +0.016 C 
ATOM     10  C   LIG A   1      -8.942   1.862 123.228  0.00  0.00    -0.058 C 
ATOM     11  C   LIG A   1      -9.429   0.660 122.874  0.00  0.00    +0.046 C 
ATOM     12  C   LIG A   1      -9.216  -0.516 123.750  0.00  0.00    +0.160 C 
ATOM     13  O   LIG A   1      -9.201  -1.648 123.238  0.00  0.00    -0.292 OA
ATOM     14  C   LIG A   1      -8.857   2.965 122.206  0.00  0.00    +0.062 C 
ATOM     15  C   LIG A   1      -7.397   3.081 121.735  0.00  0.00    +0.119 C 
ATOM     16  C   LIG A   1      -6.360   3.049 122.872  0.00  0.00    +0.032 C 
ATOM     17  C   LIG A   1      -6.662   2.018 123.979  0.00  0.00    +0.013 C 
ATOM     18  C   LIG A   1      -9.400  -2.775 126.166  0.00  0.00    +0.005 C 
ATOM     19  C   LIG A   1      -8.603  -3.514 127.274  0.00  0.00    +0.004 C 
ATOM     20  C   LIG A   1      -7.410  -2.577 127.712  0.00  0.00    -0.002 C 
ENDROOT
BRANCH  15  21
ATOM     21  O   LIG A   1      -7.228   4.278 120.980  0.00  0.00    -0.392 OA
ATOM     22  H   LIG A   1      -8.109   4.589 120.708  0.00  0.00    +0.210 HD
ENDBRANCH  15  21
BRANCH  20  23
ATOM     23  C   LIG A   1      -7.709  -1.946 129.137  0.00  0.00    -0.010 C 
ATOM     24  C   LIG A   1      -6.739  -0.842 129.574  0.00  0.00    +0.008 C 
BRANCH  23  25
ATOM     25  C   LIG A   1      -7.792  -2.985 130.311  0.00  0.00    +0.004 C 
BRANCH  25  26
ATOM     26  C   LIG A   1      -6.515  -3.102 131.155  0.00  0.00    +0.004 C 
BRANCH  26  27
ATOM     27  C   LIG A   1      -5.527  -4.241 130.770  0.00  0.00    -0.009 C 
BRANCH  27  28
ATOM     28  C   LIG A   1      -4.136  -3.636 130.366  0.00  0.00    -0.014 C 
ATOM     29  C   LIG A   1      -4.031  -3.301 128.871  0.00  0.00    +0.007 C 
ATOM     30  C   LIG A   1      -3.791  -2.368 131.169  0.00  0.00    +0.007 C 
ENDBRANCH  27  28
BRANCH  27  31
ATOM     31  C   LIG A   1      -5.431  -5.401 131.800  0.00  0.00    +0.000 C 
ATOM     32  C   LIG A   1      -5.636  -5.085 133.277  0.00  0.00    +0.004 C 
ENDBRANCH  27  31
ENDBRANCH  26  27
ENDBRANCH  25  26
ENDBRANCH  23  25
ENDBRANCH  20  23
TORSDOF 7
ENDMDL
MODEL 3
REMARK VINA RESULT:      -8.0      3.395      6.989
REMARK  Name = NuBBE_1405
REMARK  13 active torsions:
REMARK  status: ('A' for Active; 'I' for Inactive)
REMARK    1  A    between atoms: C_1  and  C_2
REMARK    2  A    between atoms: C_11  and  C_12
REMARK    3  A    between atoms: C_18  and  O_22
REMARK    4  A    between atoms: C_25  and  C_27
REMARK    5  A    between atoms: C_27  and  C_29
REMARK    6  A    between atoms: C_27  and  C_38
REMARK    7  A    between atoms: C_29  and  C_30
REMARK    8  A    between atoms: C_30  and  C_31
REMARK    9  A    between atoms: C_31  and  C_33
REMARK   10  A    between atoms: C_31  and  C_36
REMARK   11  A    between atoms: C_33  and  C_34
REMARK   12  A    between atoms: C_33  and  C_35
REMARK   13  A    between atoms: C_36  and  C_37
REMARK                            x       y       z     vdW  Elec       q    Type
REMARK                         _______ _______ _______ _____ _____    ______ ____
ROOT
ATOM      1  C   LIG A   1      -7.216   0.867 123.879  0.00  0.00    +0.012 C 
ATOM      2  C   LIG A   1      -7.142  -0.045 125.146  0.00  0.00    -0.025 C 
ATOM      3  C   LIG A   1      -7.926   0.501 126.356  0.00  0.00    +0.006 C 
ATOM      4  C   LIG A   1      -7.286   1.619 127.185  0.00  0.00    +0.067 C 
ATOM      5  C   LIG A   1      -5.859   1.195 127.651  0.00  0.00    +0.010 C 
ATOM      6  C   LIG A   1      -5.333  -0.083 126.961  0.00  0.00    +0.005 C 
ATOM      7  C   LIG A   1      -5.645  -0.161 125.470  0.00  0.00    +0.007 C 
ATOM      8  C   LIG A   1      -4.768   2.308 127.836  0.00  0.00    -0.007 C 
ATOM      9  C   LIG A   1      -3.926   1.856 129.071  0.00  0.00    +0.016 C 
ATOM     10  C   LIG A   1      -5.382   3.686 128.017  0.00  0.00    -0.058 C 
ATOM     11  C   LIG A   1      -6.572   4.036 127.499  0.00  0.00    +0.046 C 
ATOM     12  C   LIG A   1      -7.373   3.046 126.739  0.00  0.00    +0.160 C 
ATOM     13  O   LIG A   1      -8.166   3.456 125.875  0.00  0.00    -0.292 OA
ATOM     14  C   LIG A   1      -4.427   4.753 128.484  0.00  0.00    +0.062 C 
ATOM     15  C   LIG A   1      -3.336   4.932 127.414  0.00  0.00    +0.119 C 
ATOM     16  C   LIG A   1      -2.758   3.612 126.874  0.00  0.00    +0.032 C 
ATOM     17  C   LIG A   1      -3.810   2.510 126.627  0.00  0.00    +0.013 C 
ATOM     18  C   LIG A   1      -9.360   0.548 125.855  0.00  0.00    +0.005 C 
ATOM     19  C   LIG A   1      -9.465  -0.750 125.010  0.00  0.00    +0.004 C 
ATOM     20  C   LIG A   1      -8.009  -1.343 124.860  0.00  0.00    -0.002 C 
ENDROOT
BRANCH  15  21
ATOM     21  O   LIG A   1      -2.276   5.729 127.937  0.00  0.00    -0.392 OA
ATOM     22  H   LIG A   1      -2.138   6.480 127.335  0.00  0.00    +0.210 HD
ENDBRANCH  15  21
BRANCH  20  23
ATOM     23  C   LIG A   1      -7.847  -2.627 125.779  0.00  0.00    -0.010 C 
ATOM     24  C   LIG A   1      -7.882  -3.966 125.033  0.00  0.00    +0.008 C 
BRANCH  23  25
ATOM     25  C   LIG A   1      -8.878  -2.724 126.960  0.00  0.00    +0.004 C 
BRANCH  25  26
ATOM     26  C   LIG A   1      -8.465  -3.674 128.092  0.00  0.00    +0.004 C 
BRANCH  26  27
ATOM     27  C   LIG A   1      -7.867  -3.017 129.369  0.00  0.00    -0.009 C 
BRANCH  27  28
ATOM     28  C   LIG A   1      -6.513  -3.713 129.751  0.00  0.00    -0.014 C 
ATOM     29  C   LIG A   1      -5.283  -3.023 129.143  0.00  0.00    +0.007 C 
ATOM     30  C   LIG A   1      -6.310  -3.806 131.276  0.00  0.00    +0.007 C 
ENDBRANCH  27  28
BRANCH  27  31
ATOM     31  C   LIG A   1      -7.784  -1.464 129.330  0.00  0.00    +0.000 C 
ATOM     32  C   LIG A   1      -8.124  -0.683 130.593  0.00  0.00    +0.004 C 
ENDBRANCH  27  31
ENDBRANCH  26  27
ENDBRANCH  25  26
ENDBRANCH  23  25
ENDBRANCH  20  23
TORSDOF 7
ENDMDL
MODEL 4
REMARK VINA RESULT:      -8.0      4.116      9.139
REMARK  Name = NuBBE_1405
REMARK  13 active torsions:
REMARK  status: ('A' for Active; 'I' for Inactive)
REMARK    1  A    between atoms: C_1  and  C_2
REMARK    2  A    between atoms: C_11  and  C_12
REMARK    3  A    between atoms: C_18  and  O_22
REMARK    4  A    between atoms: C_25  and  C_27
REMARK    5  A    between atoms: C_27  and  C_29
REMARK    6  A    between atoms: C_27  and  C_38
REMARK    7  A    between atoms: C_29  and  C_30
REMARK    8  A    between atoms: C_30  and  C_31
REMARK    9  A    between atoms: C_31  and  C_33
REMARK   10  A    between atoms: C_31  and  C_36
REMARK   11  A    between atoms: C_33  and  C_34
REMARK   12  A    between atoms: C_33  and  C_35
REMARK   13  A    between atoms: C_36  and  C_37
REMARK                            x       y       z     vdW  Elec       q    Type
REMARK                         _______ _______ _______ _____ _____    ______ ____
ROOT
ATOM      1  C   LIG A   1      -7.028  -2.498 124.119  0.00  0.00    +0.012 C 
ATOM      2  C   LIG A   1      -7.104  -1.603 125.398  0.00  0.00    -0.025 C 
ATOM      3  C   LIG A   1      -8.490  -0.970 125.636  0.00  0.00    +0.006 C 
ATOM      4  C   LIG A   1      -8.870   0.263 124.811  0.00  0.00    +0.067 C 
ATOM      5  C   LIG A   1      -7.775   1.365 124.951  0.00  0.00    +0.010 C 
ATOM      6  C   LIG A   1      -6.479   0.871 125.633  0.00  0.00    +0.005 C 
ATOM      7  C   LIG A   1      -6.035  -0.520 125.194  0.00  0.00    +0.007 C 
ATOM      8  C   LIG A   1      -7.524   2.333 123.742  0.00  0.00    -0.007 C 
ATOM      9  C   LIG A   1      -7.204   3.719 124.385  0.00  0.00    +0.016 C 
ATOM     10  C   LIG A   1      -8.711   2.384 122.795  0.00  0.00    -0.058 C 
ATOM     11  C   LIG A   1      -9.567   1.361 122.629  0.00  0.00    +0.046 C 
ATOM     12  C   LIG A   1      -9.399   0.117 123.418  0.00  0.00    +0.160 C 
ATOM     13  O   LIG A   1      -9.824  -0.952 122.945  0.00  0.00    -0.292 OA
ATOM     14  C   LIG A   1      -8.667   3.494 121.778  0.00  0.00    +0.062 C 
ATOM     15  C   LIG A   1      -7.439   3.280 120.877  0.00  0.00    +0.119 C 
ATOM     16  C   LIG A   1      -6.149   2.928 121.639  0.00  0.00    +0.032 C 
ATOM     17  C   LIG A   1      -6.348   1.935 122.803  0.00  0.00    +0.013 C 
ATOM     18  C   LIG A   1      -9.402  -2.173 125.811  0.00  0.00    +0.005 C 
ATOM     19  C   LIG A   1      -8.517  -3.151 126.631  0.00  0.00    +0.004 C 
ATOM     20  C   LIG A   1      -7.053  -2.560 126.663  0.00  0.00    -0.002 C 
ENDROOT
BRANCH  15  21
ATOM     21  O   LIG A   1      -7.213   4.445 120.086  0.00  0.00    -0.392 OA
ATOM     22  H   LIG A   1      -6.275   4.686 120.167  0.00  0.00    +0.210 HD
ENDBRANCH  15  21
BRANCH  20  23
ATOM     23  C   LIG A   1      -6.739  -1.964 128.100  0.00  0.00    -0.010 C 
ATOM     24  C   LIG A   1      -5.378  -2.363 128.683  0.00  0.00    +0.008 C 
BRANCH  23  25
ATOM     25  C   LIG A   1      -7.823  -2.274 129.192  0.00  0.00    +0.004 C 
BRANCH  25  26
ATOM     26  C   LIG A   1      -7.715  -1.420 130.463  0.00  0.00    +0.004 C 
BRANCH  26  27
ATOM     27  C   LIG A   1      -8.389  -0.018 130.418  0.00  0.00    -0.009 C 
BRANCH  27  28
ATOM     28  C   LIG A   1      -8.614   0.520 131.875  0.00  0.00    -0.014 C 
ATOM     29  C   LIG A   1      -7.377   1.215 132.464  0.00  0.00    +0.007 C 
ATOM     30  C   LIG A   1      -9.804   1.494 131.965  0.00  0.00    +0.007 C 
ENDBRANCH  27  28
BRANCH  27  31
ATOM     31  C   LIG A   1      -7.705   1.008 129.470  0.00  0.00    +0.000 C 
ATOM     32  C   LIG A   1      -8.579   1.824 128.526  0.00  0.00    +0.004 C 
ENDBRANCH  27  31
ENDBRANCH  26  27
ENDBRANCH  25  26
ENDBRANCH  23  25
ENDBRANCH  20  23
TORSDOF 7
ENDMDL
MODEL 5
REMARK VINA RESULT:      -7.9      4.096      9.185
REMARK  Name = NuBBE_1405
REMARK  13 active torsions:
REMARK  status: ('A' for Active; 'I' for Inactive)
REMARK    1  A    between atoms: C_1  and  C_2
REMARK    2  A    between atoms: C_11  and  C_12
REMARK    3  A    between atoms: C_18  and  O_22
REMARK    4  A    between atoms: C_25  and  C_27
REMARK    5  A    between atoms: C_27  and  C_29
REMARK    6  A    between atoms: C_27  and  C_38
REMARK    7  A    between atoms: C_29  and  C_30
REMARK    8  A    between atoms: C_30  and  C_31
REMARK    9  A    between atoms: C_31  and  C_33
REMARK   10  A    between atoms: C_31  and  C_36
REMARK   11  A    between atoms: C_33  and  C_34
REMARK   12  A    between atoms: C_33  and  C_35
REMARK   13  A    between atoms: C_36  and  C_37
REMARK                            x       y       z     vdW  Elec       q    Type
REMARK                         _______ _______ _______ _____ _____    ______ ____
ROOT
ATOM      1  C   LIG A   1      -7.021  -2.525 123.961  0.00  0.00    +0.012 C 
ATOM      2  C   LIG A   1      -7.113  -1.654 125.255  0.00  0.00    -0.025 C 
ATOM      3  C   LIG A   1      -8.506  -1.034 125.493  0.00  0.00    +0.006 C 
ATOM      4  C   LIG A   1      -8.887   0.212 124.687  0.00  0.00    +0.067 C 
ATOM      5  C   LIG A   1      -7.800   1.317 124.856  0.00  0.00    +0.010 C 
ATOM      6  C   LIG A   1      -6.506   0.820 125.540  0.00  0.00    +0.005 C 
ATOM      7  C   LIG A   1      -6.050  -0.560 125.079  0.00  0.00    +0.007 C 
ATOM      8  C   LIG A   1      -7.544   2.309 123.666  0.00  0.00    -0.007 C 
ATOM      9  C   LIG A   1      -7.239   3.685 124.338  0.00  0.00    +0.016 C 
ATOM     10  C   LIG A   1      -8.724   2.370 122.711  0.00  0.00    -0.058 C 
ATOM     11  C   LIG A   1      -9.572   1.345 122.519  0.00  0.00    +0.046 C 
ATOM     12  C   LIG A   1      -9.403   0.087 123.286  0.00  0.00    +0.160 C 
ATOM     13  O   LIG A   1      -9.817  -0.975 122.791  0.00  0.00    -0.292 OA
ATOM     14  C   LIG A   1      -8.679   3.499 121.714  0.00  0.00    +0.062 C 
ATOM     15  C   LIG A   1      -7.441   3.308 120.820  0.00  0.00    +0.119 C 
ATOM     16  C   LIG A   1      -6.156   2.951 121.587  0.00  0.00    +0.032 C 
ATOM     17  C   LIG A   1      -6.358   1.936 122.731  0.00  0.00    +0.013 C 
ATOM     18  C   LIG A   1      -9.411  -2.245 125.638  0.00  0.00    +0.005 C 
ATOM     19  C   LIG A   1      -8.527  -3.232 126.448  0.00  0.00    +0.004 C 
ATOM     20  C   LIG A   1      -7.067  -2.633 126.503  0.00  0.00    -0.002 C 
ENDROOT
BRANCH  15  21
ATOM     21  O   LIG A   1      -7.217   4.489 120.052  0.00  0.00    -0.392 OA
ATOM     22  H   LIG A   1      -6.406   4.359 119.531  0.00  0.00    +0.210 HD
ENDBRANCH  15  21
BRANCH  20  23
ATOM     23  C   LIG A   1      -6.769  -2.061 127.953  0.00  0.00    -0.010 C 
ATOM     24  C   LIG A   1      -5.334  -2.272 128.450  0.00  0.00    +0.008 C 
BRANCH  23  25
ATOM     25  C   LIG A   1      -7.733  -2.583 129.077  0.00  0.00    +0.004 C 
BRANCH  25  26
ATOM     26  C   LIG A   1      -7.081  -3.536 130.088  0.00  0.00    +0.004 C 
BRANCH  26  27
ATOM     27  C   LIG A   1      -7.095  -3.088 131.577  0.00  0.00    -0.009 C 
BRANCH  27  28
ATOM     28  C   LIG A   1      -5.956  -3.819 132.373  0.00  0.00    -0.014 C 
ATOM     29  C   LIG A   1      -6.424  -4.379 133.724  0.00  0.00    +0.007 C 
ATOM     30  C   LIG A   1      -5.323  -4.970 131.568  0.00  0.00    +0.007 C 
ENDBRANCH  27  28
BRANCH  27  31
ATOM     31  C   LIG A   1      -7.124  -1.549 131.798  0.00  0.00    +0.000 C 
ATOM     32  C   LIG A   1      -5.800  -0.801 131.903  0.00  0.00    +0.004 C 
ENDBRANCH  27  31
ENDBRANCH  26  27
ENDBRANCH  25  26
ENDBRANCH  23  25
ENDBRANCH  20  23
TORSDOF 7
ENDMDL
MODEL 6
REMARK VINA RESULT:      -7.8      3.393      8.150
REMARK  Name = NuBBE_1405
REMARK  13 active torsions:
REMARK  status: ('A' for Active; 'I' for Inactive)
REMARK    1  A    between atoms: C_1  and  C_2
REMARK    2  A    between atoms: C_11  and  C_12
REMARK    3  A    between atoms: C_18  and  O_22
REMARK    4  A    between atoms: C_25  and  C_27
REMARK    5  A    between atoms: C_27  and  C_29
REMARK    6  A    between atoms: C_27  and  C_38
REMARK    7  A    between atoms: C_29  and  C_30
REMARK    8  A    between atoms: C_30  and  C_31
REMARK    9  A    between atoms: C_31  and  C_33
REMARK   10  A    between atoms: C_31  and  C_36
REMARK   11  A    between atoms: C_33  and  C_34
REMARK   12  A    between atoms: C_33  and  C_35
REMARK   13  A    between atoms: C_36  and  C_37
REMARK                            x       y       z     vdW  Elec       q    Type
REMARK                         _______ _______ _______ _____ _____    ______ ____
ROOT
ATOM      1  C   LIG A   1      -6.103  -2.634 126.040  0.00  0.00    +0.012 C 
ATOM      2  C   LIG A   1      -6.062  -1.641 127.246  0.00  0.00    -0.025 C 
ATOM      3  C   LIG A   1      -7.455  -1.241 127.774  0.00  0.00    +0.006 C 
ATOM      4  C   LIG A   1      -8.245  -0.185 126.996  0.00  0.00    +0.067 C 
ATOM      5  C   LIG A   1      -7.383   1.101 126.804  0.00  0.00    +0.010 C 
ATOM      6  C   LIG A   1      -5.896   0.916 127.181  0.00  0.00    +0.005 C 
ATOM      7  C   LIG A   1      -5.300  -0.412 126.728  0.00  0.00    +0.007 C 
ATOM      8  C   LIG A   1      -7.606   1.970 125.516  0.00  0.00    -0.007 C 
ATOM      9  C   LIG A   1      -7.427   3.449 125.983  0.00  0.00    +0.016 C 
ATOM     10  C   LIG A   1      -8.964   1.714 124.883  0.00  0.00    -0.058 C 
ATOM     11  C   LIG A   1      -9.618   0.544 124.987  0.00  0.00    +0.046 C 
ATOM     12  C   LIG A   1      -9.036  -0.564 125.782  0.00  0.00    +0.160 C 
ATOM     13  O   LIG A   1      -9.339  -1.733 125.488  0.00  0.00    -0.292 OA
ATOM     14  C   LIG A   1      -9.369   2.705 123.823  0.00  0.00    +0.062 C 
ATOM     15  C   LIG A   1      -8.358   2.620 122.666  0.00  0.00    +0.119 C 
ATOM     16  C   LIG A   1      -6.886   2.581 123.114  0.00  0.00    +0.032 C 
ATOM     17  C   LIG A   1      -6.619   1.692 124.346  0.00  0.00    +0.013 C 
ATOM     18  C   LIG A   1      -8.050  -2.562 128.233  0.00  0.00    +0.005 C 
ATOM     19  C   LIG A   1      -6.829  -3.279 128.870  0.00  0.00    +0.004 C 
ATOM     20  C   LIG A   1      -5.541  -2.439 128.514  0.00  0.00    -0.002 C 
ENDROOT
BRANCH  15  21
ATOM     21  O   LIG A   1      -8.549   3.720 121.779  0.00  0.00    -0.392 OA
ATOM     22  H   LIG A   1      -7.675   4.019 121.477  0.00  0.00    +0.210 HD
ENDBRANCH  15  21
BRANCH  20  23
ATOM     23  C   LIG A   1      -5.032  -1.654 129.796  0.00  0.00    -0.010 C 
ATOM     24  C   LIG A   1      -3.570  -1.915 130.179  0.00  0.00    +0.008 C 
BRANCH  23  25
ATOM     25  C   LIG A   1      -5.898  -1.872 131.087  0.00  0.00    +0.004 C 
BRANCH  25  26
ATOM     26  C   LIG A   1      -6.488  -0.589 131.688  0.00  0.00    +0.004 C 
BRANCH  26  27
ATOM     27  C   LIG A   1      -6.803   0.565 130.692  0.00  0.00    -0.009 C 
BRANCH  27  28
ATOM     28  C   LIG A   1      -8.356   0.735 130.538  0.00  0.00    -0.014 C 
ATOM     29  C   LIG A   1      -9.135   0.376 131.812  0.00  0.00    +0.007 C 
ATOM     30  C   LIG A   1      -8.752   2.163 130.117  0.00  0.00    +0.007 C 
ENDBRANCH  27  28
BRANCH  27  31
ATOM     31  C   LIG A   1      -6.052   1.897 130.973  0.00  0.00    +0.000 C 
ATOM     32  C   LIG A   1      -4.574   1.991 130.612  0.00  0.00    +0.004 C 
ENDBRANCH  27  31
ENDBRANCH  26  27
ENDBRANCH  25  26
ENDBRANCH  23  25
ENDBRANCH  20  23
TORSDOF 7
ENDMDL
MODEL 7
REMARK VINA RESULT:      -7.7      2.714      6.997
REMARK  Name = NuBBE_1405
REMARK  13 active torsions:
REMARK  status: ('A' for Active; 'I' for Inactive)
REMARK    1  A    between atoms: C_1  and  C_2
REMARK    2  A    between atoms: C_11  and  C_12
REMARK    3  A    between atoms: C_18  and  O_22
REMARK    4  A    between atoms: C_25  and  C_27
REMARK    5  A    between atoms: C_27  and  C_29
REMARK    6  A    between atoms: C_27  and  C_38
REMARK    7  A    between atoms: C_29  and  C_30
REMARK    8  A    between atoms: C_30  and  C_31
REMARK    9  A    between atoms: C_31  and  C_33
REMARK   10  A    between atoms: C_31  and  C_36
REMARK   11  A    between atoms: C_33  and  C_34
REMARK   12  A    between atoms: C_33  and  C_35
REMARK   13  A    between atoms: C_36  and  C_37
REMARK                            x       y       z     vdW  Elec       q    Type
REMARK                         _______ _______ _______ _____ _____    ______ ____
ROOT
ATOM      1  C   LIG A   1      -5.163  -3.801 129.858  0.00  0.00    +0.012 C 
ATOM      2  C   LIG A   1      -5.499  -2.308 130.176  0.00  0.00    -0.025 C 
ATOM      3  C   LIG A   1      -7.010  -2.001 130.212  0.00  0.00    +0.006 C 
ATOM      4  C   LIG A   1      -7.743  -1.830 128.878  0.00  0.00    +0.067 C 
ATOM      5  C   LIG A   1      -7.025  -0.758 128.001  0.00  0.00    +0.010 C 
ATOM      6  C   LIG A   1      -5.639  -0.339 128.540  0.00  0.00    +0.005 C 
ATOM      7  C   LIG A   1      -4.802  -1.497 129.073  0.00  0.00    +0.007 C 
ATOM      8  C   LIG A   1      -7.078  -0.907 126.440  0.00  0.00    -0.007 C 
ATOM      9  C   LIG A   1      -7.184   0.552 125.893  0.00  0.00    +0.016 C 
ATOM     10  C   LIG A   1      -8.230  -1.789 125.988  0.00  0.00    -0.058 C 
ATOM     11  C   LIG A   1      -8.742  -2.777 126.743  0.00  0.00    +0.046 C 
ATOM     12  C   LIG A   1      -8.209  -3.025 128.104  0.00  0.00    +0.160 C 
ATOM     13  O   LIG A   1      -8.297  -4.169 128.580  0.00  0.00    -0.292 OA
ATOM     14  C   LIG A   1      -8.522  -1.749 124.511  0.00  0.00    +0.062 C 
ATOM     15  C   LIG A   1      -7.288  -2.274 123.757  0.00  0.00    +0.119 C 
ATOM     16  C   LIG A   1      -5.950  -1.703 124.259  0.00  0.00    +0.032 C 
ATOM     17  C   LIG A   1      -5.840  -1.594 125.794  0.00  0.00    +0.013 C 
ATOM     18  C   LIG A   1      -7.521  -2.880 131.341  0.00  0.00    +0.005 C 
ATOM     19  C   LIG A   1      -6.383  -2.777 132.392  0.00  0.00    +0.004 C 
ATOM     20  C   LIG A   1      -5.161  -2.049 131.704  0.00  0.00    -0.002 C 
ENDROOT
BRANCH  15  21
ATOM     21  O   LIG A   1      -7.423  -1.999 122.364  0.00  0.00    -0.392 OA
ATOM     22  H   LIG A   1      -7.223  -2.816 121.876  0.00  0.00    +0.210 HD
ENDBRANCH  15  21
BRANCH  20  23
ATOM     23  C   LIG A   1      -5.034  -0.565 132.252  0.00  0.00    -0.010 C 
ATOM     24  C   LIG A   1      -3.636  -0.173 132.744  0.00  0.00    +0.008 C 
BRANCH  23  25
ATOM     25  C   LIG A   1      -6.049  -0.196 133.391  0.00  0.00    +0.004 C 
BRANCH  25  26
ATOM     26  C   LIG A   1      -7.100   0.852 132.998  0.00  0.00    +0.004 C 
BRANCH  26  27
ATOM     27  C   LIG A   1      -7.081   1.336 131.520  0.00  0.00    -0.009 C 
BRANCH  27  28
ATOM     28  C   LIG A   1      -8.516   1.217 130.894  0.00  0.00    -0.014 C 
ATOM     29  C   LIG A   1      -9.642   1.494 131.902  0.00  0.00    +0.007 C 
ATOM     30  C   LIG A   1      -8.711   2.154 129.686  0.00  0.00    +0.007 C 
ENDBRANCH  27  28
BRANCH  27  31
ATOM     31  C   LIG A   1      -6.410   2.720 131.291  0.00  0.00    +0.000 C 
ATOM     32  C   LIG A   1      -5.079   2.773 130.551  0.00  0.00    +0.004 C 
ENDBRANCH  27  31
ENDBRANCH  26  27
ENDBRANCH  25  26
ENDBRANCH  23  25
ENDBRANCH  20  23
TORSDOF 7
ENDMDL
MODEL 8
REMARK VINA RESULT:      -7.7      5.569      7.314
REMARK  Name = NuBBE_1405
REMARK  13 active torsions:
REMARK  status: ('A' for Active; 'I' for Inactive)
REMARK    1  A    between atoms: C_1  and  C_2
REMARK    2  A    between atoms: C_11  and  C_12
REMARK    3  A    between atoms: C_18  and  O_22
REMARK    4  A    between atoms: C_25  and  C_27
REMARK    5  A    between atoms: C_27  and  C_29
REMARK    6  A    between atoms: C_27  and  C_38
REMARK    7  A    between atoms: C_29  and  C_30
REMARK    8  A    between atoms: C_30  and  C_31
REMARK    9  A    between atoms: C_31  and  C_33
REMARK   10  A    between atoms: C_31  and  C_36
REMARK   11  A    between atoms: C_33  and  C_34
REMARK   12  A    between atoms: C_33  and  C_35
REMARK   13  A    between atoms: C_36  and  C_37
REMARK                            x       y       z     vdW  Elec       q    Type
REMARK                         _______ _______ _______ _____ _____    ______ ____
ROOT
ATOM      1  C   LIG A   1      -8.181   4.883 126.236  0.00  0.00    +0.012 C 
ATOM      2  C   LIG A   1      -7.228   3.876 125.515  0.00  0.00    -0.025 C 
ATOM      3  C   LIG A   1      -6.897   2.622 126.349  0.00  0.00    +0.006 C 
ATOM      4  C   LIG A   1      -5.845   2.748 127.455  0.00  0.00    +0.067 C 
ATOM      5  C   LIG A   1      -4.523   3.339 126.876  0.00  0.00    +0.010 C 
ATOM      6  C   LIG A   1      -4.666   3.901 125.443  0.00  0.00    +0.005 C 
ATOM      7  C   LIG A   1      -5.955   4.679 125.205  0.00  0.00    +0.007 C 
ATOM      8  C   LIG A   1      -3.619   4.218 127.811  0.00  0.00    -0.007 C 
ATOM      9  C   LIG A   1      -2.152   3.870 127.410  0.00  0.00    +0.016 C 
ATOM     10  C   LIG A   1      -3.902   3.963 129.283  0.00  0.00    -0.058 C 
ATOM     11  C   LIG A   1      -5.098   3.557 129.744  0.00  0.00    +0.046 C 
ATOM     12  C   LIG A   1      -6.211   3.299 128.798  0.00  0.00    +0.160 C 
ATOM     13  O   LIG A   1      -7.380   3.421 129.204  0.00  0.00    -0.292 OA
ATOM     14  C   LIG A   1      -2.892   4.545 130.236  0.00  0.00    +0.062 C 
ATOM     15  C   LIG A   1      -2.901   6.075 130.080  0.00  0.00    +0.119 C 
ATOM     16  C   LIG A   1      -2.901   6.562 128.620  0.00  0.00    +0.032 C 
ATOM     17  C   LIG A   1      -3.821   5.755 127.680  0.00  0.00    +0.013 C 
ATOM     18  C   LIG A   1      -8.253   1.969 126.556  0.00  0.00    +0.005 C 
ATOM     19  C   LIG A   1      -8.947   2.189 125.184  0.00  0.00    +0.004 C 
ATOM     20  C   LIG A   1      -8.049   3.183 124.348  0.00  0.00    -0.002 C 
ENDROOT
BRANCH  15  21
ATOM     21  O   LIG A   1      -1.780   6.635 130.760  0.00  0.00    -0.392 OA
ATOM     22  H   LIG A   1      -1.341   5.921 131.255  0.00  0.00    +0.210 HD
ENDBRANCH  15  21
BRANCH  20  23
ATOM     23  C   LIG A   1      -7.290   2.393 123.200  0.00  0.00    -0.010 C 
ATOM     24  C   LIG A   1      -7.311   3.071 121.824  0.00  0.00    +0.008 C 
BRANCH  23  25
ATOM     25  C   LIG A   1      -7.765   0.910 122.996  0.00  0.00    +0.004 C 
BRANCH  25  26
ATOM     26  C   LIG A   1      -6.697  -0.151 123.294  0.00  0.00    +0.004 C 
BRANCH  26  27
ATOM     27  C   LIG A   1      -7.064  -1.623 122.951  0.00  0.00    -0.009 C 
BRANCH  27  28
ATOM     28  C   LIG A   1      -6.367  -2.603 123.961  0.00  0.00    -0.014 C 
ATOM     29  C   LIG A   1      -5.027  -3.150 123.447  0.00  0.00    +0.007 C 
ATOM     30  C   LIG A   1      -6.128  -1.955 125.338  0.00  0.00    +0.007 C 
ENDBRANCH  27  28
BRANCH  27  31
ATOM     31  C   LIG A   1      -8.584  -1.894 122.763  0.00  0.00    +0.000 C 
ATOM     32  C   LIG A   1      -9.192  -3.129 123.417  0.00  0.00    +0.004 C 
ENDBRANCH  27  31
ENDBRANCH  26  27
ENDBRANCH  25  26
ENDBRANCH  23  25
ENDBRANCH  20  23
TORSDOF 7
ENDMDL
MODEL 9
REMARK VINA RESULT:      -7.7      3.950      5.744
REMARK  Name = NuBBE_1405
REMARK  13 active torsions:
REMARK  status: ('A' for Active; 'I' for Inactive)
REMARK    1  A    between atoms: C_1  and  C_2
REMARK    2  A    between atoms: C_11  and  C_12
REMARK    3  A    between atoms: C_18  and  O_22
REMARK    4  A    between atoms: C_25  and  C_27
REMARK    5  A    between atoms: C_27  and  C_29
REMARK    6  A    between atoms: C_27  and  C_38
REMARK    7  A    between atoms: C_29  and  C_30
REMARK    8  A    between atoms: C_30  and  C_31
REMARK    9  A    between atoms: C_31  and  C_33
REMARK   10  A    between atoms: C_31  and  C_36
REMARK   11  A    between atoms: C_33  and  C_34
REMARK   12  A    between atoms: C_33  and  C_35
REMARK   13  A    between atoms: C_36  and  C_37
REMARK                            x       y       z     vdW  Elec       q    Type
REMARK                         _______ _______ _______ _____ _____    ______ ____
ROOT
ATOM      1  C   LIG A   1      -4.518   2.256 128.501  0.00  0.00    +0.012 C 
ATOM      2  C   LIG A   1      -5.604   1.160 128.251  0.00  0.00    -0.025 C 
ATOM      3  C   LIG A   1      -6.928   1.710 127.680  0.00  0.00    +0.006 C 
ATOM      4  C   LIG A   1      -7.904   2.386 128.648  0.00  0.00    +0.067 C 
ATOM      5  C   LIG A   1      -8.219   1.438 129.846  0.00  0.00    +0.010 C 
ATOM      6  C   LIG A   1      -7.294   0.202 129.922  0.00  0.00    +0.005 C 
ATOM      7  C   LIG A   1      -5.830   0.500 129.619  0.00  0.00    +0.007 C 
ATOM      8  C   LIG A   1      -8.540   2.075 131.244  0.00  0.00    -0.007 C 
ATOM      9  C   LIG A   1      -9.636   1.157 131.871  0.00  0.00    +0.016 C 
ATOM     10  C   LIG A   1      -8.985   3.523 131.123  0.00  0.00    -0.058 C 
ATOM     11  C   LIG A   1      -8.594   4.334 130.124  0.00  0.00    +0.046 C 
ATOM     12  C   LIG A   1      -7.715   3.817 129.048  0.00  0.00    +0.160 C 
ATOM     13  O   LIG A   1      -6.974   4.614 128.447  0.00  0.00    -0.292 OA
ATOM     14  C   LIG A   1      -9.581   4.113 132.374  0.00  0.00    +0.062 C 
ATOM     15  C   LIG A   1      -8.506   4.109 133.475  0.00  0.00    +0.119 C 
ATOM     16  C   LIG A   1      -7.719   2.791 133.584  0.00  0.00    +0.032 C 
ATOM     17  C   LIG A   1      -7.338   2.162 132.228  0.00  0.00    +0.013 C 
ATOM     18  C   LIG A   1      -6.513   2.317 126.350  0.00  0.00    +0.005 C 
ATOM     19  C   LIG A   1      -5.463   1.299 125.827  0.00  0.00    +0.004 C 
ATOM     20  C   LIG A   1      -5.142   0.296 127.004  0.00  0.00    -0.002 C 
ENDROOT
BRANCH  15  21
ATOM     21  O   LIG A   1      -9.106   4.403 134.734  0.00  0.00    -0.392 OA
ATOM     22  H   LIG A   1      -9.956   3.933 134.780  0.00  0.00    +0.210 HD
ENDBRANCH  15  21
BRANCH  20  23
ATOM     23  C   LIG A   1      -5.817  -1.112 126.716  0.00  0.00    -0.010 C 
ATOM     24  C   LIG A   1      -5.358  -2.251 127.635  0.00  0.00    +0.008 C 
BRANCH  23  25
ATOM     25  C   LIG A   1      -5.674  -1.620 125.237  0.00  0.00    +0.004 C 
BRANCH  25  26
ATOM     26  C   LIG A   1      -7.001  -1.781 124.484  0.00  0.00    +0.004 C 
BRANCH  26  27
ATOM     27  C   LIG A   1      -8.301  -1.550 125.307  0.00  0.00    -0.009 C 
BRANCH  27  28
ATOM     28  C   LIG A   1      -9.146  -0.391 124.669  0.00  0.00    -0.014 C 
ATOM     29  C   LIG A   1      -9.725   0.580 125.708  0.00  0.00    +0.007 C 
ATOM     30  C   LIG A   1      -8.341   0.426 123.641  0.00  0.00    +0.007 C 
ENDBRANCH  27  28
BRANCH  27  31
ATOM     31  C   LIG A   1      -9.125  -2.835 125.606  0.00  0.00    +0.000 C 
ATOM     32  C   LIG A   1      -8.973  -3.498 126.970  0.00  0.00    +0.004 C 
ENDBRANCH  27  31
ENDBRANCH  26  27
ENDBRANCH  25  26
ENDBRANCH  23  25
ENDBRANCH  20  23
TORSDOF 7
ENDMDL
