MODEL 1
REMARK VINA RESULT:      -6.2      0.000      0.000
REMARK  Name = NuBBE_868
REMARK  3 active torsions:
REMARK  status: ('A' for Active; 'I' for Inactive)
REMARK    1  A    between atoms: CA_9  and  CB_14
REMARK    2  A    between atoms: CB_14  and  CG1_16
REMARK    3  A    between atoms: CB_14  and  CG2_17
REMARK                            x       y       z     vdW  Elec       q    Type
REMARK                         _______ _______ _______ _____ _____    ______ ____
ROOT
ATOM      1  O   VAL A   2     -12.665   7.022 131.850  0.00  0.00    -0.274 OA
ATOM      2  C   VAL A   2     -11.844   6.777 130.969  0.00  0.00    +0.237 C 
ATOM      3  N   PRO A   1     -10.575   6.332 131.277  0.00  0.00    -0.288 N 
ATOM      4  CA  PRO A   1      -9.463   6.537 130.374  0.00  0.00    +0.162 C 
ATOM      5  CB  PRO A   1      -8.351   5.724 131.014  0.00  0.00    +0.033 C 
ATOM      6  CG  PRO A   1      -8.593   5.972 132.505  0.00  0.00    +0.021 C 
ATOM      7  CD  PRO A   1     -10.112   6.086 132.628  0.00  0.00    +0.109 C 
ATOM      8  CA  VAL A   2     -12.214   6.624 129.455  0.00  0.00    +0.162 C 
ATOM      9  N   VAL A   2     -11.050   6.653 128.548  0.00  0.00    -0.302 N 
ATOM     10  C   PRO A   1      -9.817   6.174 128.941  0.00  0.00    +0.234 C 
ATOM     11  O   PRO A   1      -9.018   5.745 128.116  0.00  0.00    -0.274 OA
ATOM     12  H   VAL A   2     -11.226   6.418 127.579  0.00  0.00    +0.149 HD
ENDROOT
BRANCH   8  13
ATOM     13  CB  VAL A   2     -13.304   7.634 128.993  0.00  0.00    +0.012 C 
ATOM     14  CG1 VAL A   2     -12.771   9.076 128.918  0.00  0.00    +0.009 C 
ATOM     15  CG2 VAL A   2     -13.887   7.287 127.616  0.00  0.00    +0.009 C 
ENDBRANCH   8  13
TORSDOF 1
ENDMDL
MODEL 2
REMARK VINA RESULT:      -6.1      1.274      4.888
REMARK  Name = NuBBE_868
REMARK  3 active torsions:
REMARK  status: ('A' for Active; 'I' for Inactive)
REMARK    1  A    between atoms: CA_9  and  CB_14
REMARK    2  A    between atoms: CB_14  and  CG1_16
REMARK    3  A    between atoms: CB_14  and  CG2_17
REMARK                            x       y       z     vdW  Elec       q    Type
REMARK                         _______ _______ _______ _____ _____    ______ ____
ROOT
ATOM      1  O   VAL A   2      -8.681   5.499 129.156  0.00  0.00    -0.274 OA
ATOM      2  C   VAL A   2      -9.669   5.864 129.788  0.00  0.00    +0.237 C 
ATOM      3  N   PRO A   1     -10.605   6.710 129.229  0.00  0.00    -0.288 N 
ATOM      4  CA  PRO A   1     -11.445   7.555 130.049  0.00  0.00    +0.162 C 
ATOM      5  CB  PRO A   1     -12.429   8.133 129.046  0.00  0.00    +0.033 C 
ATOM      6  CG  PRO A   1     -11.539   8.357 127.821  0.00  0.00    +0.021 C 
ATOM      7  CD  PRO A   1     -10.532   7.207 127.869  0.00  0.00    +0.109 C 
ATOM      8  CA  VAL A   2     -10.146   5.191 131.119  0.00  0.00    +0.162 C 
ATOM      9  N   VAL A   2     -11.145   5.981 131.865  0.00  0.00    -0.302 N 
ATOM     10  C   PRO A   1     -12.052   6.795 131.217  0.00  0.00    +0.234 C 
ATOM     11  O   PRO A   1     -13.138   7.051 131.723  0.00  0.00    -0.274 OA
ATOM     12  H   VAL A   2     -11.584   5.524 132.655  0.00  0.00    +0.149 HD
ENDROOT
BRANCH   8  13
ATOM     13  CB  VAL A   2      -8.965   4.773 132.043  0.00  0.00    +0.012 C 
ATOM     14  CG1 VAL A   2      -8.216   5.987 132.619  0.00  0.00    +0.009 C 
ATOM     15  CG2 VAL A   2      -9.418   3.907 133.227  0.00  0.00    +0.009 C 
ENDBRANCH   8  13
TORSDOF 1
ENDMDL
MODEL 3
REMARK VINA RESULT:      -5.9      1.452      2.989
REMARK  Name = NuBBE_868
REMARK  3 active torsions:
REMARK  status: ('A' for Active; 'I' for Inactive)
REMARK    1  A    between atoms: CA_9  and  CB_14
REMARK    2  A    between atoms: CB_14  and  CG1_16
REMARK    3  A    between atoms: CB_14  and  CG2_17
REMARK                            x       y       z     vdW  Elec       q    Type
REMARK                         _______ _______ _______ _____ _____    ______ ____
ROOT
ATOM      1  O   VAL A   2     -10.127   6.780 127.306  0.00  0.00    -0.274 OA
ATOM      2  C   VAL A   2     -10.371   6.723 128.508  0.00  0.00    +0.237 C 
ATOM      3  N   PRO A   1      -9.695   5.849 129.335  0.00  0.00    -0.288 N 
ATOM      4  CA  PRO A   1     -10.278   5.378 130.573  0.00  0.00    +0.162 C 
ATOM      5  CB  PRO A   1      -9.129   4.630 131.227  0.00  0.00    +0.033 C 
ATOM      6  CG  PRO A   1      -8.459   3.961 130.024  0.00  0.00    +0.021 C 
ATOM      7  CD  PRO A   1      -8.640   4.964 128.884  0.00  0.00    +0.109 C 
ATOM      8  CA  VAL A   2     -11.196   7.808 129.280  0.00  0.00    +0.162 C 
ATOM      9  N   VAL A   2     -11.636   7.382 130.623  0.00  0.00    -0.302 N 
ATOM     10  C   PRO A   1     -10.886   6.509 131.385  0.00  0.00    +0.234 C 
ATOM     11  O   PRO A   1     -10.953   6.528 132.609  0.00  0.00    -0.274 OA
ATOM     12  H   VAL A   2     -12.049   8.097 131.210  0.00  0.00    +0.149 HD
ENDROOT
BRANCH   8  13
ATOM     13  CB  VAL A   2     -12.392   8.360 128.452  0.00  0.00    +0.012 C 
ATOM     14  CG1 VAL A   2     -13.487   7.302 128.230  0.00  0.00    +0.009 C 
ATOM     15  CG2 VAL A   2     -13.056   9.578 129.111  0.00  0.00    +0.009 C 
ENDBRANCH   8  13
TORSDOF 1
ENDMDL
MODEL 4
REMARK VINA RESULT:      -5.5      8.709     10.155
REMARK  Name = NuBBE_868
REMARK  3 active torsions:
REMARK  status: ('A' for Active; 'I' for Inactive)
REMARK    1  A    between atoms: CA_9  and  CB_14
REMARK    2  A    between atoms: CB_14  and  CG1_16
REMARK    3  A    between atoms: CB_14  and  CG2_17
REMARK                            x       y       z     vdW  Elec       q    Type
REMARK                         _______ _______ _______ _____ _____    ______ ____
ROOT
ATOM      1  O   VAL A   2     -10.253  -0.390 122.502  0.00  0.00    -0.274 OA
ATOM      2  C   VAL A   2      -9.221  -0.388 123.169  0.00  0.00    +0.237 C 
ATOM      3  N   PRO A   1      -8.695  -1.557 123.676  0.00  0.00    -0.288 N 
ATOM      4  CA  PRO A   1      -7.845  -1.558 124.847  0.00  0.00    +0.162 C 
ATOM      5  CB  PRO A   1      -7.350  -2.992 124.909  0.00  0.00    +0.033 C 
ATOM      6  CG  PRO A   1      -8.592  -3.775 124.475  0.00  0.00    +0.021 C 
ATOM      7  CD  PRO A   1      -9.273  -2.867 123.451  0.00  0.00    +0.109 C 
ATOM      8  CA  VAL A   2      -8.237   0.829 123.244  0.00  0.00    +0.162 C 
ATOM      9  N   VAL A   2      -7.251   0.734 124.337  0.00  0.00    -0.302 N 
ATOM     10  C   PRO A   1      -6.771  -0.484 124.773  0.00  0.00    +0.234 C 
ATOM     11  O   PRO A   1      -5.662  -0.574 125.287  0.00  0.00    -0.274 OA
ATOM     12  H   VAL A   2      -6.510   1.425 124.338  0.00  0.00    +0.149 HD
ENDROOT
BRANCH   8  13
ATOM     13  CB  VAL A   2      -8.973   2.200 123.276  0.00  0.00    +0.012 C 
ATOM     14  CG1 VAL A   2      -8.646   3.010 124.542  0.00  0.00    +0.009 C 
ATOM     15  CG2 VAL A   2      -8.633   3.082 122.065  0.00  0.00    +0.009 C 
ENDBRANCH   8  13
TORSDOF 1
ENDMDL
MODEL 5
REMARK VINA RESULT:      -5.4      8.743     10.700
REMARK  Name = NuBBE_868
REMARK  3 active torsions:
REMARK  status: ('A' for Active; 'I' for Inactive)
REMARK    1  A    between atoms: CA_9  and  CB_14
REMARK    2  A    between atoms: CB_14  and  CG1_16
REMARK    3  A    between atoms: CB_14  and  CG2_17
REMARK                            x       y       z     vdW  Elec       q    Type
REMARK                         _______ _______ _______ _____ _____    ______ ____
ROOT
ATOM      1  O   VAL A   2      -5.707  -0.089 125.342  0.00  0.00    -0.274 OA
ATOM      2  C   VAL A   2      -6.741  -0.230 124.694  0.00  0.00    +0.237 C 
ATOM      3  N   PRO A   1      -7.567   0.841 124.423  0.00  0.00    -0.288 N 
ATOM      4  CA  PRO A   1      -8.977   0.658 124.154  0.00  0.00    +0.162 C 
ATOM      5  CB  PRO A   1      -9.424   2.043 123.719  0.00  0.00    +0.033 C 
ATOM      6  CG  PRO A   1      -8.609   2.946 124.648  0.00  0.00    +0.021 C 
ATOM      7  CD  PRO A   1      -7.287   2.202 124.836  0.00  0.00    +0.109 C 
ATOM      8  CA  VAL A   2      -7.070  -1.507 123.849  0.00  0.00    +0.162 C 
ATOM      9  N   VAL A   2      -8.480  -1.597 123.423  0.00  0.00    -0.302 N 
ATOM     10  C   PRO A   1      -9.228  -0.467 123.163  0.00  0.00    +0.234 C 
ATOM     11  O   PRO A   1     -10.170  -0.505 122.379  0.00  0.00    -0.274 OA
ATOM     12  H   VAL A   2      -8.706  -2.329 122.761  0.00  0.00    +0.149 HD
ENDROOT
BRANCH   8  13
ATOM     13  CB  VAL A   2      -6.613  -2.824 124.542  0.00  0.00    +0.012 C 
ATOM     14  CG1 VAL A   2      -7.709  -3.904 124.524  0.00  0.00    +0.009 C 
ATOM     15  CG2 VAL A   2      -5.359  -3.429 123.895  0.00  0.00    +0.009 C 
ENDBRANCH   8  13
TORSDOF 1
ENDMDL
MODEL 6
REMARK VINA RESULT:      -5.3      8.524     10.209
REMARK  Name = NuBBE_868
REMARK  3 active torsions:
REMARK  status: ('A' for Active; 'I' for Inactive)
REMARK    1  A    between atoms: CA_9  and  CB_14
REMARK    2  A    between atoms: CB_14  and  CG1_16
REMARK    3  A    between atoms: CB_14  and  CG2_17
REMARK                            x       y       z     vdW  Elec       q    Type
REMARK                         _______ _______ _______ _____ _____    ______ ____
ROOT
ATOM      1  O   VAL A   2      -6.058  -0.056 125.368  0.00  0.00    -0.274 OA
ATOM      2  C   VAL A   2      -7.057  -0.027 124.654  0.00  0.00    +0.237 C 
ATOM      3  N   PRO A   1      -7.782  -1.171 124.390  0.00  0.00    -0.288 N 
ATOM      4  CA  PRO A   1      -8.593  -1.294 123.198  0.00  0.00    +0.162 C 
ATOM      5  CB  PRO A   1      -9.345  -2.593 123.430  0.00  0.00    +0.033 C 
ATOM      6  CG  PRO A   1      -8.281  -3.460 124.107  0.00  0.00    +0.021 C 
ATOM      7  CD  PRO A   1      -7.463  -2.473 124.942  0.00  0.00    +0.109 C 
ATOM      8  CA  VAL A   2      -7.794   1.293 124.244  0.00  0.00    +0.162 C 
ATOM      9  N   VAL A   2      -8.758   1.122 123.140  0.00  0.00    -0.302 N 
ATOM     10  C   PRO A   1      -9.448  -0.060 122.960  0.00  0.00    +0.234 C 
ATOM     11  O   PRO A   1     -10.543  -0.070 122.410  0.00  0.00    -0.274 OA
ATOM     12  H   VAL A   2      -9.356   1.913 122.936  0.00  0.00    +0.149 HD
ENDROOT
BRANCH   8  13
ATOM     13  CB  VAL A   2      -6.815   2.466 123.951  0.00  0.00    +0.012 C 
ATOM     14  CG1 VAL A   2      -6.671   2.745 122.445  0.00  0.00    +0.009 C 
ATOM     15  CG2 VAL A   2      -7.246   3.778 124.623  0.00  0.00    +0.009 C 
ENDBRANCH   8  13
TORSDOF 1
ENDMDL
MODEL 7
REMARK VINA RESULT:      -5.2      8.739     10.652
REMARK  Name = NuBBE_868
REMARK  3 active torsions:
REMARK  status: ('A' for Active; 'I' for Inactive)
REMARK    1  A    between atoms: CA_9  and  CB_14
REMARK    2  A    between atoms: CB_14  and  CG1_16
REMARK    3  A    between atoms: CB_14  and  CG2_17
REMARK                            x       y       z     vdW  Elec       q    Type
REMARK                         _______ _______ _______ _____ _____    ______ ____
ROOT
ATOM      1  O   VAL A   2      -9.660  -1.204 122.802  0.00  0.00    -0.274 OA
ATOM      2  C   VAL A   2      -8.724  -0.708 123.424  0.00  0.00    +0.237 C 
ATOM      3  N   PRO A   1      -8.535   0.657 123.465  0.00  0.00    -0.288 N 
ATOM      4  CA  PRO A   1      -7.229   1.232 123.707  0.00  0.00    +0.162 C 
ATOM      5  CB  PRO A   1      -7.533   2.712 123.866  0.00  0.00    +0.033 C 
ATOM      6  CG  PRO A   1      -8.630   2.926 122.821  0.00  0.00    +0.021 C 
ATOM      7  CD  PRO A   1      -9.415   1.614 122.823  0.00  0.00    +0.109 C 
ATOM      8  CA  VAL A   2      -7.866  -1.493 124.473  0.00  0.00    +0.162 C 
ATOM      9  N   VAL A   2      -6.614  -0.811 124.853  0.00  0.00    -0.302 N 
ATOM     10  C   PRO A   1      -6.520   0.566 124.875  0.00  0.00    +0.234 C 
ATOM     11  O   PRO A   1      -5.722   1.129 125.615  0.00  0.00    -0.274 OA
ATOM     12  H   VAL A   2      -6.098  -1.211 125.628  0.00  0.00    +0.149 HD
ENDROOT
BRANCH   8  13
ATOM     13  CB  VAL A   2      -7.590  -2.965 124.049  0.00  0.00    +0.012 C 
ATOM     14  CG1 VAL A   2      -6.094  -3.321 124.111  0.00  0.00    +0.009 C 
ATOM     15  CG2 VAL A   2      -8.342  -3.983 124.919  0.00  0.00    +0.009 C 
ENDBRANCH   8  13
TORSDOF 1
ENDMDL
MODEL 8
REMARK VINA RESULT:      -5.1     10.402     11.434
REMARK  Name = NuBBE_868
REMARK  3 active torsions:
REMARK  status: ('A' for Active; 'I' for Inactive)
REMARK    1  A    between atoms: CA_9  and  CB_14
REMARK    2  A    between atoms: CB_14  and  CG1_16
REMARK    3  A    between atoms: CB_14  and  CG2_17
REMARK                            x       y       z     vdW  Elec       q    Type
REMARK                         _______ _______ _______ _____ _____    ______ ____
ROOT
ATOM      1  O   VAL A   2      -9.284  -3.910 127.683  0.00  0.00    -0.274 OA
ATOM      2  C   VAL A   2      -8.329  -3.296 127.216  0.00  0.00    +0.237 C 
ATOM      3  N   PRO A   1      -8.281  -2.953 125.881  0.00  0.00    -0.288 N 
ATOM      4  CA  PRO A   1      -7.023  -2.728 125.203  0.00  0.00    +0.162 C 
ATOM      5  CB  PRO A   1      -7.456  -2.189 123.851  0.00  0.00    +0.033 C 
ATOM      6  CG  PRO A   1      -8.706  -3.024 123.561  0.00  0.00    +0.021 C 
ATOM      7  CD  PRO A   1      -9.339  -3.247 124.934  0.00  0.00    +0.109 C 
ATOM      8  CA  VAL A   2      -7.253  -2.566 128.091  0.00  0.00    +0.162 C 
ATOM      9  N   VAL A   2      -6.040  -2.177 127.346  0.00  0.00    -0.302 N 
ATOM     10  C   PRO A   1      -6.091  -1.839 126.009  0.00  0.00    +0.234 C 
ATOM     11  O   PRO A   1      -5.262  -1.080 125.522  0.00  0.00    -0.274 OA
ATOM     12  H   VAL A   2      -5.381  -1.582 127.835  0.00  0.00    +0.149 HD
ENDROOT
BRANCH   8  13
ATOM     13  CB  VAL A   2      -6.885  -3.356 129.380  0.00  0.00    +0.012 C 
ATOM     14  CG1 VAL A   2      -5.369  -3.368 129.646  0.00  0.00    +0.009 C 
ATOM     15  CG2 VAL A   2      -7.568  -2.793 130.635  0.00  0.00    +0.009 C 
ENDBRANCH   8  13
TORSDOF 1
ENDMDL
MODEL 9
REMARK VINA RESULT:      -4.9      8.870      9.846
REMARK  Name = NuBBE_868
REMARK  3 active torsions:
REMARK  status: ('A' for Active; 'I' for Inactive)
REMARK    1  A    between atoms: CA_9  and  CB_14
REMARK    2  A    between atoms: CB_14  and  CG1_16
REMARK    3  A    between atoms: CB_14  and  CG2_17
REMARK                            x       y       z     vdW  Elec       q    Type
REMARK                         _______ _______ _______ _____ _____    ______ ____
ROOT
ATOM      1  O   VAL A   2      -5.968   0.022 127.529  0.00  0.00    -0.274 OA
ATOM      2  C   VAL A   2      -6.867  -0.670 127.060  0.00  0.00    +0.237 C 
ATOM      3  N   PRO A   1      -7.440  -1.691 127.791  0.00  0.00    -0.288 N 
ATOM      4  CA  PRO A   1      -8.079  -2.817 127.145  0.00  0.00    +0.162 C 
ATOM      5  CB  PRO A   1      -8.725  -3.554 128.305  0.00  0.00    +0.033 C 
ATOM      6  CG  PRO A   1      -7.676  -3.394 129.407  0.00  0.00    +0.021 C 
ATOM      7  CD  PRO A   1      -7.069  -2.013 129.155  0.00  0.00    +0.109 C 
ATOM      8  CA  VAL A   2      -7.671  -0.294 125.770  0.00  0.00    +0.162 C 
ATOM      9  N   VAL A   2      -8.468  -1.406 125.215  0.00  0.00    -0.302 N 
ATOM     10  C   PRO A   1      -9.012  -2.379 126.028  0.00  0.00    +0.234 C 
ATOM     11  O   PRO A   1     -10.023  -2.984 125.691  0.00  0.00    -0.274 OA
ATOM     12  H   VAL A   2      -9.109  -1.172 124.467  0.00  0.00    +0.149 HD
ENDROOT
BRANCH   8  13
ATOM     13  CB  VAL A   2      -6.781   0.355 124.671  0.00  0.00    +0.012 C 
ATOM     14  CG1 VAL A   2      -6.933  -0.343 123.308  0.00  0.00    +0.009 C 
ATOM     15  CG2 VAL A   2      -7.090   1.844 124.462  0.00  0.00    +0.009 C 
ENDBRANCH   8  13
TORSDOF 1
ENDMDL
