MODEL 1
REMARK VINA RESULT:      -8.5      0.000      0.000
REMARK  Name = NuBBE_1197
REMARK  15 active torsions:
REMARK  status: ('A' for Active; 'I' for Inactive)
REMARK    1  A    between atoms: C_1  and  C_2
REMARK    2  A    between atoms: C_2  and  C_12
REMARK    3  A    between atoms: C_4  and  C_5
REMARK    4  A    between atoms: C_5  and  C_6
REMARK    5  A    between atoms: C_5  and  O_7
REMARK    6  A    between atoms: C_5  and  C_8
REMARK    7  A    between atoms: C_16  and  C_17
REMARK    8  A    between atoms: C_18  and  C_23
REMARK    9  A    between atoms: C_26  and  C_34
REMARK   10  A    between atoms: C_27  and  C_28
REMARK   11  A    between atoms: C_27  and  C_29
REMARK   12  A    between atoms: C_29  and  C_30
REMARK   13  A    between atoms: C_30  and  C_31
REMARK   14  A    between atoms: C_31  and  O_32
REMARK   15  A    between atoms: C_34  and  C_35
REMARK                            x       y       z     vdW  Elec       q    Type
REMARK                         _______ _______ _______ _____ _____    ______ ____
ROOT
ATOM      1  C   LIG A   1      -5.688  -1.232 132.182  0.00  0.00    +0.024 C 
ATOM      2  C   LIG A   1      -6.796  -2.090 132.822  0.00  0.00    +0.007 C 
ATOM      3  C   LIG A   1      -7.444  -2.980 131.755  0.00  0.00    +0.008 C 
ATOM      4  C   LIG A   1      -6.501  -3.042 130.522  0.00  0.00    -0.023 C 
ATOM      5  C   LIG A   1      -5.958  -4.497 130.455  0.00  0.00    +0.012 C 
ATOM      6  C   LIG A   1      -7.172  -2.618 129.116  0.00  0.00    -0.023 C 
ATOM      7  C   LIG A   1      -6.050  -2.565 127.984  0.00  0.00    +0.002 C 
ATOM      8  C   LIG A   1      -4.666  -2.083 128.474  0.00  0.00    +0.005 C 
ATOM      9  C   LIG A   1      -4.790  -1.250 129.727  0.00  0.00    +0.005 C 
ATOM     10  C   LIG A   1      -5.322  -2.056 130.902  0.00  0.00    +0.001 C 
ATOM     11  C   LIG A   1      -7.994  -1.329 129.360  0.00  0.00    +0.012 C 
ATOM     12  C   LIG A   1      -8.187  -3.632 128.527  0.00  0.00    +0.008 C 
ATOM     13  C   LIG A   1      -8.867  -3.065 127.263  0.00  0.00    +0.009 C 
ATOM     14  C   LIG A   1      -7.933  -2.515 126.152  0.00  0.00    +0.020 C 
ATOM     15  C   LIG A   1      -6.480  -1.991 126.570  0.00  0.00    -0.022 C 
ATOM     16  C   LIG A   1      -6.329  -0.443 126.543  0.00  0.00    +0.012 C 
ENDROOT
BRANCH   1  18
ATOM     17  C   LIG A   1      -4.676   1.114 131.615  0.00  0.00    +0.042 C 
ATOM     18  C   LIG A   1      -5.909   0.340 132.156  0.00  0.00    +0.070 C 
ATOM     19  O   LIG A   1      -7.066   0.718 131.394  0.00  0.00    -0.367 OA
ATOM     20  C   LIG A   1      -7.558   1.999 131.853  0.00  0.00    +0.150 C 
ATOM     21  C   LIG A   1      -6.923   2.238 133.221  0.00  0.00    +0.037 C 
ATOM     22  C   LIG A   1      -6.223   0.927 133.540  0.00  0.00    +0.037 C 
BRANCH  20  23
ATOM     23  C   LIG A   1      -9.110   2.038 131.815  0.00  0.00    +0.086 C 
ATOM     24  C   LIG A   1      -9.695   0.624 131.818  0.00  0.00    +0.043 C 
ATOM     25  C   LIG A   1      -9.657   2.852 130.641  0.00  0.00    +0.043 C 
BRANCH  23  26
ATOM     26  O   LIG A   1      -9.582   2.672 133.016  0.00  0.00    -0.387 OA
ATOM     27  H   LIG A   1      -8.784   2.996 133.478  0.00  0.00    +0.210 HD
ENDBRANCH  23  26
ENDBRANCH  20  23
ENDBRANCH   1  18
BRANCH  14  28
ATOM     28  C   LIG A   1      -8.771  -1.706 125.140  0.00  0.00    -0.076 C 
ATOM     29  C   LIG A   1      -9.447  -0.419 125.537  0.00  0.00    +0.038 C 
ATOM     30  C   LIG A   1      -9.017  -2.199 123.910  0.00  0.00    +0.007 C 
ENDBRANCH  14  28
BRANCH  15  31
ATOM     31  C   LIG A   1      -5.437  -2.465 125.463  0.00  0.00    +0.018 C 
BRANCH  31  32
ATOM     32  C   LIG A   1      -5.821  -3.646 124.550  0.00  0.00    +0.121 C 
BRANCH  32  33
ATOM     33  C   LIG A   1      -4.632  -4.037 123.714  0.00  0.00    +0.305 C 
ATOM     34  O   LIG A   1      -3.752  -3.286 123.296  0.00  0.00    -0.251 OA
BRANCH  33  35
ATOM     35  O   LIG A   1      -4.559  -5.376 123.573  0.00  0.00    -0.481 OA
ATOM     36  H   LIG A   1      -4.778  -5.543 122.628  0.00  0.00    +0.295 HD
ENDBRANCH  33  35
ENDBRANCH  32  33
ENDBRANCH  31  32
ENDBRANCH  15  31
TORSDOF 8
ENDMDL
MODEL 2
REMARK VINA RESULT:      -8.3      3.358      4.939
REMARK  Name = NuBBE_1197
REMARK  15 active torsions:
REMARK  status: ('A' for Active; 'I' for Inactive)
REMARK    1  A    between atoms: C_1  and  C_2
REMARK    2  A    between atoms: C_2  and  C_12
REMARK    3  A    between atoms: C_4  and  C_5
REMARK    4  A    between atoms: C_5  and  C_6
REMARK    5  A    between atoms: C_5  and  O_7
REMARK    6  A    between atoms: C_5  and  C_8
REMARK    7  A    between atoms: C_16  and  C_17
REMARK    8  A    between atoms: C_18  and  C_23
REMARK    9  A    between atoms: C_26  and  C_34
REMARK   10  A    between atoms: C_27  and  C_28
REMARK   11  A    between atoms: C_27  and  C_29
REMARK   12  A    between atoms: C_29  and  C_30
REMARK   13  A    between atoms: C_30  and  C_31
REMARK   14  A    between atoms: C_31  and  O_32
REMARK   15  A    between atoms: C_34  and  C_35
REMARK                            x       y       z     vdW  Elec       q    Type
REMARK                         _______ _______ _______ _____ _____    ______ ____
ROOT
ATOM      1  C   LIG A   1      -6.611   3.151 130.121  0.00  0.00    +0.024 C 
ATOM      2  C   LIG A   1      -5.530   2.257 130.758  0.00  0.00    +0.007 C 
ATOM      3  C   LIG A   1      -5.071   1.198 129.748  0.00  0.00    +0.008 C 
ATOM      4  C   LIG A   1      -5.514   1.644 128.327  0.00  0.00    -0.023 C 
ATOM      5  C   LIG A   1      -4.213   1.990 127.549  0.00  0.00    +0.012 C 
ATOM      6  C   LIG A   1      -6.399   0.570 127.509  0.00  0.00    -0.023 C 
ATOM      7  C   LIG A   1      -6.918   1.229 126.153  0.00  0.00    +0.002 C 
ATOM      8  C   LIG A   1      -7.244   2.736 126.255  0.00  0.00    +0.005 C 
ATOM      9  C   LIG A   1      -7.546   3.135 127.679  0.00  0.00    +0.005 C 
ATOM     10  C   LIG A   1      -6.338   2.969 128.590  0.00  0.00    +0.001 C 
ATOM     11  C   LIG A   1      -7.468   0.010 128.478  0.00  0.00    +0.012 C 
ATOM     12  C   LIG A   1      -5.633  -0.678 126.998  0.00  0.00    +0.008 C 
ATOM     13  C   LIG A   1      -6.598  -1.697 126.357  0.00  0.00    +0.009 C 
ATOM     14  C   LIG A   1      -7.562  -1.159 125.265  0.00  0.00    +0.020 C 
ATOM     15  C   LIG A   1      -7.956   0.392 125.295  0.00  0.00    -0.022 C 
ATOM     16  C   LIG A   1      -9.409   0.670 125.779  0.00  0.00    +0.012 C 
ENDROOT
BRANCH   1  18
ATOM     17  C   LIG A   1      -8.319   1.781 131.555  0.00  0.00    +0.042 C 
ATOM     18  C   LIG A   1      -8.070   3.083 130.746  0.00  0.00    +0.070 C 
ATOM     19  O   LIG A   1      -8.359   4.214 131.583  0.00  0.00    -0.367 OA
ATOM     20  C   LIG A   1      -9.790   4.422 131.646  0.00  0.00    +0.150 C 
ATOM     21  C   LIG A   1     -10.390   3.638 130.480  0.00  0.00    +0.037 C 
ATOM     22  C   LIG A   1      -9.182   3.164 129.690  0.00  0.00    +0.037 C 
BRANCH  20  23
ATOM     23  C   LIG A   1     -10.124   5.938 131.679  0.00  0.00    +0.086 C 
ATOM     24  C   LIG A   1     -11.534   6.201 131.144  0.00  0.00    +0.043 C 
ATOM     25  C   LIG A   1      -9.093   6.792 130.940  0.00  0.00    +0.043 C 
BRANCH  23  26
ATOM     26  O   LIG A   1     -10.124   6.378 133.048  0.00  0.00    -0.387 OA
ATOM     27  H   LIG A   1      -9.701   5.660 133.559  0.00  0.00    +0.210 HD
ENDBRANCH  23  26
ENDBRANCH  20  23
ENDBRANCH   1  18
BRANCH  14  28
ATOM     28  C   LIG A   1      -8.651  -2.215 124.985  0.00  0.00    -0.076 C 
ATOM     29  C   LIG A   1      -9.317  -2.968 126.109  0.00  0.00    +0.038 C 
ATOM     30  C   LIG A   1      -8.943  -2.575 123.719  0.00  0.00    +0.007 C 
ENDBRANCH  14  28
BRANCH  15  31
ATOM     31  C   LIG A   1      -7.973   0.936 123.798  0.00  0.00    +0.018 C 
BRANCH  31  32
ATOM     32  C   LIG A   1      -9.231   1.675 123.300  0.00  0.00    +0.121 C 
BRANCH  32  33
ATOM     33  C   LIG A   1      -8.816   2.872 122.488  0.00  0.00    +0.305 C 
ATOM     34  O   LIG A   1      -9.048   3.064 121.295  0.00  0.00    -0.251 OA
BRANCH  33  35
ATOM     35  O   LIG A   1      -8.251   3.814 123.270  0.00  0.00    -0.481 OA
ATOM     36  H   LIG A   1      -8.326   3.461 124.185  0.00  0.00    +0.295 HD
ENDBRANCH  33  35
ENDBRANCH  32  33
ENDBRANCH  31  32
ENDBRANCH  15  31
TORSDOF 8
ENDMDL
MODEL 3
REMARK VINA RESULT:      -8.0      2.820      5.222
REMARK  Name = NuBBE_1197
REMARK  15 active torsions:
REMARK  status: ('A' for Active; 'I' for Inactive)
REMARK    1  A    between atoms: C_1  and  C_2
REMARK    2  A    between atoms: C_2  and  C_12
REMARK    3  A    between atoms: C_4  and  C_5
REMARK    4  A    between atoms: C_5  and  C_6
REMARK    5  A    between atoms: C_5  and  O_7
REMARK    6  A    between atoms: C_5  and  C_8
REMARK    7  A    between atoms: C_16  and  C_17
REMARK    8  A    between atoms: C_18  and  C_23
REMARK    9  A    between atoms: C_26  and  C_34
REMARK   10  A    between atoms: C_27  and  C_28
REMARK   11  A    between atoms: C_27  and  C_29
REMARK   12  A    between atoms: C_29  and  C_30
REMARK   13  A    between atoms: C_30  and  C_31
REMARK   14  A    between atoms: C_31  and  O_32
REMARK   15  A    between atoms: C_34  and  C_35
REMARK                            x       y       z     vdW  Elec       q    Type
REMARK                         _______ _______ _______ _____ _____    ______ ____
ROOT
ATOM      1  C   LIG A   1      -6.465   0.952 130.983  0.00  0.00    +0.024 C 
ATOM      2  C   LIG A   1      -4.929   1.022 130.893  0.00  0.00    +0.007 C 
ATOM      3  C   LIG A   1      -4.497   1.061 129.422  0.00  0.00    +0.008 C 
ATOM      4  C   LIG A   1      -5.726   1.453 128.555  0.00  0.00    -0.023 C 
ATOM      5  C   LIG A   1      -5.431   2.870 127.989  0.00  0.00    +0.012 C 
ATOM      6  C   LIG A   1      -6.086   0.426 127.363  0.00  0.00    -0.023 C 
ATOM      7  C   LIG A   1      -7.458   0.865 126.678  0.00  0.00    +0.002 C 
ATOM      8  C   LIG A   1      -8.492   1.480 127.647  0.00  0.00    +0.005 C 
ATOM      9  C   LIG A   1      -8.242   1.034 129.067  0.00  0.00    +0.005 C 
ATOM     10  C   LIG A   1      -6.910   1.539 129.602  0.00  0.00    +0.001 C 
ATOM     11  C   LIG A   1      -6.012  -1.008 127.942  0.00  0.00    +0.012 C 
ATOM     12  C   LIG A   1      -5.104   0.421 126.163  0.00  0.00    +0.008 C 
ATOM     13  C   LIG A   1      -5.465  -0.689 125.154  0.00  0.00    +0.009 C 
ATOM     14  C   LIG A   1      -6.936  -0.735 124.659  0.00  0.00    +0.020 C 
ATOM     15  C   LIG A   1      -8.075  -0.122 125.602  0.00  0.00    -0.022 C 
ATOM     16  C   LIG A   1      -8.970  -1.190 126.296  0.00  0.00    +0.012 C 
ENDROOT
BRANCH   1  18
ATOM     17  C   LIG A   1      -8.628  -0.252 131.832  0.00  0.00    +0.042 C 
ATOM     18  C   LIG A   1      -7.097  -0.369 131.598  0.00  0.00    +0.070 C 
ATOM     19  O   LIG A   1      -6.837  -1.528 130.790  0.00  0.00    -0.367 OA
ATOM     20  C   LIG A   1      -6.892  -2.719 131.611  0.00  0.00    +0.150 C 
ATOM     21  C   LIG A   1      -6.783  -2.247 133.060  0.00  0.00    +0.037 C 
ATOM     22  C   LIG A   1      -6.476  -0.763 132.946  0.00  0.00    +0.037 C 
BRANCH  20  23
ATOM     23  C   LIG A   1      -5.823  -3.749 131.158  0.00  0.00    +0.086 C 
ATOM     24  C   LIG A   1      -5.548  -4.776 132.260  0.00  0.00    +0.043 C 
ATOM     25  C   LIG A   1      -4.524  -3.093 130.688  0.00  0.00    +0.043 C 
BRANCH  23  26
ATOM     26  O   LIG A   1      -6.344  -4.488 130.039  0.00  0.00    -0.387 OA
ATOM     27  H   LIG A   1      -7.277  -4.212 129.948  0.00  0.00    +0.210 HD
ENDBRANCH  23  26
ENDBRANCH  20  23
ENDBRANCH   1  18
BRANCH  14  28
ATOM     28  C   LIG A   1      -7.186  -2.076 123.937  0.00  0.00    -0.076 C 
ATOM     29  C   LIG A   1      -6.522  -3.348 124.398  0.00  0.00    +0.038 C 
ATOM     30  C   LIG A   1      -7.910  -2.113 122.801  0.00  0.00    +0.007 C 
ENDBRANCH  14  28
BRANCH  15  31
ATOM     31  C   LIG A   1      -9.114   0.666 124.687  0.00  0.00    +0.018 C 
BRANCH  31  32
ATOM     32  C   LIG A   1      -8.572   1.491 123.504  0.00  0.00    +0.121 C 
BRANCH  32  33
ATOM     33  C   LIG A   1      -8.658   2.956 123.837  0.00  0.00    +0.305 C 
ATOM     34  O   LIG A   1      -8.958   3.443 124.925  0.00  0.00    -0.251 OA
BRANCH  33  35
ATOM     35  O   LIG A   1      -8.227   3.712 122.806  0.00  0.00    -0.481 OA
ATOM     36  H   LIG A   1      -7.521   4.281 123.189  0.00  0.00    +0.295 HD
ENDBRANCH  33  35
ENDBRANCH  32  33
ENDBRANCH  31  32
ENDBRANCH  15  31
TORSDOF 8
ENDMDL
MODEL 4
REMARK VINA RESULT:      -7.9      1.950      3.509
REMARK  Name = NuBBE_1197
REMARK  15 active torsions:
REMARK  status: ('A' for Active; 'I' for Inactive)
REMARK    1  A    between atoms: C_1  and  C_2
REMARK    2  A    between atoms: C_2  and  C_12
REMARK    3  A    between atoms: C_4  and  C_5
REMARK    4  A    between atoms: C_5  and  C_6
REMARK    5  A    between atoms: C_5  and  O_7
REMARK    6  A    between atoms: C_5  and  C_8
REMARK    7  A    between atoms: C_16  and  C_17
REMARK    8  A    between atoms: C_18  and  C_23
REMARK    9  A    between atoms: C_26  and  C_34
REMARK   10  A    between atoms: C_27  and  C_28
REMARK   11  A    between atoms: C_27  and  C_29
REMARK   12  A    between atoms: C_29  and  C_30
REMARK   13  A    between atoms: C_30  and  C_31
REMARK   14  A    between atoms: C_31  and  O_32
REMARK   15  A    between atoms: C_34  and  C_35
REMARK                            x       y       z     vdW  Elec       q    Type
REMARK                         _______ _______ _______ _____ _____    ______ ____
ROOT
ATOM      1  C   LIG A   1      -6.891   2.454 131.521  0.00  0.00    +0.024 C 
ATOM      2  C   LIG A   1      -6.315   1.529 132.610  0.00  0.00    +0.007 C 
ATOM      3  C   LIG A   1      -5.818   0.225 131.974  0.00  0.00    +0.008 C 
ATOM      4  C   LIG A   1      -5.660   0.449 130.444  0.00  0.00    -0.023 C 
ATOM      5  C   LIG A   1      -4.135   0.397 130.146  0.00  0.00    +0.012 C 
ATOM      6  C   LIG A   1      -6.460  -0.593 129.506  0.00  0.00    -0.023 C 
ATOM      7  C   LIG A   1      -6.343  -0.137 127.982  0.00  0.00    +0.002 C 
ATOM      8  C   LIG A   1      -6.321   1.393 127.770  0.00  0.00    +0.005 C 
ATOM      9  C   LIG A   1      -6.964   2.115 128.929  0.00  0.00    +0.005 C 
ATOM     10  C   LIG A   1      -6.189   1.925 130.225  0.00  0.00    +0.001 C 
ATOM     11  C   LIG A   1      -7.885  -0.750 130.091  0.00  0.00    +0.012 C 
ATOM     12  C   LIG A   1      -5.886  -2.033 129.465  0.00  0.00    +0.008 C 
ATOM     13  C   LIG A   1      -6.803  -2.973 128.655  0.00  0.00    +0.009 C 
ATOM     14  C   LIG A   1      -7.209  -2.502 127.232  0.00  0.00    +0.020 C 
ATOM     15  C   LIG A   1      -7.215  -0.932 126.923  0.00  0.00    -0.022 C 
ATOM     16  C   LIG A   1      -8.638  -0.311 126.815  0.00  0.00    +0.012 C 
ENDROOT
BRANCH   1  18
ATOM     17  C   LIG A   1      -9.270   1.622 132.228  0.00  0.00    +0.042 C 
ATOM     18  C   LIG A   1      -8.446   2.772 131.585  0.00  0.00    +0.070 C 
ATOM     19  O   LIG A   1      -8.726   3.993 132.286  0.00  0.00    -0.367 OA
ATOM     20  C   LIG A   1      -9.993   4.533 131.840  0.00  0.00    +0.150 C 
ATOM     21  C   LIG A   1     -10.318   3.833 130.523  0.00  0.00    +0.037 C 
ATOM     22  C   LIG A   1      -9.064   3.037 130.204  0.00  0.00    +0.037 C 
BRANCH  20  23
ATOM     23  C   LIG A   1      -9.939   6.084 131.782  0.00  0.00    +0.086 C 
ATOM     24  C   LIG A   1     -11.048   6.638 130.884  0.00  0.00    +0.043 C 
ATOM     25  C   LIG A   1      -8.572   6.617 131.351  0.00  0.00    +0.043 C 
BRANCH  23  26
ATOM     26  O   LIG A   1     -10.191   6.602 133.100  0.00  0.00    -0.387 OA
ATOM     27  H   LIG A   1     -10.384   7.552 132.980  0.00  0.00    +0.210 HD
ENDBRANCH  23  26
ENDBRANCH  20  23
ENDBRANCH   1  18
BRANCH  14  28
ATOM     28  C   LIG A   1      -8.366  -3.384 126.717  0.00  0.00    -0.076 C 
ATOM     29  C   LIG A   1      -8.600  -3.582 125.241  0.00  0.00    +0.038 C 
ATOM     30  C   LIG A   1      -9.268  -3.896 127.577  0.00  0.00    +0.007 C 
ENDBRANCH  14  28
BRANCH  15  31
ATOM     31  C   LIG A   1      -6.620  -0.704 125.463  0.00  0.00    +0.018 C 
BRANCH  31  32
ATOM     32  C   LIG A   1      -5.364  -1.496 125.051  0.00  0.00    +0.121 C 
BRANCH  32  33
ATOM     33  C   LIG A   1      -5.659  -2.286 123.804  0.00  0.00    +0.305 C 
ATOM     34  O   LIG A   1      -6.145  -1.852 122.761  0.00  0.00    -0.251 OA
BRANCH  33  35
ATOM     35  O   LIG A   1      -5.195  -3.547 123.910  0.00  0.00    -0.481 OA
ATOM     36  H   LIG A   1      -6.001  -4.111 123.935  0.00  0.00    +0.295 HD
ENDBRANCH  33  35
ENDBRANCH  32  33
ENDBRANCH  31  32
ENDBRANCH  15  31
TORSDOF 8
ENDMDL
MODEL 5
REMARK VINA RESULT:      -7.8      3.910      5.940
REMARK  Name = NuBBE_1197
REMARK  15 active torsions:
REMARK  status: ('A' for Active; 'I' for Inactive)
REMARK    1  A    between atoms: C_1  and  C_2
REMARK    2  A    between atoms: C_2  and  C_12
REMARK    3  A    between atoms: C_4  and  C_5
REMARK    4  A    between atoms: C_5  and  C_6
REMARK    5  A    between atoms: C_5  and  O_7
REMARK    6  A    between atoms: C_5  and  C_8
REMARK    7  A    between atoms: C_16  and  C_17
REMARK    8  A    between atoms: C_18  and  C_23
REMARK    9  A    between atoms: C_26  and  C_34
REMARK   10  A    between atoms: C_27  and  C_28
REMARK   11  A    between atoms: C_27  and  C_29
REMARK   12  A    between atoms: C_29  and  C_30
REMARK   13  A    between atoms: C_30  and  C_31
REMARK   14  A    between atoms: C_31  and  O_32
REMARK   15  A    between atoms: C_34  and  C_35
REMARK                            x       y       z     vdW  Elec       q    Type
REMARK                         _______ _______ _______ _____ _____    ______ ____
ROOT
ATOM      1  C   LIG A   1      -3.973   5.114 128.468  0.00  0.00    +0.024 C 
ATOM      2  C   LIG A   1      -2.687   4.669 127.745  0.00  0.00    +0.007 C 
ATOM      3  C   LIG A   1      -2.994   3.480 126.827  0.00  0.00    +0.008 C 
ATOM      4  C   LIG A   1      -4.531   3.411 126.603  0.00  0.00    -0.023 C 
ATOM      5  C   LIG A   1      -4.775   3.773 125.112  0.00  0.00    +0.012 C 
ATOM      6  C   LIG A   1      -5.219   1.996 126.968  0.00  0.00    -0.023 C 
ATOM      7  C   LIG A   1      -6.804   2.130 126.853  0.00  0.00    +0.002 C 
ATOM      8  C   LIG A   1      -7.364   3.509 127.268  0.00  0.00    +0.005 C 
ATOM      9  C   LIG A   1      -6.417   4.225 128.200  0.00  0.00    +0.005 C 
ATOM     10  C   LIG A   1      -5.095   4.566 127.525  0.00  0.00    +0.001 C 
ATOM     11  C   LIG A   1      -4.644   1.533 128.328  0.00  0.00    +0.012 C 
ATOM     12  C   LIG A   1      -4.914   0.832 125.990  0.00  0.00    +0.008 C 
ATOM     13  C   LIG A   1      -5.504  -0.496 126.507  0.00  0.00    +0.009 C 
ATOM     14  C   LIG A   1      -7.006  -0.490 126.902  0.00  0.00    +0.020 C 
ATOM     15  C   LIG A   1      -7.669   0.897 127.348  0.00  0.00    -0.022 C 
ATOM     16  C   LIG A   1      -7.948   1.007 128.875  0.00  0.00    +0.012 C 
ENDROOT
BRANCH   1  18
ATOM     17  C   LIG A   1      -2.646   5.221 130.722  0.00  0.00    +0.042 C 
ATOM     18  C   LIG A   1      -4.016   4.939 130.046  0.00  0.00    +0.070 C 
ATOM     19  O   LIG A   1      -5.017   5.765 130.662  0.00  0.00    -0.367 OA
ATOM     20  C   LIG A   1      -5.421   5.186 131.925  0.00  0.00    +0.150 C 
ATOM     21  C   LIG A   1      -4.946   3.735 131.903  0.00  0.00    +0.037 C 
ATOM     22  C   LIG A   1      -4.440   3.530 130.484  0.00  0.00    +0.037 C 
BRANCH  20  23
ATOM     23  C   LIG A   1      -6.941   5.392 132.163  0.00  0.00    +0.086 C 
ATOM     24  C   LIG A   1      -7.461   6.600 131.379  0.00  0.00    +0.043 C 
ATOM     25  C   LIG A   1      -7.301   5.510 133.645  0.00  0.00    +0.043 C 
BRANCH  23  26
ATOM     26  O   LIG A   1      -7.645   4.247 131.654  0.00  0.00    -0.387 OA
ATOM     27  H   LIG A   1      -7.725   4.389 130.691  0.00  0.00    +0.210 HD
ENDBRANCH  23  26
ENDBRANCH  20  23
ENDBRANCH   1  18
BRANCH  14  28
ATOM     28  C   LIG A   1      -7.328  -1.776 127.692  0.00  0.00    -0.076 C 
ATOM     29  C   LIG A   1      -6.428  -2.258 128.801  0.00  0.00    +0.038 C 
ATOM     30  C   LIG A   1      -8.358  -2.562 127.323  0.00  0.00    +0.007 C 
ENDBRANCH  14  28
BRANCH  15  31
ATOM     31  C   LIG A   1      -9.129   0.981 126.717  0.00  0.00    +0.018 C 
BRANCH  31  32
ATOM     32  C   LIG A   1      -9.336   0.476 125.276  0.00  0.00    +0.121 C 
BRANCH  32  33
ATOM     33  C   LIG A   1      -9.838   1.606 124.418  0.00  0.00    +0.305 C 
ATOM     34  O   LIG A   1      -9.181   2.562 124.009  0.00  0.00    -0.251 OA
BRANCH  33  35
ATOM     35  O   LIG A   1     -11.108   1.385 124.021  0.00  0.00    -0.481 OA
ATOM     36  H   LIG A   1     -11.614   2.161 124.352  0.00  0.00    +0.295 HD
ENDBRANCH  33  35
ENDBRANCH  32  33
ENDBRANCH  31  32
ENDBRANCH  15  31
TORSDOF 8
ENDMDL
MODEL 6
REMARK VINA RESULT:      -7.8      4.225      5.887
REMARK  Name = NuBBE_1197
REMARK  15 active torsions:
REMARK  status: ('A' for Active; 'I' for Inactive)
REMARK    1  A    between atoms: C_1  and  C_2
REMARK    2  A    between atoms: C_2  and  C_12
REMARK    3  A    between atoms: C_4  and  C_5
REMARK    4  A    between atoms: C_5  and  C_6
REMARK    5  A    between atoms: C_5  and  O_7
REMARK    6  A    between atoms: C_5  and  C_8
REMARK    7  A    between atoms: C_16  and  C_17
REMARK    8  A    between atoms: C_18  and  C_23
REMARK    9  A    between atoms: C_26  and  C_34
REMARK   10  A    between atoms: C_27  and  C_28
REMARK   11  A    between atoms: C_27  and  C_29
REMARK   12  A    between atoms: C_29  and  C_30
REMARK   13  A    between atoms: C_30  and  C_31
REMARK   14  A    between atoms: C_31  and  O_32
REMARK   15  A    between atoms: C_34  and  C_35
REMARK                            x       y       z     vdW  Elec       q    Type
REMARK                         _______ _______ _______ _____ _____    ______ ____
ROOT
ATOM      1  C   LIG A   1      -5.516   4.524 129.202  0.00  0.00    +0.024 C 
ATOM      2  C   LIG A   1      -4.310   3.691 129.674  0.00  0.00    +0.007 C 
ATOM      3  C   LIG A   1      -3.954   2.645 128.610  0.00  0.00    +0.008 C 
ATOM      4  C   LIG A   1      -4.623   3.055 127.269  0.00  0.00    -0.023 C 
ATOM      5  C   LIG A   1      -3.471   3.455 126.306  0.00  0.00    +0.012 C 
ATOM      6  C   LIG A   1      -5.566   1.930 126.595  0.00  0.00    -0.023 C 
ATOM      7  C   LIG A   1      -6.312   2.550 125.329  0.00  0.00    +0.002 C 
ATOM      8  C   LIG A   1      -6.694   4.040 125.474  0.00  0.00    +0.005 C 
ATOM      9  C   LIG A   1      -6.800   4.438 126.926  0.00  0.00    +0.005 C 
ATOM     10  C   LIG A   1      -5.464   4.341 127.648  0.00  0.00    +0.001 C 
ATOM     11  C   LIG A   1      -6.450   1.329 127.714  0.00  0.00    +0.012 C 
ATOM     12  C   LIG A   1      -4.823   0.716 125.979  0.00  0.00    +0.008 C 
ATOM     13  C   LIG A   1      -5.820  -0.355 125.491  0.00  0.00    +0.009 C 
ATOM     14  C   LIG A   1      -6.961   0.124 124.553  0.00  0.00    +0.020 C 
ATOM     15  C   LIG A   1      -7.423   1.654 124.637  0.00  0.00    -0.022 C 
ATOM     16  C   LIG A   1      -8.800   1.867 125.330  0.00  0.00    +0.012 C 
ENDROOT
BRANCH   1  18
ATOM     17  C   LIG A   1      -6.617   3.955 131.507  0.00  0.00    +0.042 C 
ATOM     18  C   LIG A   1      -6.861   4.392 130.037  0.00  0.00    +0.070 C 
ATOM     19  O   LIG A   1      -7.629   5.606 130.033  0.00  0.00    -0.367 OA
ATOM     20  C   LIG A   1      -9.025   5.302 130.268  0.00  0.00    +0.150 C 
ATOM     21  C   LIG A   1      -9.189   3.806 130.005  0.00  0.00    +0.037 C 
ATOM     22  C   LIG A   1      -7.846   3.379 129.436  0.00  0.00    +0.037 C 
BRANCH  20  23
ATOM     23  C   LIG A   1      -9.939   6.236 129.429  0.00  0.00    +0.086 C 
ATOM     24  C   LIG A   1      -9.638   7.708 129.724  0.00  0.00    +0.043 C 
ATOM     25  C   LIG A   1     -11.427   5.937 129.616  0.00  0.00    +0.043 C 
BRANCH  23  26
ATOM     26  O   LIG A   1      -9.646   6.035 128.036  0.00  0.00    -0.387 OA
ATOM     27  H   LIG A   1      -9.607   6.928 127.640  0.00  0.00    +0.210 HD
ENDBRANCH  23  26
ENDBRANCH  20  23
ENDBRANCH   1  18
BRANCH  14  28
ATOM     28  C   LIG A   1      -8.026  -0.986 124.441  0.00  0.00    -0.076 C 
ATOM     29  C   LIG A   1      -8.751  -1.247 123.145  0.00  0.00    +0.038 C 
ATOM     30  C   LIG A   1      -8.420  -1.666 125.536  0.00  0.00    +0.007 C 
ENDBRANCH  14  28
BRANCH  15  31
ATOM     31  C   LIG A   1      -7.689   2.182 123.158  0.00  0.00    +0.018 C 
BRANCH  31  32
ATOM     32  C   LIG A   1      -6.486   2.334 122.206  0.00  0.00    +0.121 C 
BRANCH  32  33
ATOM     33  C   LIG A   1      -6.579   3.658 121.495  0.00  0.00    +0.305 C 
ATOM     34  O   LIG A   1      -7.305   3.927 120.540  0.00  0.00    -0.251 OA
BRANCH  33  35
ATOM     35  O   LIG A   1      -5.844   4.597 122.125  0.00  0.00    -0.481 OA
ATOM     36  H   LIG A   1      -5.270   4.093 122.745  0.00  0.00    +0.295 HD
ENDBRANCH  33  35
ENDBRANCH  32  33
ENDBRANCH  31  32
ENDBRANCH  15  31
TORSDOF 8
ENDMDL
MODEL 7
REMARK VINA RESULT:      -7.8      3.168      7.387
REMARK  Name = NuBBE_1197
REMARK  15 active torsions:
REMARK  status: ('A' for Active; 'I' for Inactive)
REMARK    1  A    between atoms: C_1  and  C_2
REMARK    2  A    between atoms: C_2  and  C_12
REMARK    3  A    between atoms: C_4  and  C_5
REMARK    4  A    between atoms: C_5  and  C_6
REMARK    5  A    between atoms: C_5  and  O_7
REMARK    6  A    between atoms: C_5  and  C_8
REMARK    7  A    between atoms: C_16  and  C_17
REMARK    8  A    between atoms: C_18  and  C_23
REMARK    9  A    between atoms: C_26  and  C_34
REMARK   10  A    between atoms: C_27  and  C_28
REMARK   11  A    between atoms: C_27  and  C_29
REMARK   12  A    between atoms: C_29  and  C_30
REMARK   13  A    between atoms: C_30  and  C_31
REMARK   14  A    between atoms: C_31  and  O_32
REMARK   15  A    between atoms: C_34  and  C_35
REMARK                            x       y       z     vdW  Elec       q    Type
REMARK                         _______ _______ _______ _____ _____    ______ ____
ROOT
ATOM      1  C   LIG A   1      -6.449   2.712 124.392  0.00  0.00    +0.024 C 
ATOM      2  C   LIG A   1      -6.427   4.195 124.810  0.00  0.00    +0.007 C 
ATOM      3  C   LIG A   1      -6.133   4.306 126.310  0.00  0.00    +0.008 C 
ATOM      4  C   LIG A   1      -5.535   2.958 126.799  0.00  0.00    -0.023 C 
ATOM      5  C   LIG A   1      -4.051   3.240 127.163  0.00  0.00    +0.012 C 
ATOM      6  C   LIG A   1      -6.306   2.269 128.039  0.00  0.00    -0.023 C 
ATOM      7  C   LIG A   1      -5.689   0.824 128.314  0.00  0.00    +0.002 C 
ATOM      8  C   LIG A   1      -5.224   0.073 127.047  0.00  0.00    +0.005 C 
ATOM      9  C   LIG A   1      -5.937   0.582 125.818  0.00  0.00    +0.005 C 
ATOM     10  C   LIG A   1      -5.597   2.034 125.516  0.00  0.00    +0.001 C 
ATOM     11  C   LIG A   1      -7.824   2.348 127.749  0.00  0.00    +0.012 C 
ATOM     12  C   LIG A   1      -6.127   2.971 129.411  0.00  0.00    +0.008 C 
ATOM     13  C   LIG A   1      -7.014   2.315 130.490  0.00  0.00    +0.009 C 
ATOM     14  C   LIG A   1      -6.906   0.773 130.643  0.00  0.00    +0.020 C 
ATOM     15  C   LIG A   1      -6.433  -0.086 129.379  0.00  0.00    -0.022 C 
ATOM     16  C   LIG A   1      -7.573  -0.897 128.698  0.00  0.00    +0.012 C 
ENDROOT
BRANCH   1  18
ATOM     17  C   LIG A   1      -8.491   2.982 122.777  0.00  0.00    +0.042 C 
ATOM     18  C   LIG A   1      -7.834   2.119 123.889  0.00  0.00    +0.070 C 
ATOM     19  O   LIG A   1      -7.713   0.768 123.419  0.00  0.00    -0.367 OA
ATOM     20  C   LIG A   1      -8.990   0.095 123.528  0.00  0.00    +0.150 C 
ATOM     21  C   LIG A   1      -9.838   0.938 124.478  0.00  0.00    +0.037 C 
ATOM     22  C   LIG A   1      -8.874   1.984 125.011  0.00  0.00    +0.037 C 
BRANCH  20  23
ATOM     23  C   LIG A   1      -8.796  -1.390 123.937  0.00  0.00    +0.086 C 
ATOM     24  C   LIG A   1      -8.997  -1.576 125.443  0.00  0.00    +0.043 C 
ATOM     25  C   LIG A   1      -7.446  -1.958 123.494  0.00  0.00    +0.043 C 
BRANCH  23  26
ATOM     26  O   LIG A   1      -9.811  -2.179 123.294  0.00  0.00    -0.387 OA
ATOM     27  H   LIG A   1      -9.344  -2.941 122.897  0.00  0.00    +0.210 HD
ENDBRANCH  23  26
ENDBRANCH  20  23
ENDBRANCH   1  18
BRANCH  14  28
ATOM     28  C   LIG A   1      -8.076   0.267 131.512  0.00  0.00    -0.076 C 
ATOM     29  C   LIG A   1      -9.385   1.012 131.571  0.00  0.00    +0.038 C 
ATOM     30  C   LIG A   1      -7.909  -0.789 132.333  0.00  0.00    +0.007 C 
ENDBRANCH  14  28
BRANCH  15  31
ATOM     31  C   LIG A   1      -5.445  -1.227 129.888  0.00  0.00    +0.018 C 
BRANCH  31  32
ATOM     32  C   LIG A   1      -4.107  -0.808 130.528  0.00  0.00    +0.121 C 
BRANCH  32  33
ATOM     33  C   LIG A   1      -3.245  -2.027 130.724  0.00  0.00    +0.305 C 
ATOM     34  O   LIG A   1      -3.328  -2.843 131.640  0.00  0.00    -0.251 OA
BRANCH  33  35
ATOM     35  O   LIG A   1      -2.420  -2.209 129.673  0.00  0.00    -0.481 OA
ATOM     36  H   LIG A   1      -3.006  -2.169 128.883  0.00  0.00    +0.295 HD
ENDBRANCH  33  35
ENDBRANCH  32  33
ENDBRANCH  31  32
ENDBRANCH  15  31
TORSDOF 8
ENDMDL
MODEL 8
REMARK VINA RESULT:      -7.7      4.445      6.600
REMARK  Name = NuBBE_1197
REMARK  15 active torsions:
REMARK  status: ('A' for Active; 'I' for Inactive)
REMARK    1  A    between atoms: C_1  and  C_2
REMARK    2  A    between atoms: C_2  and  C_12
REMARK    3  A    between atoms: C_4  and  C_5
REMARK    4  A    between atoms: C_5  and  C_6
REMARK    5  A    between atoms: C_5  and  O_7
REMARK    6  A    between atoms: C_5  and  C_8
REMARK    7  A    between atoms: C_16  and  C_17
REMARK    8  A    between atoms: C_18  and  C_23
REMARK    9  A    between atoms: C_26  and  C_34
REMARK   10  A    between atoms: C_27  and  C_28
REMARK   11  A    between atoms: C_27  and  C_29
REMARK   12  A    between atoms: C_29  and  C_30
REMARK   13  A    between atoms: C_30  and  C_31
REMARK   14  A    between atoms: C_31  and  O_32
REMARK   15  A    between atoms: C_34  and  C_35
REMARK                            x       y       z     vdW  Elec       q    Type
REMARK                         _______ _______ _______ _____ _____    ______ ____
ROOT
ATOM      1  C   LIG A   1      -4.187   5.154 128.681  0.00  0.00    +0.024 C 
ATOM      2  C   LIG A   1      -2.856   4.786 127.998  0.00  0.00    +0.007 C 
ATOM      3  C   LIG A   1      -3.075   3.611 127.037  0.00  0.00    +0.008 C 
ATOM      4  C   LIG A   1      -4.597   3.481 126.752  0.00  0.00    -0.023 C 
ATOM      5  C   LIG A   1      -4.801   3.873 125.262  0.00  0.00    +0.012 C 
ATOM      6  C   LIG A   1      -5.234   2.028 127.051  0.00  0.00    -0.023 C 
ATOM      7  C   LIG A   1      -6.818   2.096 126.878  0.00  0.00    +0.002 C 
ATOM      8  C   LIG A   1      -7.455   3.436 127.307  0.00  0.00    +0.005 C 
ATOM      9  C   LIG A   1      -6.577   4.167 128.294  0.00  0.00    +0.005 C 
ATOM     10  C   LIG A   1      -5.247   4.584 127.681  0.00  0.00    +0.001 C 
ATOM     11  C   LIG A   1      -4.691   1.552 128.420  0.00  0.00    +0.012 C 
ATOM     12  C   LIG A   1      -4.841   0.906 126.056  0.00  0.00    +0.008 C 
ATOM     13  C   LIG A   1      -5.390  -0.461 126.514  0.00  0.00    +0.009 C 
ATOM     14  C   LIG A   1      -6.904  -0.531 126.850  0.00  0.00    +0.020 C 
ATOM     15  C   LIG A   1      -7.646   0.812 127.306  0.00  0.00    -0.022 C 
ATOM     16  C   LIG A   1      -7.987   0.868 128.823  0.00  0.00    +0.012 C 
ENDROOT
BRANCH   1  18
ATOM     17  C   LIG A   1      -4.956   3.586 130.631  0.00  0.00    +0.042 C 
ATOM     18  C   LIG A   1      -4.283   4.933 130.251  0.00  0.00    +0.070 C 
ATOM     19  O   LIG A   1      -3.001   5.010 130.895  0.00  0.00    -0.367 OA
ATOM     20  C   LIG A   1      -3.172   5.384 132.282  0.00  0.00    +0.150 C 
ATOM     21  C   LIG A   1      -4.583   5.955 132.403  0.00  0.00    +0.037 C 
ATOM     22  C   LIG A   1      -5.076   6.037 130.967  0.00  0.00    +0.037 C 
BRANCH  20  23
ATOM     23  C   LIG A   1      -2.025   6.324 132.743  0.00  0.00    +0.086 C 
ATOM     24  C   LIG A   1      -2.577   7.668 133.225  0.00  0.00    +0.043 C 
ATOM     25  C   LIG A   1      -0.954   6.528 131.670  0.00  0.00    +0.043 C 
BRANCH  23  26
ATOM     26  O   LIG A   1      -1.370   5.728 133.876  0.00  0.00    -0.387 OA
ATOM     27  H   LIG A   1      -1.242   4.787 133.645  0.00  0.00    +0.210 HD
ENDBRANCH  23  26
ENDBRANCH  20  23
ENDBRANCH   1  18
BRANCH  14  28
ATOM     28  C   LIG A   1      -7.199  -1.851 127.592  0.00  0.00    -0.076 C 
ATOM     29  C   LIG A   1      -8.433  -2.661 127.287  0.00  0.00    +0.038 C 
ATOM     30  C   LIG A   1      -6.419  -2.245 128.618  0.00  0.00    +0.007 C 
ENDBRANCH  14  28
BRANCH  15  31
ATOM     31  C   LIG A   1      -9.083   0.851 126.620  0.00  0.00    +0.018 C 
BRANCH  31  32
ATOM     32  C   LIG A   1      -9.225   0.316 125.182  0.00  0.00    +0.121 C 
BRANCH  32  33
ATOM     33  C   LIG A   1      -9.987   1.314 124.352  0.00  0.00    +0.305 C 
ATOM     34  O   LIG A   1     -10.872   1.063 123.535  0.00  0.00    -0.251 OA
BRANCH  33  35
ATOM     35  O   LIG A   1      -9.676   2.577 124.708  0.00  0.00    -0.481 OA
ATOM     36  H   LIG A   1     -10.526   2.969 125.013  0.00  0.00    +0.295 HD
ENDBRANCH  33  35
ENDBRANCH  32  33
ENDBRANCH  31  32
ENDBRANCH  15  31
TORSDOF 8
ENDMDL
MODEL 9
REMARK VINA RESULT:      -7.7      2.971      8.322
REMARK  Name = NuBBE_1197
REMARK  15 active torsions:
REMARK  status: ('A' for Active; 'I' for Inactive)
REMARK    1  A    between atoms: C_1  and  C_2
REMARK    2  A    between atoms: C_2  and  C_12
REMARK    3  A    between atoms: C_4  and  C_5
REMARK    4  A    between atoms: C_5  and  C_6
REMARK    5  A    between atoms: C_5  and  O_7
REMARK    6  A    between atoms: C_5  and  C_8
REMARK    7  A    between atoms: C_16  and  C_17
REMARK    8  A    between atoms: C_18  and  C_23
REMARK    9  A    between atoms: C_26  and  C_34
REMARK   10  A    between atoms: C_27  and  C_28
REMARK   11  A    between atoms: C_27  and  C_29
REMARK   12  A    between atoms: C_29  and  C_30
REMARK   13  A    between atoms: C_30  and  C_31
REMARK   14  A    between atoms: C_31  and  O_32
REMARK   15  A    between atoms: C_34  and  C_35
REMARK                            x       y       z     vdW  Elec       q    Type
REMARK                         _______ _______ _______ _____ _____    ______ ____
ROOT
ATOM      1  C   LIG A   1      -5.985   0.638 126.940  0.00  0.00    +0.024 C 
ATOM      2  C   LIG A   1      -4.808   1.569 126.593  0.00  0.00    +0.007 C 
ATOM      3  C   LIG A   1      -4.675   2.657 127.666  0.00  0.00    +0.008 C 
ATOM      4  C   LIG A   1      -5.461   2.207 128.929  0.00  0.00    -0.023 C 
ATOM      5  C   LIG A   1      -4.401   1.925 130.030  0.00  0.00    +0.012 C 
ATOM      6  C   LIG A   1      -6.572   3.251 129.460  0.00  0.00    -0.023 C 
ATOM      7  C   LIG A   1      -7.406   2.584 130.645  0.00  0.00    +0.002 C 
ATOM      8  C   LIG A   1      -7.636   1.064 130.491  0.00  0.00    +0.005 C 
ATOM      9  C   LIG A   1      -7.534   0.638 129.047  0.00  0.00    +0.005 C 
ATOM     10  C   LIG A   1      -6.135   0.846 128.484  0.00  0.00    +0.001 C 
ATOM     11  C   LIG A   1      -7.366   3.756 128.231  0.00  0.00    +0.012 C 
ATOM     12  C   LIG A   1      -6.017   4.535 130.130  0.00  0.00    +0.008 C 
ATOM     13  C   LIG A   1      -7.156   5.519 130.471  0.00  0.00    +0.009 C 
ATOM     14  C   LIG A   1      -8.354   4.951 131.280  0.00  0.00    +0.020 C 
ATOM     15  C   LIG A   1      -8.666   3.385 131.179  0.00  0.00    -0.022 C 
ATOM     16  C   LIG A   1      -9.927   3.040 130.334  0.00  0.00    +0.012 C 
ENDROOT
BRANCH   1  18
ATOM     17  C   LIG A   1      -7.260   1.882 125.023  0.00  0.00    +0.042 C 
ATOM     18  C   LIG A   1      -7.227   0.636 125.950  0.00  0.00    +0.070 C 
ATOM     19  O   LIG A   1      -7.281  -0.548 125.140  0.00  0.00    -0.367 OA
ATOM     20  C   LIG A   1      -8.644  -0.790 124.717  0.00  0.00    +0.150 C 
ATOM     21  C   LIG A   1      -9.533   0.051 125.631  0.00  0.00    +0.037 C 
ATOM     22  C   LIG A   1      -8.578   0.597 126.679  0.00  0.00    +0.037 C 
BRANCH  20  23
ATOM     23  C   LIG A   1      -8.951  -2.311 124.693  0.00  0.00    +0.086 C 
ATOM     24  C   LIG A   1      -7.781  -3.116 125.266  0.00  0.00    +0.043 C 
ATOM     25  C   LIG A   1      -9.333  -2.821 123.303  0.00  0.00    +0.043 C 
BRANCH  23  26
ATOM     26  O   LIG A   1     -10.075  -2.566 125.553  0.00  0.00    -0.387 OA
ATOM     27  H   LIG A   1      -9.700  -2.751 126.436  0.00  0.00    +0.210 HD
ENDBRANCH  23  26
ENDBRANCH  20  23
ENDBRANCH   1  18
BRANCH  14  28
ATOM     28  C   LIG A   1      -9.518   5.963 131.240  0.00  0.00    -0.076 C 
ATOM     29  C   LIG A   1      -9.691   6.910 130.079  0.00  0.00    +0.038 C 
ATOM     30  C   LIG A   1     -10.335   6.105 132.302  0.00  0.00    +0.007 C 
ENDBRANCH  14  28
BRANCH  15  31
ATOM     31  C   LIG A   1      -9.059   2.856 132.629  0.00  0.00    +0.018 C 
BRANCH  31  32
ATOM     32  C   LIG A   1      -8.294   3.412 133.846  0.00  0.00    +0.121 C 
BRANCH  32  33
ATOM     33  C   LIG A   1      -6.976   2.698 133.975  0.00  0.00    +0.305 C 
ATOM     34  O   LIG A   1      -6.811   1.491 134.144  0.00  0.00    -0.251 OA
BRANCH  33  35
ATOM     35  O   LIG A   1      -5.946   3.538 133.747  0.00  0.00    -0.481 OA
ATOM     36  H   LIG A   1      -6.181   4.362 134.230  0.00  0.00    +0.295 HD
ENDBRANCH  33  35
ENDBRANCH  32  33
ENDBRANCH  31  32
ENDBRANCH  15  31
TORSDOF 8
ENDMDL
