MODEL 1
REMARK VINA RESULT:      -7.4      0.000      0.000
REMARK  Name = NuBBE_2309
REMARK  10 active torsions:
REMARK  status: ('A' for Active; 'I' for Inactive)
REMARK    1  A    between atoms: C_5  and  C_6
REMARK    2  A    between atoms: C_8  and  C_26
REMARK    3  A    between atoms: C_10  and  C_23
REMARK    4  A    between atoms: C_12  and  O_13
REMARK    5  A    between atoms: O_13  and  C_14
REMARK    6  A    between atoms: C_15  and  O_22
REMARK    7  A    between atoms: C_17  and  O_20
REMARK    8  A    between atoms: C_18  and  O_19
REMARK    9  A    between atoms: O_20  and  C_21
REMARK   10  A    between atoms: C_23  and  C_24
REMARK                            x       y       z     vdW  Elec       q    Type
REMARK                         _______ _______ _______ _____ _____    ______ ____
ROOT
ATOM      1  C   LIG A   1      -8.472   0.597 123.741  0.00  0.00    +0.060 C 
ATOM      2  C   LIG A   1      -8.067  -0.796 123.118  0.00  0.00    +0.009 C 
ATOM      3  C   LIG A   1      -6.948  -1.386 124.070  0.00  0.00    +0.028 C 
ATOM      4  C   LIG A   1      -7.562  -2.368 125.055  0.00  0.00    +0.027 C 
ATOM      5  C   LIG A   1      -8.383  -1.914 126.035  0.00  0.00    +0.125 C 
ATOM      6  C   LIG A   1      -8.679  -0.436 126.155  0.00  0.00    +0.214 C 
ATOM      7  C   LIG A   1      -7.871   0.525 125.206  0.00  0.00    +0.135 C 
ATOM      8  C   LIG A   1      -6.499  -0.107 124.876  0.00  0.00    +0.160 C 
ATOM      9  C   LIG A   1      -9.329  -1.659 122.905  0.00  0.00    +0.009 C 
ENDROOT
BRANCH   1  14
ATOM     10  C   LIG A   1      -8.652   3.514 121.188  0.00  0.00    +0.050 A 
ATOM     11  C   LIG A   1      -7.316   3.769 120.986  0.00  0.00    +0.166 A 
ATOM     12  C   LIG A   1      -6.353   3.072 121.668  0.00  0.00    +0.167 A 
ATOM     13  C   LIG A   1      -6.668   2.076 122.572  0.00  0.00    +0.053 A 
ATOM     14  C   LIG A   1      -8.015   1.738 122.793  0.00  0.00    -0.037 A 
ATOM     15  C   LIG A   1      -8.998   2.500 122.098  0.00  0.00    +0.008 A 
ATOM     16  O   LIG A   1      -5.091   3.456 121.329  0.00  0.00    -0.453 OA
ATOM     17  C   LIG A   1      -5.374   4.428 120.302  0.00  0.00    +0.466 C 
ATOM     18  O   LIG A   1      -6.785   4.679 120.126  0.00  0.00    -0.453 OA
ENDBRANCH   1  14
BRANCH   5  19
ATOM     19  O   LIG A   1      -8.936  -2.819 126.923  0.00  0.00    -0.497 OA
ATOM     20  C   LIG A   1      -8.182  -3.015 128.123  0.00  0.00    +0.276 C 
ENDBRANCH   5  19
BRANCH   8  21
ATOM     21  O   LIG A   1      -5.716  -0.395 126.034  0.00  0.00    -0.388 OA
ATOM     22  H   LIG A   1      -5.881  -1.321 126.281  0.00  0.00    +0.210 HD
ENDBRANCH   8  21
BRANCH   7  23
ATOM     23  O   LIG A   1      -7.880   1.825 125.825  0.00  0.00    -0.370 OA
ATOM     24  C   LIG A   1      -7.837   1.859 127.250  0.00  0.00    +0.195 C 
ENDBRANCH   7  23
BRANCH   6  25
ATOM     25  O   LIG A   1     -10.091  -0.219 126.029  0.00  0.00    -0.381 OA
ATOM     26  H   LIG A   1     -10.283  -0.261 125.075  0.00  0.00    +0.210 HD
ENDBRANCH   6  25
BRANCH   3  27
ATOM     27  C   LIG A   1      -5.727  -1.993 123.329  0.00  0.00    +0.040 C 
BRANCH  27  28
ATOM     28  C   LIG A   1      -4.918  -3.043 124.049  0.00  0.00    -0.034 C 
ATOM     29  C   LIG A   1      -4.504  -4.203 123.507  0.00  0.00    +0.004 C 
ENDBRANCH  27  28
ENDBRANCH   3  27
TORSDOF 7
ENDMDL
MODEL 2
REMARK VINA RESULT:      -7.3      8.276     10.163
REMARK  Name = NuBBE_2309
REMARK  10 active torsions:
REMARK  status: ('A' for Active; 'I' for Inactive)
REMARK    1  A    between atoms: C_5  and  C_6
REMARK    2  A    between atoms: C_8  and  C_26
REMARK    3  A    between atoms: C_10  and  C_23
REMARK    4  A    between atoms: C_12  and  O_13
REMARK    5  A    between atoms: O_13  and  C_14
REMARK    6  A    between atoms: C_15  and  O_22
REMARK    7  A    between atoms: C_17  and  O_20
REMARK    8  A    between atoms: C_18  and  O_19
REMARK    9  A    between atoms: O_20  and  C_21
REMARK   10  A    between atoms: C_23  and  C_24
REMARK                            x       y       z     vdW  Elec       q    Type
REMARK                         _______ _______ _______ _____ _____    ______ ____
ROOT
ATOM      1  C   LIG A   1      -7.393   6.054 132.292  0.00  0.00    +0.060 C 
ATOM      2  C   LIG A   1      -7.747   5.108 133.505  0.00  0.00    +0.009 C 
ATOM      3  C   LIG A   1      -7.179   3.681 133.119  0.00  0.00    +0.028 C 
ATOM      4  C   LIG A   1      -5.818   3.467 133.765  0.00  0.00    +0.027 C 
ATOM      5  C   LIG A   1      -4.750   4.185 133.338  0.00  0.00    +0.125 C 
ATOM      6  C   LIG A   1      -4.906   5.190 132.218  0.00  0.00    +0.214 C 
ATOM      7  C   LIG A   1      -6.304   5.226 131.494  0.00  0.00    +0.135 C 
ATOM      8  C   LIG A   1      -6.960   3.827 131.564  0.00  0.00    +0.160 C 
ATOM      9  C   LIG A   1      -7.234   5.731 134.820  0.00  0.00    +0.009 C 
ENDROOT
BRANCH   1  14
ATOM     10  C   LIG A   1     -11.175   6.382 131.483  0.00  0.00    +0.050 A 
ATOM     11  C   LIG A   1     -11.132   7.098 130.310  0.00  0.00    +0.166 A 
ATOM     12  C   LIG A   1      -9.939   7.521 129.784  0.00  0.00    +0.167 A 
ATOM     13  C   LIG A   1      -8.728   7.239 130.388  0.00  0.00    +0.053 A 
ATOM     14  C   LIG A   1      -8.701   6.475 131.569  0.00  0.00    -0.037 A 
ATOM     15  C   LIG A   1      -9.956   6.078 132.113  0.00  0.00    +0.008 A 
ATOM     16  O   LIG A   1     -10.095   8.204 128.617  0.00  0.00    -0.453 OA
ATOM     17  C   LIG A   1     -11.521   8.100 128.435  0.00  0.00    +0.466 C 
ATOM     18  O   LIG A   1     -12.193   7.457 129.539  0.00  0.00    -0.453 OA
ENDBRANCH   1  14
BRANCH   5  19
ATOM     19  O   LIG A   1      -3.519   3.982 133.935  0.00  0.00    -0.497 OA
ATOM     20  C   LIG A   1      -2.503   3.488 133.057  0.00  0.00    +0.276 C 
ENDBRANCH   5  19
BRANCH   8  21
ATOM     21  O   LIG A   1      -6.157   2.796 130.991  0.00  0.00    -0.388 OA
ATOM     22  H   LIG A   1      -6.014   3.018 130.055  0.00  0.00    +0.210 HD
ENDBRANCH   8  21
BRANCH   7  23
ATOM     23  O   LIG A   1      -6.082   5.798 130.191  0.00  0.00    -0.370 OA
ATOM     24  C   LIG A   1      -4.859   5.459 129.539  0.00  0.00    +0.195 C 
ENDBRANCH   7  23
BRANCH   6  25
ATOM     25  O   LIG A   1      -4.535   6.493 132.687  0.00  0.00    -0.381 OA
ATOM     26  H   LIG A   1      -5.277   6.799 133.238  0.00  0.00    +0.210 HD
ENDBRANCH   6  25
BRANCH   3  27
ATOM     27  C   LIG A   1      -8.148   2.504 133.403  0.00  0.00    +0.040 C 
BRANCH  27  28
ATOM     28  C   LIG A   1      -9.458   2.474 132.656  0.00  0.00    -0.034 C 
ATOM     29  C   LIG A   1      -9.884   1.458 131.886  0.00  0.00    +0.004 C 
ENDBRANCH  27  28
ENDBRANCH   3  27
TORSDOF 7
ENDMDL
MODEL 3
REMARK VINA RESULT:      -7.2      2.974      3.897
REMARK  Name = NuBBE_2309
REMARK  10 active torsions:
REMARK  status: ('A' for Active; 'I' for Inactive)
REMARK    1  A    between atoms: C_5  and  C_6
REMARK    2  A    between atoms: C_8  and  C_26
REMARK    3  A    between atoms: C_10  and  C_23
REMARK    4  A    between atoms: C_12  and  O_13
REMARK    5  A    between atoms: O_13  and  C_14
REMARK    6  A    between atoms: C_15  and  O_22
REMARK    7  A    between atoms: C_17  and  O_20
REMARK    8  A    between atoms: C_18  and  O_19
REMARK    9  A    between atoms: O_20  and  C_21
REMARK   10  A    between atoms: C_23  and  C_24
REMARK                            x       y       z     vdW  Elec       q    Type
REMARK                         _______ _______ _______ _____ _____    ______ ____
ROOT
ATOM      1  C   LIG A   1      -7.197   0.763 125.627  0.00  0.00    +0.060 C 
ATOM      2  C   LIG A   1      -6.543  -0.063 124.451  0.00  0.00    +0.009 C 
ATOM      3  C   LIG A   1      -6.341  -1.529 125.014  0.00  0.00    +0.028 C 
ATOM      4  C   LIG A   1      -7.490  -2.423 124.572  0.00  0.00    +0.027 C 
ATOM      5  C   LIG A   1      -8.731  -2.225 125.083  0.00  0.00    +0.125 C 
ATOM      6  C   LIG A   1      -8.972  -1.126 126.094  0.00  0.00    +0.214 C 
ATOM      7  C   LIG A   1      -7.700  -0.363 126.622  0.00  0.00    +0.135 C 
ATOM      8  C   LIG A   1      -6.473  -1.303 126.569  0.00  0.00    +0.160 C 
ATOM      9  C   LIG A   1      -7.396   0.084 123.173  0.00  0.00    +0.009 C 
ENDROOT
BRANCH   1  14
ATOM     10  C   LIG A   1      -5.804   4.102 127.031  0.00  0.00    +0.050 A 
ATOM     11  C   LIG A   1      -4.452   3.856 127.003  0.00  0.00    +0.166 A 
ATOM     12  C   LIG A   1      -3.964   2.643 126.591  0.00  0.00    +0.167 A 
ATOM     13  C   LIG A   1      -4.794   1.621 126.171  0.00  0.00    +0.053 A 
ATOM     14  C   LIG A   1      -6.185   1.824 126.137  0.00  0.00    -0.037 A 
ATOM     15  C   LIG A   1      -6.669   3.080 126.603  0.00  0.00    +0.008 A 
ATOM     16  O   LIG A   1      -2.604   2.590 126.622  0.00  0.00    -0.453 OA
ATOM     17  C   LIG A   1      -2.292   3.935 127.035  0.00  0.00    +0.466 C 
ATOM     18  O   LIG A   1      -3.462   4.724 127.342  0.00  0.00    -0.453 OA
ENDBRANCH   1  14
BRANCH   5  19
ATOM     19  O   LIG A   1      -9.767  -3.043 124.671  0.00  0.00    -0.497 OA
ATOM     20  C   LIG A   1      -9.728  -3.405 123.287  0.00  0.00    +0.276 C 
ENDBRANCH   5  19
BRANCH   8  21
ATOM     21  O   LIG A   1      -6.648  -2.504 127.319  0.00  0.00    -0.388 OA
ATOM     22  H   LIG A   1      -6.716  -3.240 126.688  0.00  0.00    +0.210 HD
ENDBRANCH   8  21
BRANCH   7  23
ATOM     23  O   LIG A   1      -8.056   0.205 127.897  0.00  0.00    -0.370 OA
ATOM     24  C   LIG A   1      -7.107   0.062 128.952  0.00  0.00    +0.195 C 
ENDBRANCH   7  23
BRANCH   6  25
ATOM     25  O   LIG A   1      -9.949  -0.209 125.583  0.00  0.00    -0.381 OA
ATOM     26  H   LIG A   1     -10.019   0.501 126.246  0.00  0.00    +0.210 HD
ENDBRANCH   6  25
BRANCH   3  27
ATOM     27  C   LIG A   1      -4.960  -2.158 124.692  0.00  0.00    +0.040 C 
BRANCH  27  28
ATOM     28  C   LIG A   1      -4.889  -3.163 123.569  0.00  0.00    -0.034 C 
ATOM     29  C   LIG A   1      -4.316  -4.377 123.656  0.00  0.00    +0.004 C 
ENDBRANCH  27  28
ENDBRANCH   3  27
TORSDOF 7
ENDMDL
MODEL 4
REMARK VINA RESULT:      -7.2      6.088      9.569
REMARK  Name = NuBBE_2309
REMARK  10 active torsions:
REMARK  status: ('A' for Active; 'I' for Inactive)
REMARK    1  A    between atoms: C_5  and  C_6
REMARK    2  A    between atoms: C_8  and  C_26
REMARK    3  A    between atoms: C_10  and  C_23
REMARK    4  A    between atoms: C_12  and  O_13
REMARK    5  A    between atoms: O_13  and  C_14
REMARK    6  A    between atoms: C_15  and  O_22
REMARK    7  A    between atoms: C_17  and  O_20
REMARK    8  A    between atoms: C_18  and  O_19
REMARK    9  A    between atoms: O_20  and  C_21
REMARK   10  A    between atoms: C_23  and  C_24
REMARK                            x       y       z     vdW  Elec       q    Type
REMARK                         _______ _______ _______ _____ _____    ______ ____
ROOT
ATOM      1  C   LIG A   1      -8.044   5.914 130.316  0.00  0.00    +0.060 C 
ATOM      2  C   LIG A   1      -7.702   5.423 131.777  0.00  0.00    +0.009 C 
ATOM      3  C   LIG A   1      -7.699   3.841 131.711  0.00  0.00    +0.028 C 
ATOM      4  C   LIG A   1      -6.277   3.325 131.550  0.00  0.00    +0.027 C 
ATOM      5  C   LIG A   1      -5.612   3.535 130.387  0.00  0.00    +0.125 C 
ATOM      6  C   LIG A   1      -6.284   4.270 129.248  0.00  0.00    +0.214 C 
ATOM      7  C   LIG A   1      -7.809   4.618 129.435  0.00  0.00    +0.135 C 
ATOM      8  C   LIG A   1      -8.469   3.570 130.362  0.00  0.00    +0.160 C 
ATOM      9  C   LIG A   1      -6.406   6.104 132.266  0.00  0.00    +0.009 C 
ENDROOT
BRANCH   1  14
ATOM     10  C   LIG A   1     -11.669   6.804 131.381  0.00  0.00    +0.050 A 
ATOM     11  C   LIG A   1     -12.036   7.663 130.372  0.00  0.00    +0.166 A 
ATOM     12  C   LIG A   1     -11.153   8.006 129.381  0.00  0.00    +0.167 A 
ATOM     13  C   LIG A   1      -9.868   7.500 129.334  0.00  0.00    +0.053 A 
ATOM     14  C   LIG A   1      -9.445   6.585 130.313  0.00  0.00    -0.037 A 
ATOM     15  C   LIG A   1     -10.368   6.271 131.351  0.00  0.00    +0.008 A 
ATOM     16  O   LIG A   1     -11.698   8.857 128.468  0.00  0.00    -0.453 OA
ATOM     17  C   LIG A   1     -13.048   8.952 128.963  0.00  0.00    +0.466 C 
ATOM     18  O   LIG A   1     -13.252   8.249 130.208  0.00  0.00    -0.453 OA
ENDBRANCH   1  14
BRANCH   5  19
ATOM     19  O   LIG A   1      -4.319   3.063 130.255  0.00  0.00    -0.497 OA
ATOM     20  C   LIG A   1      -4.118   2.172 129.153  0.00  0.00    +0.276 C 
ENDBRANCH   5  19
BRANCH   8  21
ATOM     21  O   LIG A   1      -8.344   2.232 129.880  0.00  0.00    -0.388 OA
ATOM     22  H   LIG A   1      -8.825   2.175 129.037  0.00  0.00    +0.210 HD
ENDBRANCH   8  21
BRANCH   7  23
ATOM     23  O   LIG A   1      -8.361   4.791 128.116  0.00  0.00    -0.370 OA
ATOM     24  C   LIG A   1      -7.762   4.035 127.065  0.00  0.00    +0.195 C 
ENDBRANCH   7  23
BRANCH   6  25
ATOM     25  O   LIG A   1      -5.525   5.442 128.920  0.00  0.00    -0.381 OA
ATOM     26  H   LIG A   1      -4.726   5.122 128.464  0.00  0.00    +0.210 HD
ENDBRANCH   6  25
BRANCH   3  27
ATOM     27  C   LIG A   1      -8.439   3.147 132.884  0.00  0.00    +0.040 C 
BRANCH  27  28
ATOM     28  C   LIG A   1      -8.933   4.012 134.016  0.00  0.00    -0.034 C 
ATOM     29  C   LIG A   1      -8.157   4.536 134.982  0.00  0.00    +0.004 C 
ENDBRANCH  27  28
ENDBRANCH   3  27
TORSDOF 7
ENDMDL
MODEL 5
REMARK VINA RESULT:      -7.1      2.885      6.332
REMARK  Name = NuBBE_2309
REMARK  10 active torsions:
REMARK  status: ('A' for Active; 'I' for Inactive)
REMARK    1  A    between atoms: C_5  and  C_6
REMARK    2  A    between atoms: C_8  and  C_26
REMARK    3  A    between atoms: C_10  and  C_23
REMARK    4  A    between atoms: C_12  and  O_13
REMARK    5  A    between atoms: O_13  and  C_14
REMARK    6  A    between atoms: C_15  and  O_22
REMARK    7  A    between atoms: C_17  and  O_20
REMARK    8  A    between atoms: C_18  and  O_19
REMARK    9  A    between atoms: O_20  and  C_21
REMARK   10  A    between atoms: C_23  and  C_24
REMARK                            x       y       z     vdW  Elec       q    Type
REMARK                         _______ _______ _______ _____ _____    ______ ____
ROOT
ATOM      1  C   LIG A   1      -7.355   0.168 127.103  0.00  0.00    +0.060 C 
ATOM      2  C   LIG A   1      -6.828  -1.262 127.516  0.00  0.00    +0.009 C 
ATOM      3  C   LIG A   1      -7.796  -2.298 126.811  0.00  0.00    +0.028 C 
ATOM      4  C   LIG A   1      -7.174  -2.797 125.515  0.00  0.00    +0.027 C 
ATOM      5  C   LIG A   1      -7.047  -1.954 124.461  0.00  0.00    +0.125 C 
ATOM      6  C   LIG A   1      -7.530  -0.524 124.567  0.00  0.00    +0.214 C 
ATOM      7  C   LIG A   1      -8.313  -0.140 125.878  0.00  0.00    +0.135 C 
ATOM      8  C   LIG A   1      -9.030  -1.391 126.438  0.00  0.00    +0.160 C 
ATOM      9  C   LIG A   1      -5.324  -1.377 127.192  0.00  0.00    +0.009 C 
ENDROOT
BRANCH   1  14
ATOM     10  C   LIG A   1      -8.449   0.794 130.774  0.00  0.00    +0.050 A 
ATOM     11  C   LIG A   1      -9.026   2.038 130.668  0.00  0.00    +0.166 A 
ATOM     12  C   LIG A   1      -9.044   2.708 129.473  0.00  0.00    +0.167 A 
ATOM     13  C   LIG A   1      -8.503   2.170 128.320  0.00  0.00    +0.053 A 
ATOM     14  C   LIG A   1      -7.934   0.885 128.352  0.00  0.00    -0.037 A 
ATOM     15  C   LIG A   1      -7.898   0.223 129.613  0.00  0.00    +0.008 A 
ATOM     16  O   LIG A   1      -9.665   3.916 129.561  0.00  0.00    -0.453 OA
ATOM     17  C   LIG A   1     -10.098   3.895 130.935  0.00  0.00    +0.466 C 
ATOM     18  O   LIG A   1      -9.640   2.734 131.661  0.00  0.00    -0.453 OA
ENDBRANCH   1  14
BRANCH   5  19
ATOM     19  O   LIG A   1      -6.477  -2.420 123.290  0.00  0.00    -0.497 OA
ATOM     20  C   LIG A   1      -5.163  -2.965 123.440  0.00  0.00    +0.276 C 
ENDBRANCH   5  19
BRANCH   8  21
ATOM     21  O   LIG A   1      -9.931  -1.989 125.507  0.00  0.00    -0.388 OA
ATOM     22  H   LIG A   1      -9.603  -1.798 124.612  0.00  0.00    +0.210 HD
ENDBRANCH   8  21
BRANCH   7  23
ATOM     23  O   LIG A   1      -9.119   1.010 125.560  0.00  0.00    -0.370 OA
ATOM     24  C   LIG A   1      -9.713   1.039 124.263  0.00  0.00    +0.195 C 
ENDBRANCH   7  23
BRANCH   6  25
ATOM     25  O   LIG A   1      -6.432   0.371 124.341  0.00  0.00    -0.381 OA
ATOM     26  H   LIG A   1      -6.756   1.034 123.706  0.00  0.00    +0.210 HD
ENDBRANCH   6  25
BRANCH   3  27
ATOM     27  C   LIG A   1      -8.260  -3.467 127.719  0.00  0.00    +0.040 C 
BRANCH  27  28
ATOM     28  C   LIG A   1      -8.169  -3.276 129.213  0.00  0.00    -0.034 C 
ATOM     29  C   LIG A   1      -7.115  -3.625 129.972  0.00  0.00    +0.004 C 
ENDBRANCH  27  28
ENDBRANCH   3  27
TORSDOF 7
ENDMDL
MODEL 6
REMARK VINA RESULT:      -7.1      3.414      5.859
REMARK  Name = NuBBE_2309
REMARK  10 active torsions:
REMARK  status: ('A' for Active; 'I' for Inactive)
REMARK    1  A    between atoms: C_5  and  C_6
REMARK    2  A    between atoms: C_8  and  C_26
REMARK    3  A    between atoms: C_10  and  C_23
REMARK    4  A    between atoms: C_12  and  O_13
REMARK    5  A    between atoms: O_13  and  C_14
REMARK    6  A    between atoms: C_15  and  O_22
REMARK    7  A    between atoms: C_17  and  O_20
REMARK    8  A    between atoms: C_18  and  O_19
REMARK    9  A    between atoms: O_20  and  C_21
REMARK   10  A    between atoms: C_23  and  C_24
REMARK                            x       y       z     vdW  Elec       q    Type
REMARK                         _______ _______ _______ _____ _____    ______ ____
ROOT
ATOM      1  C   LIG A   1      -5.872   1.795 125.501  0.00  0.00    +0.060 C 
ATOM      2  C   LIG A   1      -6.680   1.061 126.642  0.00  0.00    +0.009 C 
ATOM      3  C   LIG A   1      -8.175   1.565 126.505  0.00  0.00    +0.028 C 
ATOM      4  C   LIG A   1      -8.998   0.557 125.717  0.00  0.00    +0.027 C 
ATOM      5  C   LIG A   1      -8.764   0.387 124.391  0.00  0.00    +0.125 C 
ATOM      6  C   LIG A   1      -7.697   1.202 123.696  0.00  0.00    +0.214 C 
ATOM      7  C   LIG A   1      -7.012   2.339 124.544  0.00  0.00    +0.135 C 
ATOM      8  C   LIG A   1      -8.003   2.855 125.613  0.00  0.00    +0.160 C 
ATOM      9  C   LIG A   1      -6.445  -0.462 126.550  0.00  0.00    +0.009 C 
ENDROOT
BRANCH   1  14
ATOM     10  C   LIG A   1      -2.632   3.213 127.099  0.00  0.00    +0.050 A 
ATOM     11  C   LIG A   1      -3.019   4.503 127.377  0.00  0.00    +0.166 A 
ATOM     12  C   LIG A   1      -4.267   4.955 127.035  0.00  0.00    +0.167 A 
ATOM     13  C   LIG A   1      -5.198   4.144 126.414  0.00  0.00    +0.053 A 
ATOM     14  C   LIG A   1      -4.879   2.803 126.140  0.00  0.00    -0.037 A 
ATOM     15  C   LIG A   1      -3.565   2.367 126.474  0.00  0.00    +0.008 A 
ATOM     16  O   LIG A   1      -4.470   6.251 127.398  0.00  0.00    -0.453 OA
ATOM     17  C   LIG A   1      -3.229   6.539 128.073  0.00  0.00    +0.466 C 
ATOM     18  O   LIG A   1      -2.278   5.455 128.006  0.00  0.00    -0.453 OA
ENDBRANCH   1  14
BRANCH   5  19
ATOM     19  O   LIG A   1      -9.518  -0.534 123.687  0.00  0.00    -0.497 OA
ATOM     20  C   LIG A   1     -10.142  -0.018 122.508  0.00  0.00    +0.276 C 
ENDBRANCH   5  19
BRANCH   8  21
ATOM     21  O   LIG A   1      -9.224   3.347 125.062  0.00  0.00    -0.388 OA
ATOM     22  H   LIG A   1      -9.350   4.255 125.384  0.00  0.00    +0.210 HD
ENDBRANCH   8  21
BRANCH   7  23
ATOM     23  O   LIG A   1      -6.479   3.293 123.607  0.00  0.00    -0.370 OA
ATOM     24  C   LIG A   1      -7.129   3.383 122.340  0.00  0.00    +0.195 C 
ENDBRANCH   7  23
BRANCH   6  25
ATOM     25  O   LIG A   1      -6.717   0.323 123.126  0.00  0.00    -0.381 OA
ATOM     26  H   LIG A   1      -6.017   0.900 122.771  0.00  0.00    +0.210 HD
ENDBRANCH   6  25
BRANCH   3  27
ATOM     27  C   LIG A   1      -8.852   1.944 127.848  0.00  0.00    +0.040 C 
BRANCH  27  28
ATOM     28  C   LIG A   1      -7.963   2.380 128.987  0.00  0.00    -0.034 C 
ATOM     29  C   LIG A   1      -7.587   3.648 129.229  0.00  0.00    +0.004 C 
ENDBRANCH  27  28
ENDBRANCH   3  27
TORSDOF 7
ENDMDL
MODEL 7
REMARK VINA RESULT:      -6.9      2.951      5.202
REMARK  Name = NuBBE_2309
REMARK  10 active torsions:
REMARK  status: ('A' for Active; 'I' for Inactive)
REMARK    1  A    between atoms: C_5  and  C_6
REMARK    2  A    between atoms: C_8  and  C_26
REMARK    3  A    between atoms: C_10  and  C_23
REMARK    4  A    between atoms: C_12  and  O_13
REMARK    5  A    between atoms: O_13  and  C_14
REMARK    6  A    between atoms: C_15  and  O_22
REMARK    7  A    between atoms: C_17  and  O_20
REMARK    8  A    between atoms: C_18  and  O_19
REMARK    9  A    between atoms: O_20  and  C_21
REMARK   10  A    between atoms: C_23  and  C_24
REMARK                            x       y       z     vdW  Elec       q    Type
REMARK                         _______ _______ _______ _____ _____    ______ ____
ROOT
ATOM      1  C   LIG A   1      -5.998   0.601 125.631  0.00  0.00    +0.060 C 
ATOM      2  C   LIG A   1      -6.216  -0.822 126.278  0.00  0.00    +0.009 C 
ATOM      3  C   LIG A   1      -7.759  -0.909 126.620  0.00  0.00    +0.028 C 
ATOM      4  C   LIG A   1      -8.499  -1.652 125.517  0.00  0.00    +0.027 C 
ATOM      5  C   LIG A   1      -8.638  -1.080 124.296  0.00  0.00    +0.125 C 
ATOM      6  C   LIG A   1      -8.068   0.297 124.031  0.00  0.00    +0.214 C 
ATOM      7  C   LIG A   1      -7.470   1.063 125.270  0.00  0.00    +0.135 C 
ATOM      8  C   LIG A   1      -8.193   0.606 126.559  0.00  0.00    +0.160 C 
ATOM      9  C   LIG A   1      -5.644  -1.912 125.346  0.00  0.00    +0.009 C 
ENDROOT
BRANCH   1  14
ATOM     10  C   LIG A   1      -4.343   1.896 128.894  0.00  0.00    +0.050 A 
ATOM     11  C   LIG A   1      -3.709   3.027 128.437  0.00  0.00    +0.166 A 
ATOM     12  C   LIG A   1      -3.753   3.374 127.111  0.00  0.00    +0.167 A 
ATOM     13  C   LIG A   1      -4.442   2.623 126.178  0.00  0.00    +0.053 A 
ATOM     14  C   LIG A   1      -5.146   1.477 126.588  0.00  0.00    -0.037 A 
ATOM     15  C   LIG A   1      -5.056   1.119 127.964  0.00  0.00    +0.008 A 
ATOM     16  O   LIG A   1      -3.077   4.526 126.851  0.00  0.00    -0.453 OA
ATOM     17  C   LIG A   1      -2.663   4.901 128.180  0.00  0.00    +0.466 C 
ATOM     18  O   LIG A   1      -3.005   3.920 129.182  0.00  0.00    -0.453 OA
ENDBRANCH   1  14
BRANCH   5  19
ATOM     19  O   LIG A   1      -9.311  -1.767 123.302  0.00  0.00    -0.497 OA
ATOM     20  C   LIG A   1      -9.454  -3.171 123.539  0.00  0.00    +0.276 C 
ENDBRANCH   5  19
BRANCH   8  21
ATOM     21  O   LIG A   1      -9.605   0.805 126.516  0.00  0.00    -0.388 OA
ATOM     22  H   LIG A   1      -9.931   0.439 125.677  0.00  0.00    +0.210 HD
ENDBRANCH   8  21
BRANCH   7  23
ATOM     23  O   LIG A   1      -7.500   2.465 124.945  0.00  0.00    -0.370 OA
ATOM     24  C   LIG A   1      -8.626   2.930 124.203  0.00  0.00    +0.195 C 
ENDBRANCH   7  23
BRANCH   6  25
ATOM     25  O   LIG A   1      -7.116   0.224 122.961  0.00  0.00    -0.381 OA
ATOM     26  H   LIG A   1      -7.503   0.730 122.225  0.00  0.00    +0.210 HD
ENDBRANCH   6  25
BRANCH   3  27
ATOM     27  C   LIG A   1      -8.076  -1.489 128.023  0.00  0.00    +0.040 C 
BRANCH  27  28
ATOM     28  C   LIG A   1      -7.921  -2.976 128.223  0.00  0.00    -0.034 C 
ATOM     29  C   LIG A   1      -8.937  -3.848 128.341  0.00  0.00    +0.004 C 
ENDBRANCH  27  28
ENDBRANCH   3  27
TORSDOF 7
ENDMDL
MODEL 8
REMARK VINA RESULT:      -6.9      3.145      7.627
REMARK  Name = NuBBE_2309
REMARK  10 active torsions:
REMARK  status: ('A' for Active; 'I' for Inactive)
REMARK    1  A    between atoms: C_5  and  C_6
REMARK    2  A    between atoms: C_8  and  C_26
REMARK    3  A    between atoms: C_10  and  C_23
REMARK    4  A    between atoms: C_12  and  O_13
REMARK    5  A    between atoms: O_13  and  C_14
REMARK    6  A    between atoms: C_15  and  O_22
REMARK    7  A    between atoms: C_17  and  O_20
REMARK    8  A    between atoms: C_18  and  O_19
REMARK    9  A    between atoms: O_20  and  C_21
REMARK   10  A    between atoms: C_23  and  C_24
REMARK                            x       y       z     vdW  Elec       q    Type
REMARK                         _______ _______ _______ _____ _____    ______ ____
ROOT
ATOM      1  C   LIG A   1      -5.475  -1.312 127.418  0.00  0.00    +0.060 C 
ATOM      2  C   LIG A   1      -6.350  -1.956 126.273  0.00  0.00    +0.009 C 
ATOM      3  C   LIG A   1      -7.660  -1.071 126.182  0.00  0.00    +0.028 C 
ATOM      4  C   LIG A   1      -7.524  -0.050 125.062  0.00  0.00    +0.027 C 
ATOM      5  C   LIG A   1      -6.646   0.976 125.188  0.00  0.00    +0.125 C 
ATOM      6  C   LIG A   1      -5.810   1.112 126.442  0.00  0.00    +0.214 C 
ATOM      7  C   LIG A   1      -6.135   0.115 127.617  0.00  0.00    +0.135 C 
ATOM      8  C   LIG A   1      -7.625  -0.293 127.553  0.00  0.00    +0.160 C 
ATOM      9  C   LIG A   1      -5.508  -2.094 124.988  0.00  0.00    +0.009 C 
ENDROOT
BRANCH   1  14
ATOM     10  C   LIG A   1      -6.568  -3.944 130.052  0.00  0.00    +0.050 A 
ATOM     11  C   LIG A   1      -5.438  -4.021 130.832  0.00  0.00    +0.166 A 
ATOM     12  C   LIG A   1      -4.317  -3.294 130.525  0.00  0.00    +0.167 A 
ATOM     13  C   LIG A   1      -4.269  -2.441 129.438  0.00  0.00    +0.053 A 
ATOM     14  C   LIG A   1      -5.406  -2.286 128.625  0.00  0.00    -0.037 A 
ATOM     15  C   LIG A   1      -6.545  -3.079 128.944  0.00  0.00    +0.008 A 
ATOM     16  O   LIG A   1      -3.306  -3.492 131.414  0.00  0.00    -0.453 OA
ATOM     17  C   LIG A   1      -3.946  -4.376 132.356  0.00  0.00    +0.466 C 
ATOM     18  O   LIG A   1      -5.278  -4.767 131.957  0.00  0.00    -0.453 OA
ENDBRANCH   1  14
BRANCH   5  19
ATOM     19  O   LIG A   1      -6.531   1.895 124.162  0.00  0.00    -0.497 OA
ATOM     20  C   LIG A   1      -7.637   2.796 124.040  0.00  0.00    +0.276 C 
ENDBRANCH   5  19
BRANCH   8  21
ATOM     21  O   LIG A   1      -8.519   0.817 127.615  0.00  0.00    -0.388 OA
ATOM     22  H   LIG A   1      -8.513   1.152 128.527  0.00  0.00    +0.210 HD
ENDBRANCH   8  21
BRANCH   7  23
ATOM     23  O   LIG A   1      -5.659   0.732 128.828  0.00  0.00    -0.370 OA
ATOM     24  C   LIG A   1      -5.795   2.149 128.925  0.00  0.00    +0.195 C 
ENDBRANCH   7  23
BRANCH   6  25
ATOM     25  O   LIG A   1      -4.419   1.067 126.097  0.00  0.00    -0.381 OA
ATOM     26  H   LIG A   1      -3.956   1.562 126.797  0.00  0.00    +0.210 HD
ENDBRANCH   6  25
BRANCH   3  27
ATOM     27  C   LIG A   1      -8.978  -1.881 126.072  0.00  0.00    +0.040 C 
BRANCH  27  28
ATOM     28  C   LIG A   1      -8.953  -3.163 125.279  0.00  0.00    -0.034 C 
ATOM     29  C   LIG A   1      -9.264  -3.270 123.974  0.00  0.00    +0.004 C 
ENDBRANCH  27  28
ENDBRANCH   3  27
TORSDOF 7
ENDMDL
MODEL 9
REMARK VINA RESULT:      -6.8      2.456      7.093
REMARK  Name = NuBBE_2309
REMARK  10 active torsions:
REMARK  status: ('A' for Active; 'I' for Inactive)
REMARK    1  A    between atoms: C_5  and  C_6
REMARK    2  A    between atoms: C_8  and  C_26
REMARK    3  A    between atoms: C_10  and  C_23
REMARK    4  A    between atoms: C_12  and  O_13
REMARK    5  A    between atoms: O_13  and  C_14
REMARK    6  A    between atoms: C_15  and  O_22
REMARK    7  A    between atoms: C_17  and  O_20
REMARK    8  A    between atoms: C_18  and  O_19
REMARK    9  A    between atoms: O_20  and  C_21
REMARK   10  A    between atoms: C_23  and  C_24
REMARK                            x       y       z     vdW  Elec       q    Type
REMARK                         _______ _______ _______ _____ _____    ______ ____
ROOT
ATOM      1  C   LIG A   1      -8.039  -0.638 127.077  0.00  0.00    +0.060 C 
ATOM      2  C   LIG A   1      -7.254   0.728 127.186  0.00  0.00    +0.009 C 
ATOM      3  C   LIG A   1      -6.583   0.955 125.770  0.00  0.00    +0.028 C 
ATOM      4  C   LIG A   1      -7.442   1.885 124.926  0.00  0.00    +0.027 C 
ATOM      5  C   LIG A   1      -8.645   1.459 124.467  0.00  0.00    +0.125 C 
ATOM      6  C   LIG A   1      -9.128   0.062 124.783  0.00  0.00    +0.214 C 
ATOM      7  C   LIG A   1      -8.108  -0.889 125.514  0.00  0.00    +0.135 C 
ATOM      8  C   LIG A   1      -6.664  -0.487 125.137  0.00  0.00    +0.160 C 
ATOM      9  C   LIG A   1      -8.202   1.835 127.695  0.00  0.00    +0.009 C 
ENDROOT
BRANCH   1  14
ATOM     10  C   LIG A   1      -7.613  -3.603 129.544  0.00  0.00    +0.050 A 
ATOM     11  C   LIG A   1      -6.248  -3.609 129.716  0.00  0.00    +0.166 A 
ATOM     12  C   LIG A   1      -5.448  -2.726 129.039  0.00  0.00    +0.167 A 
ATOM     13  C   LIG A   1      -5.965  -1.783 128.171  0.00  0.00    +0.053 A 
ATOM     14  C   LIG A   1      -7.355  -1.698 127.983  0.00  0.00    -0.037 A 
ATOM     15  C   LIG A   1      -8.162  -2.649 128.670  0.00  0.00    +0.008 A 
ATOM     16  O   LIG A   1      -4.130  -2.875 129.345  0.00  0.00    -0.453 OA
ATOM     17  C   LIG A   1      -4.203  -3.910 130.346  0.00  0.00    +0.466 C 
ATOM     18  O   LIG A   1      -5.538  -4.425 130.539  0.00  0.00    -0.453 OA
ENDBRANCH   1  14
BRANCH   5  19
ATOM     19  O   LIG A   1      -9.416   2.316 123.703  0.00  0.00    -0.497 OA
ATOM     20  C   LIG A   1      -8.841   2.674 122.442  0.00  0.00    +0.276 C 
ENDBRANCH   5  19
BRANCH   8  21
ATOM     21  O   LIG A   1      -6.417  -0.519 123.732  0.00  0.00    -0.388 OA
ATOM     22  H   LIG A   1      -5.465  -0.666 123.601  0.00  0.00    +0.210 HD
ENDBRANCH   8  21
BRANCH   7  23
ATOM     23  O   LIG A   1      -8.524  -2.239 125.234  0.00  0.00    -0.370 OA
ATOM     24  C   LIG A   1      -9.021  -2.500 123.922  0.00  0.00    +0.195 C 
ENDBRANCH   7  23
BRANCH   6  25
ATOM     25  O   LIG A   1     -10.369   0.134 125.499  0.00  0.00    -0.381 OA
ATOM     26  H   LIG A   1     -10.605  -0.785 125.717  0.00  0.00    +0.210 HD
ENDBRANCH   6  25
BRANCH   3  27
ATOM     27  C   LIG A   1      -5.105   1.421 125.826  0.00  0.00    +0.040 C 
BRANCH  27  28
ATOM     28  C   LIG A   1      -4.629   2.108 127.082  0.00  0.00    -0.034 C 
ATOM     29  C   LIG A   1      -3.550   2.906 127.163  0.00  0.00    +0.004 C 
ENDBRANCH  27  28
ENDBRANCH   3  27
TORSDOF 7
ENDMDL
