MODEL 1
REMARK VINA RESULT:      -6.7      0.000      0.000
REMARK  Name = NuBBE_1077
REMARK  9 active torsions:
REMARK  status: ('A' for Active; 'I' for Inactive)
REMARK    1  A    between atoms: C_1  and  N_2
REMARK    2  A    between atoms: C_7  and  O_8
REMARK    3  A    between atoms: C_9  and  O_10
REMARK    4  A    between atoms: O_10  and  C_11
REMARK    5  A    between atoms: C_12  and  O_13
REMARK    6  A    between atoms: O_13  and  C_14
REMARK    7  A    between atoms: C_15  and  O_16
REMARK    8  A    between atoms: O_16  and  C_17
REMARK    9  A    between atoms: C_23  and  O_24
REMARK                            x       y       z     vdW  Elec       q    Type
REMARK                         _______ _______ _______ _____ _____    ______ ____
ROOT
ATOM      1  C   LIG A   1      -7.823  -1.453 124.017  0.00  0.00    +0.149 C 
ATOM      2  N   LIG A   1      -7.979  -0.802 125.343  0.00  0.00    -0.337 N 
ATOM      3  C   LIG A   1      -7.155   0.371 125.484  0.00  0.00    +0.103 A 
ATOM      4  C   LIG A   1      -6.278   0.458 126.580  0.00  0.00    +0.095 A 
ATOM      5  C   LIG A   1      -6.302  -0.599 127.618  0.00  0.00    +0.201 A 
ATOM      6  O   LIG A   1      -5.538  -0.540 128.569  0.00  0.00    -0.286 OA
ATOM      7  C   LIG A   1      -5.355   1.512 126.700  0.00  0.00    +0.175 A 
ATOM      8  C   LIG A   1      -5.362   2.565 125.778  0.00  0.00    +0.208 A 
ATOM      9  C   LIG A   1      -6.348   2.597 124.774  0.00  0.00    +0.209 A 
ATOM     10  C   LIG A   1      -7.199   1.473 124.577  0.00  0.00    +0.190 A 
ATOM     11  C   LIG A   1      -8.103  -1.764 126.393  0.00  0.00    +0.095 A 
ATOM     12  C   LIG A   1      -7.274  -1.697 127.517  0.00  0.00    +0.050 A 
ATOM     13  C   LIG A   1      -7.336  -2.647 128.550  0.00  0.00    +0.014 A 
ATOM     14  C   LIG A   1      -8.248  -3.696 128.473  0.00  0.00    +0.004 A 
ATOM     15  C   LIG A   1      -9.114  -3.769 127.386  0.00  0.00    +0.047 A 
ATOM     16  C   LIG A   1      -9.055  -2.799 126.381  0.00  0.00    +0.141 A 
ENDROOT
BRANCH   7  17
ATOM     17  O   LIG A   1      -4.418   1.519 127.705  0.00  0.00    -0.503 OA
ATOM     18  H   LIG A   1      -3.846   2.314 127.596  0.00  0.00    +0.292 HD
ENDBRANCH   7  17
BRANCH   8  19
ATOM     19  O   LIG A   1      -4.379   3.521 125.720  0.00  0.00    -0.488 OA
ATOM     20  C   LIG A   1      -4.541   4.663 126.552  0.00  0.00    +0.277 C 
ENDBRANCH   8  19
BRANCH   9  21
ATOM     21  O   LIG A   1      -6.572   3.676 123.954  0.00  0.00    -0.488 OA
ATOM     22  C   LIG A   1      -5.916   3.780 122.700  0.00  0.00    +0.277 C 
ENDBRANCH   9  21
BRANCH  10  23
ATOM     23  O   LIG A   1      -8.146   1.390 123.573  0.00  0.00    -0.489 OA
ATOM     24  C   LIG A   1      -9.436   1.966 123.796  0.00  0.00    +0.277 C 
ENDBRANCH  10  23
BRANCH  16  25
ATOM     25  O   LIG A   1     -10.023  -2.861 125.416  0.00  0.00    -0.505 OA
ATOM     26  H   LIG A   1     -10.529  -3.672 125.612  0.00  0.00    +0.292 HD
ENDBRANCH  16  25
TORSDOF 5
ENDMDL
MODEL 2
REMARK VINA RESULT:      -6.4      1.590      3.833
REMARK  Name = NuBBE_1077
REMARK  9 active torsions:
REMARK  status: ('A' for Active; 'I' for Inactive)
REMARK    1  A    between atoms: C_1  and  N_2
REMARK    2  A    between atoms: C_7  and  O_8
REMARK    3  A    between atoms: C_9  and  O_10
REMARK    4  A    between atoms: O_10  and  C_11
REMARK    5  A    between atoms: C_12  and  O_13
REMARK    6  A    between atoms: O_13  and  C_14
REMARK    7  A    between atoms: C_15  and  O_16
REMARK    8  A    between atoms: O_16  and  C_17
REMARK    9  A    between atoms: C_23  and  O_24
REMARK                            x       y       z     vdW  Elec       q    Type
REMARK                         _______ _______ _______ _____ _____    ______ ____
ROOT
ATOM      1  C   LIG A   1      -7.910   0.850 128.972  0.00  0.00    +0.149 C 
ATOM      2  N   LIG A   1      -7.520   0.109 127.746  0.00  0.00    -0.337 N 
ATOM      3  C   LIG A   1      -7.799   0.846 126.541  0.00  0.00    +0.103 A 
ATOM      4  C   LIG A   1      -8.579   0.241 125.538  0.00  0.00    +0.095 A 
ATOM      5  C   LIG A   1      -9.000  -1.171 125.695  0.00  0.00    +0.201 A 
ATOM      6  O   LIG A   1      -9.686  -1.703 124.837  0.00  0.00    -0.286 OA
ATOM      7  C   LIG A   1      -8.995   0.956 124.401  0.00  0.00    +0.175 A 
ATOM      8  C   LIG A   1      -8.549   2.265 124.188  0.00  0.00    +0.208 A 
ATOM      9  C   LIG A   1      -7.623   2.833 125.082  0.00  0.00    +0.209 A 
ATOM     10  C   LIG A   1      -7.299   2.161 126.293  0.00  0.00    +0.190 A 
ATOM     11  C   LIG A   1      -7.812  -1.287 127.857  0.00  0.00    +0.095 A 
ATOM     12  C   LIG A   1      -8.556  -1.937 126.868  0.00  0.00    +0.050 A 
ATOM     13  C   LIG A   1      -8.898  -3.296 126.962  0.00  0.00    +0.014 A 
ATOM     14  C   LIG A   1      -8.490  -4.039 128.066  0.00  0.00    +0.004 A 
ATOM     15  C   LIG A   1      -7.715  -3.432 129.049  0.00  0.00    +0.047 A 
ATOM     16  C   LIG A   1      -7.362  -2.085 128.925  0.00  0.00    +0.141 A 
ENDROOT
BRANCH   7  17
ATOM     17  O   LIG A   1      -9.862   0.396 123.493  0.00  0.00    -0.503 OA
ATOM     18  H   LIG A   1     -10.689   0.930 123.478  0.00  0.00    +0.292 HD
ENDBRANCH   7  17
BRANCH   8  19
ATOM     19  O   LIG A   1      -9.059   3.084 123.211  0.00  0.00    -0.488 OA
ATOM     20  C   LIG A   1      -8.438   3.023 121.932  0.00  0.00    +0.277 C 
ENDBRANCH   8  19
BRANCH   9  21
ATOM     21  O   LIG A   1      -6.969   4.021 124.857  0.00  0.00    -0.488 OA
ATOM     22  C   LIG A   1      -5.778   4.056 124.086  0.00  0.00    +0.277 C 
ENDBRANCH   9  21
BRANCH  10  23
ATOM     23  O   LIG A   1      -6.455   2.676 127.260  0.00  0.00    -0.489 OA
ATOM     24  C   LIG A   1      -5.060   2.370 127.186  0.00  0.00    +0.277 C 
ENDBRANCH  10  23
BRANCH  16  25
ATOM     25  O   LIG A   1      -6.491  -1.594 129.859  0.00  0.00    -0.505 OA
ATOM     26  H   LIG A   1      -5.763  -2.243 129.896  0.00  0.00    +0.292 HD
ENDBRANCH  16  25
TORSDOF 5
ENDMDL
MODEL 3
REMARK VINA RESULT:      -6.1      2.334      5.120
REMARK  Name = NuBBE_1077
REMARK  9 active torsions:
REMARK  status: ('A' for Active; 'I' for Inactive)
REMARK    1  A    between atoms: C_1  and  N_2
REMARK    2  A    between atoms: C_7  and  O_8
REMARK    3  A    between atoms: C_9  and  O_10
REMARK    4  A    between atoms: O_10  and  C_11
REMARK    5  A    between atoms: C_12  and  O_13
REMARK    6  A    between atoms: O_13  and  C_14
REMARK    7  A    between atoms: C_15  and  O_16
REMARK    8  A    between atoms: O_16  and  C_17
REMARK    9  A    between atoms: C_23  and  O_24
REMARK                            x       y       z     vdW  Elec       q    Type
REMARK                         _______ _______ _______ _____ _____    ______ ____
ROOT
ATOM      1  C   LIG A   1      -6.234   0.165 125.535  0.00  0.00    +0.149 C 
ATOM      2  N   LIG A   1      -7.542  -0.308 126.055  0.00  0.00    -0.337 N 
ATOM      3  C   LIG A   1      -7.520  -0.547 127.475  0.00  0.00    +0.103 A 
ATOM      4  C   LIG A   1      -7.923  -1.805 127.958  0.00  0.00    +0.095 A 
ATOM      5  C   LIG A   1      -8.463  -2.810 127.013  0.00  0.00    +0.201 A 
ATOM      6  O   LIG A   1      -8.806  -3.909 127.419  0.00  0.00    -0.286 OA
ATOM      7  C   LIG A   1      -7.798  -2.144 129.317  0.00  0.00    +0.175 A 
ATOM      8  C   LIG A   1      -7.365  -1.190 130.245  0.00  0.00    +0.208 A 
ATOM      9  C   LIG A   1      -7.127   0.130 129.819  0.00  0.00    +0.209 A 
ATOM     10  C   LIG A   1      -7.134   0.441 128.430  0.00  0.00    +0.190 A 
ATOM     11  C   LIG A   1      -8.173  -1.216 125.149  0.00  0.00    +0.095 A 
ATOM     12  C   LIG A   1      -8.619  -2.465 125.593  0.00  0.00    +0.050 A 
ATOM     13  C   LIG A   1      -9.206  -3.401 124.726  0.00  0.00    +0.014 A 
ATOM     14  C   LIG A   1      -9.361  -3.095 123.377  0.00  0.00    +0.004 A 
ATOM     15  C   LIG A   1      -8.963  -1.846 122.911  0.00  0.00    +0.047 A 
ATOM     16  C   LIG A   1      -8.406  -0.917 123.795  0.00  0.00    +0.141 A 
ENDROOT
BRANCH   7  17
ATOM     17  O   LIG A   1      -8.074  -3.417 129.757  0.00  0.00    -0.503 OA
ATOM     18  H   LIG A   1      -8.565  -3.894 129.049  0.00  0.00    +0.292 HD
ENDBRANCH   7  17
BRANCH   8  19
ATOM     19  O   LIG A   1      -7.038  -1.497 131.543  0.00  0.00    -0.488 OA
ATOM     20  C   LIG A   1      -5.690  -1.873 131.796  0.00  0.00    +0.277 C 
ENDBRANCH   8  19
BRANCH   9  21
ATOM     21  O   LIG A   1      -6.902   1.183 130.673  0.00  0.00    -0.488 OA
ATOM     22  C   LIG A   1      -7.978   1.799 131.361  0.00  0.00    +0.277 C 
ENDBRANCH   9  21
BRANCH  10  23
ATOM     23  O   LIG A   1      -6.843   1.692 127.918  0.00  0.00    -0.489 OA
ATOM     24  C   LIG A   1      -7.905   2.640 127.777  0.00  0.00    +0.277 C 
ENDBRANCH  10  23
BRANCH  16  25
ATOM     25  O   LIG A   1      -8.163   0.333 123.293  0.00  0.00    -0.505 OA
ATOM     26  H   LIG A   1      -7.645   0.186 122.479  0.00  0.00    +0.292 HD
ENDBRANCH  16  25
TORSDOF 5
ENDMDL
MODEL 4
REMARK VINA RESULT:      -5.9      2.363      5.973
REMARK  Name = NuBBE_1077
REMARK  9 active torsions:
REMARK  status: ('A' for Active; 'I' for Inactive)
REMARK    1  A    between atoms: C_1  and  N_2
REMARK    2  A    between atoms: C_7  and  O_8
REMARK    3  A    between atoms: C_9  and  O_10
REMARK    4  A    between atoms: O_10  and  C_11
REMARK    5  A    between atoms: C_12  and  O_13
REMARK    6  A    between atoms: O_13  and  C_14
REMARK    7  A    between atoms: C_15  and  O_16
REMARK    8  A    between atoms: O_16  and  C_17
REMARK    9  A    between atoms: C_23  and  O_24
REMARK                            x       y       z     vdW  Elec       q    Type
REMARK                         _______ _______ _______ _____ _____    ______ ____
ROOT
ATOM      1  C   LIG A   1      -6.928   2.320 126.549  0.00  0.00    +0.149 C 
ATOM      2  N   LIG A   1      -8.127   1.445 126.578  0.00  0.00    -0.337 N 
ATOM      3  C   LIG A   1      -7.993   0.351 127.506  0.00  0.00    +0.103 A 
ATOM      4  C   LIG A   1      -8.190  -0.962 127.042  0.00  0.00    +0.095 A 
ATOM      5  C   LIG A   1      -8.639  -1.182 125.647  0.00  0.00    +0.201 A 
ATOM      6  O   LIG A   1      -8.804  -2.318 125.230  0.00  0.00    -0.286 OA
ATOM      7  C   LIG A   1      -7.943  -2.075 127.864  0.00  0.00    +0.175 A 
ATOM      8  C   LIG A   1      -7.594  -1.898 129.208  0.00  0.00    +0.208 A 
ATOM      9  C   LIG A   1      -7.565  -0.599 129.747  0.00  0.00    +0.209 A 
ATOM     10  C   LIG A   1      -7.692   0.530 128.890  0.00  0.00    +0.190 A 
ATOM     11  C   LIG A   1      -8.677   1.258 125.272  0.00  0.00    +0.095 A 
ATOM     12  C   LIG A   1      -8.921  -0.028 124.782  0.00  0.00    +0.050 A 
ATOM     13  C   LIG A   1      -9.420  -0.254 123.489  0.00  0.00    +0.014 A 
ATOM     14  C   LIG A   1      -9.692   0.825 122.652  0.00  0.00    +0.004 A 
ATOM     15  C   LIG A   1      -9.497   2.119 123.123  0.00  0.00    +0.047 A 
ATOM     16  C   LIG A   1      -9.024   2.324 124.423  0.00  0.00    +0.141 A 
ENDROOT
BRANCH   7  17
ATOM     17  O   LIG A   1      -8.016  -3.354 127.363  0.00  0.00    -0.503 OA
ATOM     18  H   LIG A   1      -7.107  -3.648 127.121  0.00  0.00    +0.292 HD
ENDBRANCH   7  17
BRANCH   8  19
ATOM     19  O   LIG A   1      -7.156  -2.920 130.013  0.00  0.00    -0.488 OA
ATOM     20  C   LIG A   1      -5.763  -3.208 129.987  0.00  0.00    +0.277 C 
ENDBRANCH   8  19
BRANCH   9  21
ATOM     21  O   LIG A   1      -7.439  -0.328 131.089  0.00  0.00    -0.488 OA
ATOM     22  C   LIG A   1      -8.566  -0.393 131.949  0.00  0.00    +0.277 C 
ENDBRANCH   9  21
BRANCH  10  23
ATOM     23  O   LIG A   1      -7.607   1.841 129.323  0.00  0.00    -0.489 OA
ATOM     24  C   LIG A   1      -8.801   2.504 129.746  0.00  0.00    +0.277 C 
ENDBRANCH  10  23
BRANCH  16  25
ATOM     25  O   LIG A   1      -8.985   3.621 124.860  0.00  0.00    -0.505 OA
ATOM     26  H   LIG A   1      -8.993   3.563 125.834  0.00  0.00    +0.292 HD
ENDBRANCH  16  25
TORSDOF 5
ENDMDL
MODEL 5
REMARK VINA RESULT:      -5.8      1.848      4.251
REMARK  Name = NuBBE_1077
REMARK  9 active torsions:
REMARK  status: ('A' for Active; 'I' for Inactive)
REMARK    1  A    between atoms: C_1  and  N_2
REMARK    2  A    between atoms: C_7  and  O_8
REMARK    3  A    between atoms: C_9  and  O_10
REMARK    4  A    between atoms: O_10  and  C_11
REMARK    5  A    between atoms: C_12  and  O_13
REMARK    6  A    between atoms: O_13  and  C_14
REMARK    7  A    between atoms: C_15  and  O_16
REMARK    8  A    between atoms: O_16  and  C_17
REMARK    9  A    between atoms: C_23  and  O_24
REMARK                            x       y       z     vdW  Elec       q    Type
REMARK                         _______ _______ _______ _____ _____    ______ ____
ROOT
ATOM      1  C   LIG A   1      -8.263   1.299 128.976  0.00  0.00    +0.149 C 
ATOM      2  N   LIG A   1      -7.537   0.249 128.216  0.00  0.00    -0.337 N 
ATOM      3  C   LIG A   1      -7.877   0.243 126.817  0.00  0.00    +0.103 A 
ATOM      4  C   LIG A   1      -8.329  -0.953 126.232  0.00  0.00    +0.095 A 
ATOM      5  C   LIG A   1      -8.338  -2.199 127.035  0.00  0.00    +0.201 A 
ATOM      6  O   LIG A   1      -8.738  -3.241 126.541  0.00  0.00    -0.286 OA
ATOM      7  C   LIG A   1      -8.801  -0.990 124.908  0.00  0.00    +0.175 A 
ATOM      8  C   LIG A   1      -8.732   0.151 124.101  0.00  0.00    +0.208 A 
ATOM      9  C   LIG A   1      -8.118   1.314 124.602  0.00  0.00    +0.209 A 
ATOM     10  C   LIG A   1      -7.755   1.391 125.976  0.00  0.00    +0.190 A 
ATOM     11  C   LIG A   1      -7.423  -0.962 128.966  0.00  0.00    +0.095 A 
ATOM     12  C   LIG A   1      -7.829  -2.180 128.413  0.00  0.00    +0.050 A 
ATOM     13  C   LIG A   1      -7.773  -3.385 129.133  0.00  0.00    +0.014 A 
ATOM     14  C   LIG A   1      -7.296  -3.389 130.441  0.00  0.00    +0.004 A 
ATOM     15  C   LIG A   1      -6.847  -2.200 131.008  0.00  0.00    +0.047 A 
ATOM     16  C   LIG A   1      -6.887  -1.016 130.266  0.00  0.00    +0.141 A 
ENDROOT
BRANCH   7  17
ATOM     17  O   LIG A   1      -9.359  -2.135 124.388  0.00  0.00    -0.503 OA
ATOM     18  H   LIG A   1      -9.576  -1.976 123.441  0.00  0.00    +0.292 HD
ENDBRANCH   7  17
BRANCH   8  19
ATOM     19  O   LIG A   1      -9.341   0.244 122.874  0.00  0.00    -0.488 OA
ATOM     20  C   LIG A   1     -10.617   0.871 122.835  0.00  0.00    +0.277 C 
ENDBRANCH   8  19
BRANCH   9  21
ATOM     21  O   LIG A   1      -7.814   2.412 123.834  0.00  0.00    -0.488 OA
ATOM     22  C   LIG A   1      -6.734   2.375 122.915  0.00  0.00    +0.277 C 
ENDBRANCH   9  21
BRANCH  10  23
ATOM     23  O   LIG A   1      -7.211   2.516 126.568  0.00  0.00    -0.489 OA
ATOM     24  C   LIG A   1      -5.794   2.702 126.520  0.00  0.00    +0.277 C 
ENDBRANCH  10  23
BRANCH  16  25
ATOM     25  O   LIG A   1      -6.308   0.083 130.840  0.00  0.00    -0.505 OA
ATOM     26  H   LIG A   1      -6.630   0.091 131.761  0.00  0.00    +0.292 HD
ENDBRANCH  16  25
TORSDOF 5
ENDMDL
MODEL 6
REMARK VINA RESULT:      -5.8      2.035      5.588
REMARK  Name = NuBBE_1077
REMARK  9 active torsions:
REMARK  status: ('A' for Active; 'I' for Inactive)
REMARK    1  A    between atoms: C_1  and  N_2
REMARK    2  A    between atoms: C_7  and  O_8
REMARK    3  A    between atoms: C_9  and  O_10
REMARK    4  A    between atoms: O_10  and  C_11
REMARK    5  A    between atoms: C_12  and  O_13
REMARK    6  A    between atoms: O_13  and  C_14
REMARK    7  A    between atoms: C_15  and  O_16
REMARK    8  A    between atoms: O_16  and  C_17
REMARK    9  A    between atoms: C_23  and  O_24
REMARK                            x       y       z     vdW  Elec       q    Type
REMARK                         _______ _______ _______ _____ _____    ______ ____
ROOT
ATOM      1  C   LIG A   1      -7.934   4.222 126.532  0.00  0.00    +0.149 C 
ATOM      2  N   LIG A   1      -6.962   3.159 126.172  0.00  0.00    -0.337 N 
ATOM      3  C   LIG A   1      -7.593   1.882 125.956  0.00  0.00    +0.103 A 
ATOM      4  C   LIG A   1      -7.134   0.766 126.678  0.00  0.00    +0.095 A 
ATOM      5  C   LIG A   1      -5.948   0.903 127.555  0.00  0.00    +0.201 A 
ATOM      6  O   LIG A   1      -5.547  -0.056 128.195  0.00  0.00    -0.286 OA
ATOM      7  C   LIG A   1      -7.795  -0.474 126.611  0.00  0.00    +0.175 A 
ATOM      8  C   LIG A   1      -8.869  -0.655 125.733  0.00  0.00    +0.208 A 
ATOM      9  C   LIG A   1      -9.236   0.391 124.866  0.00  0.00    +0.209 A 
ATOM     10  C   LIG A   1      -8.652   1.680 125.020  0.00  0.00    +0.190 A 
ATOM     11  C   LIG A   1      -5.747   3.279 126.915  0.00  0.00    +0.095 A 
ATOM     12  C   LIG A   1      -5.236   2.187 127.621  0.00  0.00    +0.050 A 
ATOM     13  C   LIG A   1      -4.068   2.277 128.396  0.00  0.00    +0.014 A 
ATOM     14  C   LIG A   1      -3.379   3.484 128.474  0.00  0.00    +0.004 A 
ATOM     15  C   LIG A   1      -3.840   4.580 127.751  0.00  0.00    +0.047 A 
ATOM     16  C   LIG A   1      -4.989   4.463 126.965  0.00  0.00    +0.141 A 
ENDROOT
BRANCH   7  17
ATOM     17  O   LIG A   1      -7.416  -1.521 127.417  0.00  0.00    -0.503 OA
ATOM     18  H   LIG A   1      -7.890  -2.332 127.122  0.00  0.00    +0.292 HD
ENDBRANCH   7  17
BRANCH   8  19
ATOM     19  O   LIG A   1      -9.676  -1.766 125.749  0.00  0.00    -0.488 OA
ATOM     20  C   LIG A   1      -9.179  -2.931 125.102  0.00  0.00    +0.277 C 
ENDBRANCH   8  19
BRANCH   9  21
ATOM     21  O   LIG A   1     -10.130   0.252 123.832  0.00  0.00    -0.488 OA
ATOM     22  C   LIG A   1      -9.732  -0.338 122.605  0.00  0.00    +0.277 C 
ENDBRANCH   9  21
BRANCH  10  23
ATOM     23  O   LIG A   1      -9.003   2.781 124.260  0.00  0.00    -0.489 OA
ATOM     24  C   LIG A   1      -8.334   2.997 123.014  0.00  0.00    +0.277 C 
ENDBRANCH  10  23
BRANCH  16  25
ATOM     25  O   LIG A   1      -5.304   5.540 126.181  0.00  0.00    -0.505 OA
ATOM     26  H   LIG A   1      -4.566   6.168 126.299  0.00  0.00    +0.292 HD
ENDBRANCH  16  25
TORSDOF 5
ENDMDL
MODEL 7
REMARK VINA RESULT:      -5.8      2.729      4.336
REMARK  Name = NuBBE_1077
REMARK  9 active torsions:
REMARK  status: ('A' for Active; 'I' for Inactive)
REMARK    1  A    between atoms: C_1  and  N_2
REMARK    2  A    between atoms: C_7  and  O_8
REMARK    3  A    between atoms: C_9  and  O_10
REMARK    4  A    between atoms: O_10  and  C_11
REMARK    5  A    between atoms: C_12  and  O_13
REMARK    6  A    between atoms: O_13  and  C_14
REMARK    7  A    between atoms: C_15  and  O_16
REMARK    8  A    between atoms: O_16  and  C_17
REMARK    9  A    between atoms: C_23  and  O_24
REMARK                            x       y       z     vdW  Elec       q    Type
REMARK                         _______ _______ _______ _____ _____    ______ ____
ROOT
ATOM      1  C   LIG A   1      -6.148  -1.687 128.255  0.00  0.00    +0.149 C 
ATOM      2  N   LIG A   1      -7.503  -1.077 128.241  0.00  0.00    -0.337 N 
ATOM      3  C   LIG A   1      -7.779  -0.369 127.018  0.00  0.00    +0.103 A 
ATOM      4  C   LIG A   1      -8.189   0.975 127.088  0.00  0.00    +0.095 A 
ATOM      5  C   LIG A   1      -8.434   1.594 128.412  0.00  0.00    +0.201 A 
ATOM      6  O   LIG A   1      -8.780   2.762 128.486  0.00  0.00    -0.286 OA
ATOM      7  C   LIG A   1      -8.344   1.756 125.930  0.00  0.00    +0.175 A 
ATOM      8  C   LIG A   1      -8.196   1.179 124.663  0.00  0.00    +0.208 A 
ATOM      9  C   LIG A   1      -7.964  -0.205 124.559  0.00  0.00    +0.209 A 
ATOM     10  C   LIG A   1      -7.684  -0.969 125.726  0.00  0.00    +0.190 A 
ATOM     11  C   LIG A   1      -7.851  -0.536 129.518  0.00  0.00    +0.095 A 
ATOM     12  C   LIG A   1      -8.295   0.784 129.631  0.00  0.00    +0.050 A 
ATOM     13  C   LIG A   1      -8.607   1.365 130.872  0.00  0.00    +0.014 A 
ATOM     14  C   LIG A   1      -8.481   0.617 132.039  0.00  0.00    +0.004 A 
ATOM     15  C   LIG A   1      -8.079  -0.712 131.957  0.00  0.00    +0.047 A 
ATOM     16  C   LIG A   1      -7.798  -1.280 130.710  0.00  0.00    +0.141 A 
ENDROOT
BRANCH   7  17
ATOM     17  O   LIG A   1      -8.620   3.100 126.016  0.00  0.00    -0.503 OA
ATOM     18  H   LIG A   1      -7.894   3.538 126.516  0.00  0.00    +0.292 HD
ENDBRANCH   7  17
BRANCH   8  19
ATOM     19  O   LIG A   1      -8.144   1.911 123.504  0.00  0.00    -0.488 OA
ATOM     20  C   LIG A   1      -6.867   2.390 123.101  0.00  0.00    +0.277 C 
ENDBRANCH   8  19
BRANCH   9  21
ATOM     21  O   LIG A   1      -8.008  -0.903 123.376  0.00  0.00    -0.488 OA
ATOM     22  C   LIG A   1      -9.250  -1.287 122.809  0.00  0.00    +0.277 C 
ENDBRANCH   9  21
BRANCH  10  23
ATOM     23  O   LIG A   1      -7.377  -2.318 125.710  0.00  0.00    -0.489 OA
ATOM     24  C   LIG A   1      -8.444  -3.267 125.789  0.00  0.00    +0.277 C 
ENDBRANCH  10  23
BRANCH  16  25
ATOM     25  O   LIG A   1      -7.540  -2.624 130.697  0.00  0.00    -0.505 OA
ATOM     26  H   LIG A   1      -8.393  -3.051 130.900  0.00  0.00    +0.292 HD
ENDBRANCH  16  25
TORSDOF 5
ENDMDL
MODEL 8
REMARK VINA RESULT:      -5.7      2.053      2.945
REMARK  Name = NuBBE_1077
REMARK  9 active torsions:
REMARK  status: ('A' for Active; 'I' for Inactive)
REMARK    1  A    between atoms: C_1  and  N_2
REMARK    2  A    between atoms: C_7  and  O_8
REMARK    3  A    between atoms: C_9  and  O_10
REMARK    4  A    between atoms: O_10  and  C_11
REMARK    5  A    between atoms: C_12  and  O_13
REMARK    6  A    between atoms: O_13  and  C_14
REMARK    7  A    between atoms: C_15  and  O_16
REMARK    8  A    between atoms: O_16  and  C_17
REMARK    9  A    between atoms: C_23  and  O_24
REMARK                            x       y       z     vdW  Elec       q    Type
REMARK                         _______ _______ _______ _____ _____    ______ ____
ROOT
ATOM      1  C   LIG A   1      -7.670   1.072 123.503  0.00  0.00    +0.149 C 
ATOM      2  N   LIG A   1      -7.992   0.368 124.770  0.00  0.00    -0.337 N 
ATOM      3  C   LIG A   1      -7.230   0.862 125.888  0.00  0.00    +0.103 A 
ATOM      4  C   LIG A   1      -6.481  -0.048 126.656  0.00  0.00    +0.095 A 
ATOM      5  C   LIG A   1      -6.581  -1.498 126.370  0.00  0.00    +0.201 A 
ATOM      6  O   LIG A   1      -5.928  -2.297 127.023  0.00  0.00    -0.286 OA
ATOM      7  C   LIG A   1      -5.614   0.390 127.673  0.00  0.00    +0.175 A 
ATOM      8  C   LIG A   1      -5.557   1.745 128.018  0.00  0.00    +0.208 A 
ATOM      9  C   LIG A   1      -6.428   2.654 127.389  0.00  0.00    +0.209 A 
ATOM     10  C   LIG A   1      -7.213   2.235 126.279  0.00  0.00    +0.190 A 
ATOM     11  C   LIG A   1      -8.196  -1.032 124.561  0.00  0.00    +0.095 A 
ATOM     12  C   LIG A   1      -7.498  -1.972 125.323  0.00  0.00    +0.050 A 
ATOM     13  C   LIG A   1      -7.639  -3.355 125.118  0.00  0.00    +0.014 A 
ATOM     14  C   LIG A   1      -8.500  -3.825 124.131  0.00  0.00    +0.004 A 
ATOM     15  C   LIG A   1      -9.239  -2.916 123.381  0.00  0.00    +0.047 A 
ATOM     16  C   LIG A   1      -9.104  -1.545 123.617  0.00  0.00    +0.141 A 
ENDROOT
BRANCH   7  17
ATOM     17  O   LIG A   1      -4.793  -0.495 128.330  0.00  0.00    -0.503 OA
ATOM     18  H   LIG A   1      -4.920  -0.380 129.300  0.00  0.00    +0.292 HD
ENDBRANCH   7  17
BRANCH   8  19
ATOM     19  O   LIG A   1      -4.608   2.268 128.859  0.00  0.00    -0.488 OA
ATOM     20  C   LIG A   1      -3.436   2.803 128.255  0.00  0.00    +0.277 C 
ENDBRANCH   8  19
BRANCH   9  21
ATOM     21  O   LIG A   1      -6.600   3.956 127.794  0.00  0.00    -0.488 OA
ATOM     22  C   LIG A   1      -7.498   4.275 128.844  0.00  0.00    +0.277 C 
ENDBRANCH   9  21
BRANCH  10  23
ATOM     23  O   LIG A   1      -8.042   3.076 125.559  0.00  0.00    -0.489 OA
ATOM     24  C   LIG A   1      -7.464   4.195 124.881  0.00  0.00    +0.277 C 
ENDBRANCH  10  23
BRANCH  16  25
ATOM     25  O   LIG A   1      -9.959  -0.722 122.935  0.00  0.00    -0.505 OA
ATOM     26  H   LIG A   1     -10.832  -0.858 123.350  0.00  0.00    +0.292 HD
ENDBRANCH  16  25
TORSDOF 5
ENDMDL
MODEL 9
REMARK VINA RESULT:      -5.6      3.819      6.104
REMARK  Name = NuBBE_1077
REMARK  9 active torsions:
REMARK  status: ('A' for Active; 'I' for Inactive)
REMARK    1  A    between atoms: C_1  and  N_2
REMARK    2  A    between atoms: C_7  and  O_8
REMARK    3  A    between atoms: C_9  and  O_10
REMARK    4  A    between atoms: O_10  and  C_11
REMARK    5  A    between atoms: C_12  and  O_13
REMARK    6  A    between atoms: O_13  and  C_14
REMARK    7  A    between atoms: C_15  and  O_16
REMARK    8  A    between atoms: O_16  and  C_17
REMARK    9  A    between atoms: C_23  and  O_24
REMARK                            x       y       z     vdW  Elec       q    Type
REMARK                         _______ _______ _______ _____ _____    ______ ____
ROOT
ATOM      1  C   LIG A   1      -5.994  -0.234 130.699  0.00  0.00    +0.149 C 
ATOM      2  N   LIG A   1      -7.397   0.152 130.399  0.00  0.00    -0.337 N 
ATOM      3  C   LIG A   1      -7.714   0.042 128.998  0.00  0.00    +0.103 A 
ATOM      4  C   LIG A   1      -8.241   1.162 128.331  0.00  0.00    +0.095 A 
ATOM      5  C   LIG A   1      -8.562   2.386 129.102  0.00  0.00    +0.201 A 
ATOM      6  O   LIG A   1      -9.010   3.368 128.531  0.00  0.00    -0.286 OA
ATOM      7  C   LIG A   1      -8.445   1.158 126.940  0.00  0.00    +0.175 A 
ATOM      8  C   LIG A   1      -8.226  -0.007 126.197  0.00  0.00    +0.208 A 
ATOM      9  C   LIG A   1      -7.871  -1.195 126.864  0.00  0.00    +0.209 A 
ATOM     10  C   LIG A   1      -7.545  -1.161 128.249  0.00  0.00    +0.190 A 
ATOM     11  C   LIG A   1      -7.813   1.277 131.177  0.00  0.00    +0.095 A 
ATOM     12  C   LIG A   1      -8.373   2.399 130.559  0.00  0.00    +0.050 A 
ATOM     13  C   LIG A   1      -8.755   3.539 131.285  0.00  0.00    +0.014 A 
ATOM     14  C   LIG A   1      -8.583   3.573 132.665  0.00  0.00    +0.004 A 
ATOM     15  C   LIG A   1      -8.064   2.458 133.316  0.00  0.00    +0.047 A 
ATOM     16  C   LIG A   1      -7.714   1.322 132.580  0.00  0.00    +0.141 A 
ENDROOT
BRANCH   7  17
ATOM     17  O   LIG A   1      -8.840   2.298 126.280  0.00  0.00    -0.503 OA
ATOM     18  H   LIG A   1      -9.821   2.369 126.334  0.00  0.00    +0.292 HD
ENDBRANCH   7  17
BRANCH   8  19
ATOM     19  O   LIG A   1      -8.220  -0.036 124.824  0.00  0.00    -0.488 OA
ATOM     20  C   LIG A   1      -6.975   0.213 124.181  0.00  0.00    +0.277 C 
ENDBRANCH   8  19
BRANCH   9  21
ATOM     21  O   LIG A   1      -7.834  -2.430 126.264  0.00  0.00    -0.488 OA
ATOM     22  C   LIG A   1      -9.032  -3.147 126.009  0.00  0.00    +0.277 C 
ENDBRANCH   9  21
BRANCH  10  23
ATOM     23  O   LIG A   1      -7.120  -2.264 128.968  0.00  0.00    -0.489 OA
ATOM     24  C   LIG A   1      -8.102  -3.115 129.565  0.00  0.00    +0.277 C 
ENDBRANCH  10  23
BRANCH  16  25
ATOM     25  O   LIG A   1      -7.338   0.221 133.300  0.00  0.00    -0.505 OA
ATOM     26  H   LIG A   1      -6.613  -0.185 132.787  0.00  0.00    +0.292 HD
ENDBRANCH  16  25
TORSDOF 5
ENDMDL
