MODEL 1
REMARK VINA RESULT:      -9.0      0.000      0.000
REMARK  Name = NuBBE_100
REMARK  13 active torsions:
REMARK  status: ('A' for Active; 'I' for Inactive)
REMARK    1  A    between atoms: C_2  and  C_3
REMARK    2  A    between atoms: C_4  and  O_28
REMARK    3  A    between atoms: C_8  and  C_24
REMARK    4  A    between atoms: C_9  and  C_10
REMARK    5  A    between atoms: C_10  and  C_11
REMARK    6  A    between atoms: C_24  and  O_25
REMARK    7  A    between atoms: O_25  and  C_26
REMARK    8  A    between atoms: O_28  and  C_29
REMARK    9  A    between atoms: C_32  and  C_40
REMARK   10  A    between atoms: C_34  and  O_39
REMARK   11  A    between atoms: C_36  and  O_38
REMARK   12  A    between atoms: C_40  and  O_41
REMARK   13  A    between atoms: C_42  and  O_44
REMARK                            x       y       z     vdW  Elec       q    Type
REMARK                         _______ _______ _______ _____ _____    ______ ____
ROOT
ATOM      1  C   LIG A   1      -8.449   2.426 129.189  0.00  0.00    +0.088 C 
ATOM      2  C   LIG A   1      -9.434   3.188 130.125  0.00  0.00    +0.316 C 
ATOM      3  O   LIG A   1      -8.720   3.542 131.333  0.00  0.00    -0.470 OA
ATOM      4  C   LIG A   1      -8.114   2.457 131.934  0.00  0.00    +0.201 C 
ATOM      5  C   LIG A   1      -7.878   1.244 131.357  0.00  0.00    +0.075 C 
ATOM      6  C   LIG A   1      -8.121   1.049 129.858  0.00  0.00    +0.048 C 
ENDROOT
BRANCH   1   8
ATOM      7  C   LIG A   1      -6.831   3.726 127.618  0.00  0.00    +0.004 C 
ATOM      8  C   LIG A   1      -7.295   3.365 128.824  0.00  0.00    -0.025 C 
ENDBRANCH   1   8
BRANCH   5   9
ATOM      9  C   LIG A   1      -7.582   0.066 132.216  0.00  0.00    +0.338 C 
ATOM     10  O   LIG A   1      -8.411  -0.759 132.628  0.00  0.00    -0.245 OA
BRANCH   9  11
ATOM     11  O   LIG A   1      -6.284   0.164 132.625  0.00  0.00    -0.465 OA
ATOM     12  C   LIG A   1      -5.524  -1.048 132.555  0.00  0.00    +0.280 C 
ENDBRANCH   9  11
ENDBRANCH   5   9
BRANCH   6  13
ATOM     13  C   LIG A   1      -7.033   0.228 129.114  0.00  0.00    +0.066 C 
BRANCH  13  14
ATOM     14  C   LIG A   1      -7.429  -1.194 128.723  0.00  0.00    +0.060 C 
ATOM     15  N   LIG A   1      -7.453  -2.141 129.606  0.00  0.00    -0.286 NA
ATOM     16  C   LIG A   1      -7.790  -3.522 129.158  0.00  0.00    +0.146 C 
ATOM     17  C   LIG A   1      -8.805  -3.607 127.995  0.00  0.00    +0.061 C 
ATOM     18  C   LIG A   1      -8.434  -2.613 126.958  0.00  0.00    -0.011 A 
ATOM     19  C   LIG A   1      -7.755  -1.476 127.343  0.00  0.00    +0.065 A 
ATOM     20  N   LIG A   1      -7.487  -0.755 126.213  0.00  0.00    -0.353 N 
ATOM     21  C   LIG A   1      -8.030  -1.383 125.111  0.00  0.00    +0.047 A 
ATOM     22  C   LIG A   1      -8.010  -1.004 123.762  0.00  0.00    +0.026 A 
ATOM     23  C   LIG A   1      -8.685  -1.817 122.849  0.00  0.00    +0.002 A 
ATOM     24  C   LIG A   1      -9.347  -2.969 123.267  0.00  0.00    +0.001 A 
ATOM     25  C   LIG A   1      -9.334  -3.353 124.615  0.00  0.00    +0.010 A 
ATOM     26  C   LIG A   1      -8.661  -2.548 125.557  0.00  0.00    +0.004 A 
ATOM     27  H   LIG A   1      -6.966   0.109 126.175  0.00  0.00    +0.166 HD
ENDBRANCH  13  14
ENDBRANCH   6  13
BRANCH   2  28
ATOM     28  O   LIG A   1     -10.014   4.309 129.411  0.00  0.00    -0.309 OA
BRANCH  28  29
ATOM     29  C   LIG A   1     -11.131   4.891 130.091  0.00  0.00    +0.286 C 
ATOM     30  O   LIG A   1     -12.088   5.476 129.203  0.00  0.00    -0.340 OA
ATOM     31  C   LIG A   1     -11.850   6.814 128.747  0.00  0.00    +0.178 C 
ATOM     32  C   LIG A   1     -11.529   7.806 129.878  0.00  0.00    +0.177 C 
ATOM     33  C   LIG A   1     -10.418   7.293 130.799  0.00  0.00    +0.179 C 
ATOM     34  C   LIG A   1     -10.704   5.849 131.244  0.00  0.00    +0.201 C 
BRANCH  33  35
ATOM     35  O   LIG A   1      -9.135   7.418 130.190  0.00  0.00    -0.386 OA
ATOM     36  H   LIG A   1      -8.962   8.374 130.097  0.00  0.00    +0.210 HD
ENDBRANCH  33  35
BRANCH  32  37
ATOM     37  O   LIG A   1     -12.721   7.993 130.674  0.00  0.00    -0.387 OA
ATOM     38  H   LIG A   1     -12.450   7.871 131.605  0.00  0.00    +0.210 HD
ENDBRANCH  32  37
BRANCH  34  39
ATOM     39  O   LIG A   1     -11.757   5.902 132.233  0.00  0.00    -0.384 OA
ATOM     40  H   LIG A   1     -12.378   6.605 131.937  0.00  0.00    +0.210 HD
ENDBRANCH  34  39
BRANCH  31  41
ATOM     41  C   LIG A   1     -10.856   6.879 127.585  0.00  0.00    +0.190 C 
BRANCH  41  42
ATOM     42  O   LIG A   1     -11.526   6.602 126.356  0.00  0.00    -0.392 OA
ATOM     43  H   LIG A   1     -12.418   6.283 126.585  0.00  0.00    +0.209 HD
ENDBRANCH  41  42
ENDBRANCH  31  41
ENDBRANCH  28  29
ENDBRANCH   2  28
TORSDOF 12
ENDMDL
MODEL 2
REMARK VINA RESULT:      -8.7      2.333      3.385
REMARK  Name = NuBBE_100
REMARK  13 active torsions:
REMARK  status: ('A' for Active; 'I' for Inactive)
REMARK    1  A    between atoms: C_2  and  C_3
REMARK    2  A    between atoms: C_4  and  O_28
REMARK    3  A    between atoms: C_8  and  C_24
REMARK    4  A    between atoms: C_9  and  C_10
REMARK    5  A    between atoms: C_10  and  C_11
REMARK    6  A    between atoms: C_24  and  O_25
REMARK    7  A    between atoms: O_25  and  C_26
REMARK    8  A    between atoms: O_28  and  C_29
REMARK    9  A    between atoms: C_32  and  C_40
REMARK   10  A    between atoms: C_34  and  O_39
REMARK   11  A    between atoms: C_36  and  O_38
REMARK   12  A    between atoms: C_40  and  O_41
REMARK   13  A    between atoms: C_42  and  O_44
REMARK                            x       y       z     vdW  Elec       q    Type
REMARK                         _______ _______ _______ _____ _____    ______ ____
ROOT
ATOM      1  C   LIG A   1      -7.362   2.221 128.080  0.00  0.00    +0.088 C 
ATOM      2  C   LIG A   1      -7.763   3.561 128.766  0.00  0.00    +0.316 C 
ATOM      3  O   LIG A   1      -7.219   4.646 127.978  0.00  0.00    -0.470 OA
ATOM      4  C   LIG A   1      -5.861   4.521 127.761  0.00  0.00    +0.201 C 
ATOM      5  C   LIG A   1      -5.118   3.391 127.932  0.00  0.00    +0.075 C 
ATOM      6  C   LIG A   1      -5.811   2.056 128.221  0.00  0.00    +0.048 C 
ENDROOT
BRANCH   1   8
ATOM      7  C   LIG A   1      -9.000   1.433 126.217  0.00  0.00    +0.004 C 
ATOM      8  C   LIG A   1      -7.986   2.179 126.682  0.00  0.00    -0.025 C 
ENDBRANCH   1   8
BRANCH   5   9
ATOM      9  C   LIG A   1      -3.638   3.492 128.039  0.00  0.00    +0.338 C 
ATOM     10  O   LIG A   1      -3.000   3.743 129.073  0.00  0.00    -0.245 OA
BRANCH   9  11
ATOM     11  O   LIG A   1      -3.125   3.455 126.775  0.00  0.00    -0.465 OA
ATOM     12  C   LIG A   1      -1.754   3.050 126.679  0.00  0.00    +0.280 C 
ENDBRANCH   9  11
ENDBRANCH   5   9
BRANCH   6  13
ATOM     13  C   LIG A   1      -5.233   0.834 127.459  0.00  0.00    +0.066 C 
BRANCH  13  14
ATOM     14  C   LIG A   1      -5.938  -0.496 127.709  0.00  0.00    +0.060 C 
ATOM     15  N   LIG A   1      -5.884  -1.067 128.871  0.00  0.00    -0.286 NA
ATOM     16  C   LIG A   1      -6.543  -2.393 129.043  0.00  0.00    +0.146 C 
ATOM     17  C   LIG A   1      -7.824  -2.604 128.205  0.00  0.00    +0.061 C 
ATOM     18  C   LIG A   1      -7.580  -2.127 126.822  0.00  0.00    -0.011 A 
ATOM     19  C   LIG A   1      -6.652  -1.127 126.621  0.00  0.00    +0.065 A 
ATOM     20  N   LIG A   1      -6.574  -0.904 125.274  0.00  0.00    -0.353 N 
ATOM     21  C   LIG A   1      -7.477  -1.707 124.608  0.00  0.00    +0.047 A 
ATOM     22  C   LIG A   1      -7.746  -1.807 123.237  0.00  0.00    +0.026 A 
ATOM     23  C   LIG A   1      -8.756  -2.684 122.835  0.00  0.00    +0.002 A 
ATOM     24  C   LIG A   1      -9.463  -3.439 123.769  0.00  0.00    +0.001 A 
ATOM     25  C   LIG A   1      -9.162  -3.352 125.135  0.00  0.00    +0.010 A 
ATOM     26  C   LIG A   1      -8.149  -2.471 125.566  0.00  0.00    +0.004 A 
ATOM     27  H   LIG A   1      -5.949  -0.253 124.820  0.00  0.00    +0.166 HD
ENDBRANCH  13  14
ENDBRANCH   6  13
BRANCH   2  28
ATOM     28  O   LIG A   1      -9.201   3.602 128.945  0.00  0.00    -0.309 OA
BRANCH  28  29
ATOM     29  C   LIG A   1      -9.597   3.559 130.321  0.00  0.00    +0.286 C 
ATOM     30  O   LIG A   1     -10.933   4.020 130.537  0.00  0.00    -0.340 OA
ATOM     31  C   LIG A   1     -11.142   5.433 130.668  0.00  0.00    +0.178 C 
ATOM     32  C   LIG A   1     -10.199   6.107 131.680  0.00  0.00    +0.177 C 
ATOM     33  C   LIG A   1      -8.732   5.752 131.426  0.00  0.00    +0.179 C 
ATOM     34  C   LIG A   1      -8.559   4.232 131.270  0.00  0.00    +0.201 C 
BRANCH  33  35
ATOM     35  O   LIG A   1      -8.207   6.466 130.309  0.00  0.00    -0.386 OA
ATOM     36  H   LIG A   1      -8.948   6.971 129.926  0.00  0.00    +0.210 HD
ENDBRANCH  33  35
BRANCH  32  37
ATOM     37  O   LIG A   1     -10.549   5.651 133.006  0.00  0.00    -0.387 OA
ATOM     38  H   LIG A   1     -10.353   6.393 133.610  0.00  0.00    +0.210 HD
ENDBRANCH  32  37
BRANCH  34  39
ATOM     39  O   LIG A   1      -8.667   3.646 132.586  0.00  0.00    -0.384 OA
ATOM     40  H   LIG A   1      -8.919   4.379 133.194  0.00  0.00    +0.210 HD
ENDBRANCH  34  39
BRANCH  31  41
ATOM     41  C   LIG A   1     -11.201   6.155 129.320  0.00  0.00    +0.190 C 
BRANCH  41  42
ATOM     42  O   LIG A   1     -12.513   6.052 128.770  0.00  0.00    -0.392 OA
ATOM     43  H   LIG A   1     -12.918   6.936 128.834  0.00  0.00    +0.209 HD
ENDBRANCH  41  42
ENDBRANCH  31  41
ENDBRANCH  28  29
ENDBRANCH   2  28
TORSDOF 12
ENDMDL
MODEL 3
REMARK VINA RESULT:      -8.5      2.191      3.812
REMARK  Name = NuBBE_100
REMARK  13 active torsions:
REMARK  status: ('A' for Active; 'I' for Inactive)
REMARK    1  A    between atoms: C_2  and  C_3
REMARK    2  A    between atoms: C_4  and  O_28
REMARK    3  A    between atoms: C_8  and  C_24
REMARK    4  A    between atoms: C_9  and  C_10
REMARK    5  A    between atoms: C_10  and  C_11
REMARK    6  A    between atoms: C_24  and  O_25
REMARK    7  A    between atoms: O_25  and  C_26
REMARK    8  A    between atoms: O_28  and  C_29
REMARK    9  A    between atoms: C_32  and  C_40
REMARK   10  A    between atoms: C_34  and  O_39
REMARK   11  A    between atoms: C_36  and  O_38
REMARK   12  A    between atoms: C_40  and  O_41
REMARK   13  A    between atoms: C_42  and  O_44
REMARK                            x       y       z     vdW  Elec       q    Type
REMARK                         _______ _______ _______ _____ _____    ______ ____
ROOT
ATOM      1  C   LIG A   1      -7.334   3.260 127.277  0.00  0.00    +0.088 C 
ATOM      2  C   LIG A   1      -7.600   4.042 128.598  0.00  0.00    +0.316 C 
ATOM      3  O   LIG A   1      -6.599   5.081 128.712  0.00  0.00    -0.470 OA
ATOM      4  C   LIG A   1      -5.311   4.597 128.605  0.00  0.00    +0.201 C 
ATOM      5  C   LIG A   1      -4.946   3.378 128.117  0.00  0.00    +0.075 C 
ATOM      6  C   LIG A   1      -5.988   2.478 127.446  0.00  0.00    +0.048 C 
ENDROOT
BRANCH   1   8
ATOM      7  C   LIG A   1      -8.293   4.150 125.027  0.00  0.00    +0.004 C 
ATOM      8  C   LIG A   1      -7.487   4.224 126.097  0.00  0.00    -0.025 C 
ENDBRANCH   1   8
BRANCH   5   9
ATOM      9  C   LIG A   1      -3.591   2.841 128.416  0.00  0.00    +0.338 C 
ATOM     10  O   LIG A   1      -2.528   3.221 127.900  0.00  0.00    -0.245 OA
BRANCH   9  11
ATOM     11  O   LIG A   1      -3.745   1.738 129.204  0.00  0.00    -0.465 OA
ATOM     12  C   LIG A   1      -4.099   2.001 130.567  0.00  0.00    +0.280 C 
ENDBRANCH   9  11
ENDBRANCH   5   9
BRANCH   6  13
ATOM     13  C   LIG A   1      -5.507   1.760 126.157  0.00  0.00    +0.066 C 
BRANCH  13  14
ATOM     14  C   LIG A   1      -6.532   0.850 125.485  0.00  0.00    +0.060 C 
ATOM     15  N   LIG A   1      -6.905   1.061 124.263  0.00  0.00    -0.286 NA
ATOM     16  C   LIG A   1      -7.952   0.177 123.676  0.00  0.00    +0.146 C 
ATOM     17  C   LIG A   1      -7.926  -1.288 124.168  0.00  0.00    +0.061 C 
ATOM     18  C   LIG A   1      -7.759  -1.298 125.642  0.00  0.00    -0.011 A 
ATOM     19  C   LIG A   1      -7.101  -0.244 126.241  0.00  0.00    +0.065 A 
ATOM     20  N   LIG A   1      -7.122  -0.459 127.591  0.00  0.00    -0.353 N 
ATOM     21  C   LIG A   1      -7.736  -1.664 127.868  0.00  0.00    +0.047 A 
ATOM     22  C   LIG A   1      -7.971  -2.287 129.100  0.00  0.00    +0.026 A 
ATOM     23  C   LIG A   1      -8.584  -3.542 129.087  0.00  0.00    +0.002 A 
ATOM     24  C   LIG A   1      -8.956  -4.146 127.888  0.00  0.00    +0.001 A 
ATOM     25  C   LIG A   1      -8.743  -3.497 126.663  0.00  0.00    +0.010 A 
ATOM     26  C   LIG A   1      -8.123  -2.231 126.650  0.00  0.00    +0.004 A 
ATOM     27  H   LIG A   1      -6.751   0.164 128.293  0.00  0.00    +0.166 HD
ENDBRANCH  13  14
ENDBRANCH   6  13
BRANCH   2  28
ATOM     28  O   LIG A   1      -8.971   4.514 128.615  0.00  0.00    -0.309 OA
BRANCH  28  29
ATOM     29  C   LIG A   1      -9.636   4.262 129.858  0.00  0.00    +0.286 C 
ATOM     30  O   LIG A   1     -10.968   4.782 129.898  0.00  0.00    -0.340 OA
ATOM     31  C   LIG A   1     -11.139   6.162 130.249  0.00  0.00    +0.178 C 
ATOM     32  C   LIG A   1     -10.391   6.574 131.529  0.00  0.00    +0.177 C 
ATOM     33  C   LIG A   1      -8.919   6.155 131.496  0.00  0.00    +0.179 C 
ATOM     34  C   LIG A   1      -8.783   4.676 131.095  0.00  0.00    +0.201 C 
BRANCH  33  35
ATOM     35  O   LIG A   1      -8.150   7.009 130.653  0.00  0.00    -0.386 OA
ATOM     36  H   LIG A   1      -7.518   6.438 130.177  0.00  0.00    +0.210 HD
ENDBRANCH  33  35
BRANCH  32  37
ATOM     37  O   LIG A   1     -11.019   5.922 132.655  0.00  0.00    -0.387 OA
ATOM     38  H   LIG A   1     -10.942   6.542 133.407  0.00  0.00    +0.210 HD
ENDBRANCH  32  37
BRANCH  34  39
ATOM     39  O   LIG A   1      -9.178   3.880 132.234  0.00  0.00    -0.384 OA
ATOM     40  H   LIG A   1      -9.245   2.953 131.912  0.00  0.00    +0.210 HD
ENDBRANCH  34  39
BRANCH  31  41
ATOM     41  C   LIG A   1     -10.895   7.111 129.073  0.00  0.00    +0.190 C 
BRANCH  41  42
ATOM     42  O   LIG A   1     -11.254   6.470 127.849  0.00  0.00    -0.392 OA
ATOM     43  H   LIG A   1     -12.146   6.785 127.615  0.00  0.00    +0.209 HD
ENDBRANCH  41  42
ENDBRANCH  31  41
ENDBRANCH  28  29
ENDBRANCH   2  28
TORSDOF 12
ENDMDL
MODEL 4
REMARK VINA RESULT:      -8.5      2.535      4.089
REMARK  Name = NuBBE_100
REMARK  13 active torsions:
REMARK  status: ('A' for Active; 'I' for Inactive)
REMARK    1  A    between atoms: C_2  and  C_3
REMARK    2  A    between atoms: C_4  and  O_28
REMARK    3  A    between atoms: C_8  and  C_24
REMARK    4  A    between atoms: C_9  and  C_10
REMARK    5  A    between atoms: C_10  and  C_11
REMARK    6  A    between atoms: C_24  and  O_25
REMARK    7  A    between atoms: O_25  and  C_26
REMARK    8  A    between atoms: O_28  and  C_29
REMARK    9  A    between atoms: C_32  and  C_40
REMARK   10  A    between atoms: C_34  and  O_39
REMARK   11  A    between atoms: C_36  and  O_38
REMARK   12  A    between atoms: C_40  and  O_41
REMARK   13  A    between atoms: C_42  and  O_44
REMARK                            x       y       z     vdW  Elec       q    Type
REMARK                         _______ _______ _______ _____ _____    ______ ____
ROOT
ATOM      1  C   LIG A   1      -6.763   2.789 128.521  0.00  0.00    +0.088 C 
ATOM      2  C   LIG A   1      -7.204   4.282 128.564  0.00  0.00    +0.316 C 
ATOM      3  O   LIG A   1      -6.646   4.947 127.405  0.00  0.00    -0.470 OA
ATOM      4  C   LIG A   1      -5.280   4.776 127.296  0.00  0.00    +0.201 C 
ATOM      5  C   LIG A   1      -4.530   3.843 127.949  0.00  0.00    +0.075 C 
ATOM      6  C   LIG A   1      -5.216   2.739 128.759  0.00  0.00    +0.048 C 
ENDROOT
BRANCH   1   8
ATOM      7  C   LIG A   1      -8.454   1.416 127.096  0.00  0.00    +0.004 C 
ATOM      8  C   LIG A   1      -7.339   2.144 127.257  0.00  0.00    -0.025 C 
ENDBRANCH   1   8
BRANCH   5   9
ATOM      9  C   LIG A   1      -3.056   4.018 128.042  0.00  0.00    +0.338 C 
ATOM     10  O   LIG A   1      -2.211   3.460 127.323  0.00  0.00    -0.245 OA
BRANCH   9  11
ATOM     11  O   LIG A   1      -2.791   4.739 129.169  0.00  0.00    -0.465 OA
ATOM     12  C   LIG A   1      -2.262   6.052 128.949  0.00  0.00    +0.280 C 
ENDBRANCH   9  11
ENDBRANCH   5   9
BRANCH   6  13
ATOM     13  C   LIG A   1      -4.597   1.324 128.602  0.00  0.00    +0.066 C 
BRANCH  13  14
ATOM     14  C   LIG A   1      -5.174   0.244 129.512  0.00  0.00    +0.060 C 
ATOM     15  N   LIG A   1      -4.890   0.222 130.776  0.00  0.00    -0.286 NA
ATOM     16  C   LIG A   1      -5.435  -0.889 131.608  0.00  0.00    +0.146 C 
ATOM     17  C   LIG A   1      -6.828  -1.407 131.182  0.00  0.00    +0.061 C 
ATOM     18  C   LIG A   1      -6.852  -1.570 129.708  0.00  0.00    -0.011 A 
ATOM     19  C   LIG A   1      -6.028  -0.773 128.940  0.00  0.00    +0.065 A 
ATOM     20  N   LIG A   1      -6.195  -1.147 127.636  0.00  0.00    -0.353 N 
ATOM     21  C   LIG A   1      -7.153  -2.136 127.545  0.00  0.00    +0.047 A 
ATOM     22  C   LIG A   1      -7.647  -2.804 126.418  0.00  0.00    +0.026 A 
ATOM     23  C   LIG A   1      -8.661  -3.745 126.613  0.00  0.00    +0.002 A 
ATOM     24  C   LIG A   1      -9.154  -4.014 127.887  0.00  0.00    +0.001 A 
ATOM     25  C   LIG A   1      -8.629  -3.359 129.011  0.00  0.00    +0.010 A 
ATOM     26  C   LIG A   1      -7.607  -2.403 128.840  0.00  0.00    +0.004 A 
ATOM     27  H   LIG A   1      -5.694  -0.767 126.845  0.00  0.00    +0.166 HD
ENDBRANCH  13  14
ENDBRANCH   6  13
BRANCH   2  28
ATOM     28  O   LIG A   1      -8.648   4.359 128.672  0.00  0.00    -0.309 OA
BRANCH  28  29
ATOM     29  C   LIG A   1      -9.127   4.088 129.994  0.00  0.00    +0.286 C 
ATOM     30  O   LIG A   1     -10.536   4.294 130.134  0.00  0.00    -0.340 OA
ATOM     31  C   LIG A   1     -10.997   5.626 130.393  0.00  0.00    +0.178 C 
ATOM     32  C   LIG A   1     -10.261   6.322 131.552  0.00  0.00    +0.177 C 
ATOM     33  C   LIG A   1      -8.740   6.247 131.397  0.00  0.00    +0.179 C 
ATOM     34  C   LIG A   1      -8.294   4.806 131.098  0.00  0.00    +0.201 C 
BRANCH  33  35
ATOM     35  O   LIG A   1      -8.268   7.165 130.414  0.00  0.00    -0.386 OA
ATOM     36  H   LIG A   1      -7.767   7.853 130.890  0.00  0.00    +0.210 HD
ENDBRANCH  33  35
BRANCH  32  37
ATOM     37  O   LIG A   1     -10.620   5.660 132.785  0.00  0.00    -0.387 OA
ATOM     38  H   LIG A   1     -11.592   5.563 132.769  0.00  0.00    +0.210 HD
ENDBRANCH  32  37
BRANCH  34  39
ATOM     39  O   LIG A   1      -8.393   4.058 132.331  0.00  0.00    -0.384 OA
ATOM     40  H   LIG A   1      -8.480   4.723 133.050  0.00  0.00    +0.210 HD
ENDBRANCH  34  39
BRANCH  31  41
ATOM     41  C   LIG A   1     -11.083   6.484 129.128  0.00  0.00    +0.190 C 
BRANCH  41  42
ATOM     42  O   LIG A   1     -11.077   7.867 129.478  0.00  0.00    -0.392 OA
ATOM     43  H   LIG A   1     -10.143   8.135 129.557  0.00  0.00    +0.209 HD
ENDBRANCH  41  42
ENDBRANCH  31  41
ENDBRANCH  28  29
ENDBRANCH   2  28
TORSDOF 12
ENDMDL
MODEL 5
REMARK VINA RESULT:      -8.4      3.845      7.716
REMARK  Name = NuBBE_100
REMARK  13 active torsions:
REMARK  status: ('A' for Active; 'I' for Inactive)
REMARK    1  A    between atoms: C_2  and  C_3
REMARK    2  A    between atoms: C_4  and  O_28
REMARK    3  A    between atoms: C_8  and  C_24
REMARK    4  A    between atoms: C_9  and  C_10
REMARK    5  A    between atoms: C_10  and  C_11
REMARK    6  A    between atoms: C_24  and  O_25
REMARK    7  A    between atoms: O_25  and  C_26
REMARK    8  A    between atoms: O_28  and  C_29
REMARK    9  A    between atoms: C_32  and  C_40
REMARK   10  A    between atoms: C_34  and  O_39
REMARK   11  A    between atoms: C_36  and  O_38
REMARK   12  A    between atoms: C_40  and  O_41
REMARK   13  A    between atoms: C_42  and  O_44
REMARK                            x       y       z     vdW  Elec       q    Type
REMARK                         _______ _______ _______ _____ _____    ______ ____
ROOT
ATOM      1  C   LIG A   1      -6.947   0.242 127.635  0.00  0.00    +0.088 C 
ATOM      2  C   LIG A   1      -8.294   0.538 126.912  0.00  0.00    +0.316 C 
ATOM      3  O   LIG A   1      -8.742   1.852 127.322  0.00  0.00    -0.470 OA
ATOM      4  C   LIG A   1      -8.808   1.991 128.694  0.00  0.00    +0.201 C 
ATOM      5  C   LIG A   1      -8.224   1.174 129.616  0.00  0.00    +0.075 C 
ATOM      6  C   LIG A   1      -7.247   0.085 129.164  0.00  0.00    +0.048 C 
ENDROOT
BRANCH   1   8
ATOM      7  C   LIG A   1      -4.881   1.152 126.338  0.00  0.00    +0.004 C 
ATOM      8  C   LIG A   1      -5.912   1.279 127.187  0.00  0.00    -0.025 C 
ENDBRANCH   1   8
BRANCH   5   9
ATOM      9  C   LIG A   1      -8.688   1.208 131.028  0.00  0.00    +0.338 C 
ATOM     10  O   LIG A   1      -9.196   0.261 131.649  0.00  0.00    -0.245 OA
BRANCH   9  11
ATOM     11  O   LIG A   1      -8.637   2.504 131.453  0.00  0.00    -0.465 OA
ATOM     12  C   LIG A   1      -7.403   2.903 132.061  0.00  0.00    +0.280 C 
ENDBRANCH   9  11
ENDBRANCH   5   9
BRANCH   6  13
ATOM     13  C   LIG A   1      -5.979  -0.071 130.045  0.00  0.00    +0.066 C 
BRANCH  13  14
ATOM     14  C   LIG A   1      -5.484  -1.501 130.246  0.00  0.00    +0.060 C 
ATOM     15  N   LIG A   1      -4.604  -2.016 129.446  0.00  0.00    -0.286 NA
ATOM     16  C   LIG A   1      -4.200  -3.436 129.653  0.00  0.00    +0.146 C 
ATOM     17  C   LIG A   1      -4.186  -3.907 131.126  0.00  0.00    +0.061 C 
ATOM     18  C   LIG A   1      -5.422  -3.435 131.795  0.00  0.00    -0.011 A 
ATOM     19  C   LIG A   1      -6.029  -2.286 131.331  0.00  0.00    +0.065 A 
ATOM     20  N   LIG A   1      -7.163  -2.093 132.070  0.00  0.00    -0.353 N 
ATOM     21  C   LIG A   1      -7.268  -3.070 133.038  0.00  0.00    +0.047 A 
ATOM     22  C   LIG A   1      -8.254  -3.260 134.017  0.00  0.00    +0.026 A 
ATOM     23  C   LIG A   1      -8.087  -4.321 134.909  0.00  0.00    +0.002 A 
ATOM     24  C   LIG A   1      -6.983  -5.165 134.821  0.00  0.00    +0.001 A 
ATOM     25  C   LIG A   1      -6.020  -4.983 133.818  0.00  0.00    +0.010 A 
ATOM     26  C   LIG A   1      -6.164  -3.916 132.907  0.00  0.00    +0.004 A 
ATOM     27  H   LIG A   1      -7.835  -1.352 131.935  0.00  0.00    +0.166 HD
ENDBRANCH  13  14
ENDBRANCH   6  13
BRANCH   2  28
ATOM     28  O   LIG A   1      -8.125   0.373 125.482  0.00  0.00    -0.309 OA
BRANCH  28  29
ATOM     29  C   LIG A   1      -9.248  -0.252 124.851  0.00  0.00    +0.286 C 
ATOM     30  O   LIG A   1      -9.687  -1.433 125.529  0.00  0.00    -0.340 OA
ATOM     31  C   LIG A   1      -9.016  -2.665 125.234  0.00  0.00    +0.178 C 
ATOM     32  C   LIG A   1      -8.890  -2.957 123.729  0.00  0.00    +0.177 C 
ATOM     33  C   LIG A   1      -8.304  -1.771 122.958  0.00  0.00    +0.179 C 
ATOM     34  C   LIG A   1      -9.039  -0.470 123.322  0.00  0.00    +0.201 C 
BRANCH  33  35
ATOM     35  O   LIG A   1      -6.897  -1.661 123.157  0.00  0.00    -0.386 OA
ATOM     36  H   LIG A   1      -6.484  -2.378 122.639  0.00  0.00    +0.210 HD
ENDBRANCH  33  35
BRANCH  32  37
ATOM     37  O   LIG A   1     -10.208  -3.228 123.203  0.00  0.00    -0.387 OA
ATOM     38  H   LIG A   1     -10.095  -3.926 122.529  0.00  0.00    +0.210 HD
ENDBRANCH  32  37
BRANCH  34  39
ATOM     39  O   LIG A   1     -10.326  -0.501 122.666  0.00  0.00    -0.384 OA
ATOM     40  H   LIG A   1     -10.480  -1.438 122.407  0.00  0.00    +0.210 HD
ENDBRANCH  34  39
BRANCH  31  41
ATOM     41  C   LIG A   1      -7.697  -2.822 125.994  0.00  0.00    +0.190 C 
BRANCH  41  42
ATOM     42  O   LIG A   1      -7.958  -3.068 127.375  0.00  0.00    -0.392 OA
ATOM     43  H   LIG A   1      -8.644  -3.759 127.415  0.00  0.00    +0.209 HD
ENDBRANCH  41  42
ENDBRANCH  31  41
ENDBRANCH  28  29
ENDBRANCH   2  28
TORSDOF 12
ENDMDL
MODEL 6
REMARK VINA RESULT:      -8.4      3.576      6.187
REMARK  Name = NuBBE_100
REMARK  13 active torsions:
REMARK  status: ('A' for Active; 'I' for Inactive)
REMARK    1  A    between atoms: C_2  and  C_3
REMARK    2  A    between atoms: C_4  and  O_28
REMARK    3  A    between atoms: C_8  and  C_24
REMARK    4  A    between atoms: C_9  and  C_10
REMARK    5  A    between atoms: C_10  and  C_11
REMARK    6  A    between atoms: C_24  and  O_25
REMARK    7  A    between atoms: O_25  and  C_26
REMARK    8  A    between atoms: O_28  and  C_29
REMARK    9  A    between atoms: C_32  and  C_40
REMARK   10  A    between atoms: C_34  and  O_39
REMARK   11  A    between atoms: C_36  and  O_38
REMARK   12  A    between atoms: C_40  and  O_41
REMARK   13  A    between atoms: C_42  and  O_44
REMARK                            x       y       z     vdW  Elec       q    Type
REMARK                         _______ _______ _______ _____ _____    ______ ____
ROOT
ATOM      1  C   LIG A   1      -7.858   3.232 129.989  0.00  0.00    +0.088 C 
ATOM      2  C   LIG A   1      -9.405   3.218 129.806  0.00  0.00    +0.316 C 
ATOM      3  O   LIG A   1      -9.999   2.805 131.060  0.00  0.00    -0.470 OA
ATOM      4  C   LIG A   1      -9.486   1.612 131.529  0.00  0.00    +0.201 C 
ATOM      5  C   LIG A   1      -8.336   1.011 131.113  0.00  0.00    +0.075 C 
ATOM      6  C   LIG A   1      -7.383   1.751 130.169  0.00  0.00    +0.048 C 
ENDROOT
BRANCH   1   8
ATOM      7  C   LIG A   1      -6.841   5.423 130.958  0.00  0.00    +0.004 C 
ATOM      8  C   LIG A   1      -7.501   4.261 131.067  0.00  0.00    -0.025 C 
ENDBRANCH   1   8
BRANCH   5   9
ATOM      9  C   LIG A   1      -8.108  -0.428 131.410  0.00  0.00    +0.338 C 
ATOM     10  O   LIG A   1      -8.162  -1.357 130.589  0.00  0.00    -0.245 OA
BRANCH   9  11
ATOM     11  O   LIG A   1      -8.023  -0.566 132.765  0.00  0.00    -0.465 OA
ATOM     12  C   LIG A   1      -6.766  -1.046 133.256  0.00  0.00    +0.280 C 
ENDBRANCH   9  11
ENDBRANCH   5   9
BRANCH   6  13
ATOM     13  C   LIG A   1      -5.875   1.608 130.507  0.00  0.00    +0.066 C 
BRANCH  13  14
ATOM     14  C   LIG A   1      -4.923   2.446 129.659  0.00  0.00    +0.060 C 
ATOM     15  N   LIG A   1      -4.933   2.355 128.366  0.00  0.00    -0.286 NA
ATOM     16  C   LIG A   1      -3.943   3.154 127.590  0.00  0.00    +0.146 C 
ATOM     17  C   LIG A   1      -3.578   4.525 128.203  0.00  0.00    +0.061 C 
ATOM     18  C   LIG A   1      -3.341   4.354 129.658  0.00  0.00    -0.011 A 
ATOM     19  C   LIG A   1      -3.990   3.332 130.319  0.00  0.00    +0.065 A 
ATOM     20  N   LIG A   1      -3.571   3.353 131.620  0.00  0.00    -0.353 N 
ATOM     21  C   LIG A   1      -2.704   4.407 131.821  0.00  0.00    +0.047 A 
ATOM     22  C   LIG A   1      -2.042   4.813 132.987  0.00  0.00    +0.026 A 
ATOM     23  C   LIG A   1      -1.244   5.958 132.916  0.00  0.00    +0.002 A 
ATOM     24  C   LIG A   1      -1.106   6.662 131.723  0.00  0.00    +0.001 A 
ATOM     25  C   LIG A   1      -1.749   6.227 130.555  0.00  0.00    +0.010 A 
ATOM     26  C   LIG A   1      -2.562   5.076 130.602  0.00  0.00    +0.004 A 
ATOM     27  H   LIG A   1      -3.845   2.697 132.338  0.00  0.00    +0.166 HD
ENDBRANCH  13  14
ENDBRANCH   6  13
BRANCH   2  28
ATOM     28  O   LIG A   1      -9.849   4.510 129.320  0.00  0.00    -0.309 OA
BRANCH  28  29
ATOM     29  C   LIG A   1     -10.972   5.026 130.042  0.00  0.00    +0.286 C 
ATOM     30  O   LIG A   1     -12.016   5.506 129.190  0.00  0.00    -0.340 OA
ATOM     31  C   LIG A   1     -11.907   6.843 128.683  0.00  0.00    +0.178 C 
ATOM     32  C   LIG A   1     -11.608   7.894 129.767  0.00  0.00    +0.177 C 
ATOM     33  C   LIG A   1     -10.414   7.498 130.640  0.00  0.00    +0.179 C 
ATOM     34  C   LIG A   1     -10.563   6.053 131.142  0.00  0.00    +0.201 C 
BRANCH  33  35
ATOM     35  O   LIG A   1      -9.178   7.702 129.960  0.00  0.00    -0.386 OA
ATOM     36  H   LIG A   1      -9.190   7.119 129.178  0.00  0.00    +0.210 HD
ENDBRANCH  33  35
BRANCH  32  37
ATOM     37  O   LIG A   1     -12.768   8.015 130.619  0.00  0.00    -0.387 OA
ATOM     38  H   LIG A   1     -13.369   8.645 130.175  0.00  0.00    +0.210 HD
ENDBRANCH  32  37
BRANCH  34  39
ATOM     39  O   LIG A   1     -11.564   6.057 132.184  0.00  0.00    -0.384 OA
ATOM     40  H   LIG A   1     -11.612   6.982 132.516  0.00  0.00    +0.210 HD
ENDBRANCH  34  39
BRANCH  31  41
ATOM     41  C   LIG A   1     -10.983   6.946 127.468  0.00  0.00    +0.190 C 
BRANCH  41  42
ATOM     42  O   LIG A   1     -11.657   6.472 126.303  0.00  0.00    -0.392 OA
ATOM     43  H   LIG A   1     -11.232   6.897 125.536  0.00  0.00    +0.209 HD
ENDBRANCH  41  42
ENDBRANCH  31  41
ENDBRANCH  28  29
ENDBRANCH   2  28
TORSDOF 12
ENDMDL
MODEL 7
REMARK VINA RESULT:      -8.3      4.212      8.314
REMARK  Name = NuBBE_100
REMARK  13 active torsions:
REMARK  status: ('A' for Active; 'I' for Inactive)
REMARK    1  A    between atoms: C_2  and  C_3
REMARK    2  A    between atoms: C_4  and  O_28
REMARK    3  A    between atoms: C_8  and  C_24
REMARK    4  A    between atoms: C_9  and  C_10
REMARK    5  A    between atoms: C_10  and  C_11
REMARK    6  A    between atoms: C_24  and  O_25
REMARK    7  A    between atoms: O_25  and  C_26
REMARK    8  A    between atoms: O_28  and  C_29
REMARK    9  A    between atoms: C_32  and  C_40
REMARK   10  A    between atoms: C_34  and  O_39
REMARK   11  A    between atoms: C_36  and  O_38
REMARK   12  A    between atoms: C_40  and  O_41
REMARK   13  A    between atoms: C_42  and  O_44
REMARK                            x       y       z     vdW  Elec       q    Type
REMARK                         _______ _______ _______ _____ _____    ______ ____
ROOT
ATOM      1  C   LIG A   1      -6.274   4.754 129.611  0.00  0.00    +0.088 C 
ATOM      2  C   LIG A   1      -5.576   4.534 128.236  0.00  0.00    +0.316 C 
ATOM      3  O   LIG A   1      -4.150   4.446 128.468  0.00  0.00    -0.470 OA
ATOM      4  C   LIG A   1      -3.655   5.525 129.173  0.00  0.00    +0.201 C 
ATOM      5  C   LIG A   1      -4.387   6.424 129.890  0.00  0.00    +0.075 C 
ATOM      6  C   LIG A   1      -5.881   6.180 130.125  0.00  0.00    +0.048 C 
ENDROOT
BRANCH   1   8
ATOM      7  C   LIG A   1      -6.807   2.546 130.882  0.00  0.00    +0.004 C 
ATOM      8  C   LIG A   1      -5.992   3.542 130.504  0.00  0.00    -0.025 C 
ENDBRANCH   1   8
BRANCH   5   9
ATOM      9  C   LIG A   1      -3.785   7.731 130.267  0.00  0.00    +0.338 C 
ATOM     10  O   LIG A   1      -4.074   8.832 129.774  0.00  0.00    -0.245 OA
BRANCH   9  11
ATOM     11  O   LIG A   1      -2.735   7.481 131.100  0.00  0.00    -0.465 OA
ATOM     12  C   LIG A   1      -2.966   7.768 132.485  0.00  0.00    +0.280 C 
ENDBRANCH   9  11
ENDBRANCH   5   9
BRANCH   6  13
ATOM     13  C   LIG A   1      -6.384   6.496 131.559  0.00  0.00    +0.066 C 
BRANCH  13  14
ATOM     14  C   LIG A   1      -7.818   6.074 131.866  0.00  0.00    +0.060 C 
ATOM     15  N   LIG A   1      -8.070   5.221 132.808  0.00  0.00    -0.286 NA
ATOM     16  C   LIG A   1      -9.483   4.800 133.027  0.00  0.00    +0.146 C 
ATOM     17  C   LIG A   1     -10.544   5.891 132.752  0.00  0.00    +0.061 C 
ATOM     18  C   LIG A   1     -10.214   6.574 131.477  0.00  0.00    -0.011 A 
ATOM     19  C   LIG A   1      -8.895   6.624 131.075  0.00  0.00    +0.065 A 
ATOM     20  N   LIG A   1      -8.860   7.252 129.861  0.00  0.00    -0.353 N 
ATOM     21  C   LIG A   1     -10.129   7.655 129.500  0.00  0.00    +0.047 A 
ATOM     22  C   LIG A   1     -10.561   8.336 128.353  0.00  0.00    +0.026 A 
ATOM     23  C   LIG A   1     -11.917   8.660 128.263  0.00  0.00    +0.002 A 
ATOM     24  C   LIG A   1     -12.807   8.310 129.275  0.00  0.00    +0.001 A 
ATOM     25  C   LIG A   1     -12.367   7.602 130.403  0.00  0.00    +0.010 A 
ATOM     26  C   LIG A   1     -11.003   7.265 130.519  0.00  0.00    +0.004 A 
ATOM     27  H   LIG A   1      -8.035   7.401 129.298  0.00  0.00    +0.166 HD
ENDBRANCH  13  14
ENDBRANCH   6  13
BRANCH   2  28
ATOM     28  O   LIG A   1      -6.156   3.381 127.576  0.00  0.00    -0.309 OA
BRANCH  28  29
ATOM     29  C   LIG A   1      -7.477   3.623 127.080  0.00  0.00    +0.286 C 
ATOM     30  O   LIG A   1      -8.288   2.446 127.040  0.00  0.00    -0.340 OA
ATOM     31  C   LIG A   1      -8.170   1.588 125.897  0.00  0.00    +0.178 C 
ATOM     32  C   LIG A   1      -8.278   2.329 124.553  0.00  0.00    +0.177 C 
ATOM     33  C   LIG A   1      -7.338   3.535 124.481  0.00  0.00    +0.179 C 
ATOM     34  C   LIG A   1      -7.483   4.413 125.736  0.00  0.00    +0.201 C 
BRANCH  33  35
ATOM     35  O   LIG A   1      -5.987   3.134 124.265  0.00  0.00    -0.386 OA
ATOM     36  H   LIG A   1      -5.514   3.915 123.924  0.00  0.00    +0.210 HD
ENDBRANCH  33  35
BRANCH  32  37
ATOM     37  O   LIG A   1      -9.633   2.806 124.401  0.00  0.00    -0.387 OA
ATOM     38  H   LIG A   1      -9.758   3.495 125.083  0.00  0.00    +0.210 HD
ENDBRANCH  32  37
BRANCH  34  39
ATOM     39  O   LIG A   1      -8.726   5.139 125.615  0.00  0.00    -0.384 OA
ATOM     40  H   LIG A   1      -9.272   4.881 126.392  0.00  0.00    +0.210 HD
ENDBRANCH  34  39
BRANCH  31  41
ATOM     41  C   LIG A   1      -6.962   0.652 125.977  0.00  0.00    +0.190 C 
BRANCH  41  42
ATOM     42  O   LIG A   1      -6.602   0.211 124.669  0.00  0.00    -0.392 OA
ATOM     43  H   LIG A   1      -6.898  -0.714 124.590  0.00  0.00    +0.209 HD
ENDBRANCH  41  42
ENDBRANCH  31  41
ENDBRANCH  28  29
ENDBRANCH   2  28
TORSDOF 12
ENDMDL
MODEL 8
REMARK VINA RESULT:      -8.2      1.830      2.640
REMARK  Name = NuBBE_100
REMARK  13 active torsions:
REMARK  status: ('A' for Active; 'I' for Inactive)
REMARK    1  A    between atoms: C_2  and  C_3
REMARK    2  A    between atoms: C_4  and  O_28
REMARK    3  A    between atoms: C_8  and  C_24
REMARK    4  A    between atoms: C_9  and  C_10
REMARK    5  A    between atoms: C_10  and  C_11
REMARK    6  A    between atoms: C_24  and  O_25
REMARK    7  A    between atoms: O_25  and  C_26
REMARK    8  A    between atoms: O_28  and  C_29
REMARK    9  A    between atoms: C_32  and  C_40
REMARK   10  A    between atoms: C_34  and  O_39
REMARK   11  A    between atoms: C_36  and  O_38
REMARK   12  A    between atoms: C_40  and  O_41
REMARK   13  A    between atoms: C_42  and  O_44
REMARK                            x       y       z     vdW  Elec       q    Type
REMARK                         _______ _______ _______ _____ _____    ______ ____
ROOT
ATOM      1  C   LIG A   1      -7.052   0.716 130.286  0.00  0.00    +0.088 C 
ATOM      2  C   LIG A   1      -7.593   1.396 131.579  0.00  0.00    +0.316 C 
ATOM      3  O   LIG A   1      -6.600   1.230 132.620  0.00  0.00    -0.470 OA
ATOM      4  C   LIG A   1      -6.229  -0.088 132.800  0.00  0.00    +0.201 C 
ATOM      5  C   LIG A   1      -6.456  -1.115 131.934  0.00  0.00    +0.075 C 
ATOM      6  C   LIG A   1      -7.014  -0.829 130.536  0.00  0.00    +0.048 C 
ENDROOT
BRANCH   1   8
ATOM      7  C   LIG A   1      -5.365   1.820 128.639  0.00  0.00    +0.004 C 
ATOM      8  C   LIG A   1      -5.765   1.429 129.859  0.00  0.00    -0.025 C 
ENDBRANCH   1   8
BRANCH   5   9
ATOM      9  C   LIG A   1      -6.357  -2.519 132.415  0.00  0.00    +0.338 C 
ATOM     10  O   LIG A   1      -5.309  -3.173 132.535  0.00  0.00    -0.245 OA
BRANCH   9  11
ATOM     11  O   LIG A   1      -7.624  -3.017 132.512  0.00  0.00    -0.465 OA
ATOM     12  C   LIG A   1      -8.119  -3.179 133.846  0.00  0.00    +0.280 C 
ENDBRANCH   9  11
ENDBRANCH   5   9
BRANCH   6  13
ATOM     13  C   LIG A   1      -6.359  -1.640 129.386  0.00  0.00    +0.066 C 
BRANCH  13  14
ATOM     14  C   LIG A   1      -7.313  -2.483 128.544  0.00  0.00    +0.060 C 
ATOM     15  N   LIG A   1      -8.174  -3.270 129.108  0.00  0.00    -0.286 NA
ATOM     16  C   LIG A   1      -9.042  -4.114 128.237  0.00  0.00    +0.146 C 
ATOM     17  C   LIG A   1      -9.440  -3.474 126.888  0.00  0.00    +0.061 C 
ATOM     18  C   LIG A   1      -8.239  -2.855 126.275  0.00  0.00    -0.011 A 
ATOM     19  C   LIG A   1      -7.229  -2.409 127.102  0.00  0.00    +0.065 A 
ATOM     20  N   LIG A   1      -6.226  -1.932 126.306  0.00  0.00    -0.353 N 
ATOM     21  C   LIG A   1      -6.595  -2.015 124.979  0.00  0.00    +0.047 A 
ATOM     22  C   LIG A   1      -5.892  -1.639 123.827  0.00  0.00    +0.026 A 
ATOM     23  C   LIG A   1      -6.530  -1.796 122.595  0.00  0.00    +0.002 A 
ATOM     24  C   LIG A   1      -7.819  -2.319 122.517  0.00  0.00    +0.001 A 
ATOM     25  C   LIG A   1      -8.500  -2.720 123.675  0.00  0.00    +0.010 A 
ATOM     26  C   LIG A   1      -7.878  -2.568 124.931  0.00  0.00    +0.004 A 
ATOM     27  H   LIG A   1      -5.338  -1.574 126.627  0.00  0.00    +0.166 HD
ENDBRANCH  13  14
ENDBRANCH   6  13
BRANCH   2  28
ATOM     28  O   LIG A   1      -7.949   2.772 131.293  0.00  0.00    -0.309 OA
BRANCH  28  29
ATOM     29  C   LIG A   1      -9.149   3.190 131.951  0.00  0.00    +0.286 C 
ATOM     30  O   LIG A   1     -10.141   3.689 131.050  0.00  0.00    -0.340 OA
ATOM     31  C   LIG A   1     -10.052   5.062 130.648  0.00  0.00    +0.178 C 
ATOM     32  C   LIG A   1      -9.890   6.043 131.823  0.00  0.00    +0.177 C 
ATOM     33  C   LIG A   1      -8.755   5.632 132.765  0.00  0.00    +0.179 C 
ATOM     34  C   LIG A   1      -8.878   4.148 133.151  0.00  0.00    +0.201 C 
BRANCH  33  35
ATOM     35  O   LIG A   1      -7.478   5.933 132.208  0.00  0.00    -0.386 OA
ATOM     36  H   LIG A   1      -7.543   5.764 131.249  0.00  0.00    +0.210 HD
ENDBRANCH  33  35
BRANCH  32  37
ATOM     37  O   LIG A   1     -11.120   6.056 132.581  0.00  0.00    -0.387 OA
ATOM     38  H   LIG A   1     -10.997   6.716 133.290  0.00  0.00    +0.210 HD
ENDBRANCH  32  37
BRANCH  34  39
ATOM     39  O   LIG A   1      -9.960   4.037 134.102  0.00  0.00    -0.384 OA
ATOM     40  H   LIG A   1     -10.499   3.265 133.818  0.00  0.00    +0.210 HD
ENDBRANCH  34  39
BRANCH  31  41
ATOM     41  C   LIG A   1      -9.037   5.291 129.525  0.00  0.00    +0.190 C 
BRANCH  41  42
ATOM     42  O   LIG A   1      -9.634   6.052 128.477  0.00  0.00    -0.392 OA
ATOM     43  H   LIG A   1      -8.923   6.285 127.854  0.00  0.00    +0.209 HD
ENDBRANCH  41  42
ENDBRANCH  31  41
ENDBRANCH  28  29
ENDBRANCH   2  28
TORSDOF 12
ENDMDL
MODEL 9
REMARK VINA RESULT:      -8.1      2.382      3.882
REMARK  Name = NuBBE_100
REMARK  13 active torsions:
REMARK  status: ('A' for Active; 'I' for Inactive)
REMARK    1  A    between atoms: C_2  and  C_3
REMARK    2  A    between atoms: C_4  and  O_28
REMARK    3  A    between atoms: C_8  and  C_24
REMARK    4  A    between atoms: C_9  and  C_10
REMARK    5  A    between atoms: C_10  and  C_11
REMARK    6  A    between atoms: C_24  and  O_25
REMARK    7  A    between atoms: O_25  and  C_26
REMARK    8  A    between atoms: O_28  and  C_29
REMARK    9  A    between atoms: C_32  and  C_40
REMARK   10  A    between atoms: C_34  and  O_39
REMARK   11  A    between atoms: C_36  and  O_38
REMARK   12  A    between atoms: C_40  and  O_41
REMARK   13  A    between atoms: C_42  and  O_44
REMARK                            x       y       z     vdW  Elec       q    Type
REMARK                         _______ _______ _______ _____ _____    ______ ____
ROOT
ATOM      1  C   LIG A   1      -6.665   1.038 130.029  0.00  0.00    +0.088 C 
ATOM      2  C   LIG A   1      -7.877   1.321 130.965  0.00  0.00    +0.316 C 
ATOM      3  O   LIG A   1      -7.814   0.390 132.072  0.00  0.00    -0.470 OA
ATOM      4  C   LIG A   1      -7.727  -0.925 131.661  0.00  0.00    +0.201 C 
ATOM      5  C   LIG A   1      -7.394  -1.359 130.413  0.00  0.00    +0.075 C 
ATOM      6  C   LIG A   1      -6.888  -0.363 129.365  0.00  0.00    +0.048 C 
ENDROOT
BRANCH   1   8
ATOM      7  C   LIG A   1      -4.384   2.166 130.578  0.00  0.00    +0.004 C 
ATOM      8  C   LIG A   1      -5.372   1.289 130.812  0.00  0.00    -0.025 C 
ENDBRANCH   1   8
BRANCH   5   9
ATOM      9  C   LIG A   1      -7.713  -2.755 130.009  0.00  0.00    +0.338 C 
ATOM     10  O   LIG A   1      -8.565  -3.093 129.173  0.00  0.00    -0.245 OA
BRANCH   9  11
ATOM     11  O   LIG A   1      -7.048  -3.595 130.854  0.00  0.00    -0.465 OA
ATOM     12  C   LIG A   1      -5.827  -4.142 130.341  0.00  0.00    +0.280 C 
ENDBRANCH   9  11
ENDBRANCH   5   9
BRANCH   6  13
ATOM     13  C   LIG A   1      -5.690  -0.856 128.510  0.00  0.00    +0.066 C 
BRANCH  13  14
ATOM     14  C   LIG A   1      -5.959  -1.000 127.015  0.00  0.00    +0.060 C 
ATOM     15  N   LIG A   1      -6.151  -2.167 126.486  0.00  0.00    -0.286 NA
ATOM     16  C   LIG A   1      -6.351  -2.254 125.011  0.00  0.00    +0.146 C 
ATOM     17  C   LIG A   1      -7.091  -1.055 124.376  0.00  0.00    +0.061 C 
ATOM     18  C   LIG A   1      -6.529   0.203 124.924  0.00  0.00    -0.011 A 
ATOM     19  C   LIG A   1      -5.975   0.186 126.187  0.00  0.00    +0.065 A 
ATOM     20  N   LIG A   1      -5.487   1.438 126.440  0.00  0.00    -0.353 N 
ATOM     21  C   LIG A   1      -5.765   2.276 125.380  0.00  0.00    +0.047 A 
ATOM     22  C   LIG A   1      -5.464   3.634 125.208  0.00  0.00    +0.026 A 
ATOM     23  C   LIG A   1      -5.908   4.255 124.038  0.00  0.00    +0.002 A 
ATOM     24  C   LIG A   1      -6.618   3.543 123.073  0.00  0.00    +0.001 A 
ATOM     25  C   LIG A   1      -6.885   2.178 123.244  0.00  0.00    +0.010 A 
ATOM     26  C   LIG A   1      -6.450   1.529 124.418  0.00  0.00    +0.004 A 
ATOM     27  H   LIG A   1      -4.990   1.720 127.272  0.00  0.00    +0.166 HD
ENDBRANCH  13  14
ENDBRANCH   6  13
BRANCH   2  28
ATOM     28  O   LIG A   1      -7.881   2.719 131.346  0.00  0.00    -0.309 OA
BRANCH  28  29
ATOM     29  C   LIG A   1      -9.088   3.120 132.003  0.00  0.00    +0.286 C 
ATOM     30  O   LIG A   1     -10.094   3.582 131.098  0.00  0.00    -0.340 OA
ATOM     31  C   LIG A   1     -10.039   4.950 130.675  0.00  0.00    +0.178 C 
ATOM     32  C   LIG A   1      -9.896   5.952 131.835  0.00  0.00    +0.177 C 
ATOM     33  C   LIG A   1      -8.748   5.582 132.778  0.00  0.00    +0.179 C 
ATOM     34  C   LIG A   1      -8.835   4.102 133.187  0.00  0.00    +0.201 C 
BRANCH  33  35
ATOM     35  O   LIG A   1      -7.480   5.904 132.211  0.00  0.00    -0.386 OA
ATOM     36  H   LIG A   1      -7.283   6.823 132.470  0.00  0.00    +0.210 HD
ENDBRANCH  33  35
BRANCH  32  37
ATOM     37  O   LIG A   1     -11.123   5.948 132.597  0.00  0.00    -0.387 OA
ATOM     38  H   LIG A   1     -11.097   5.145 133.153  0.00  0.00    +0.210 HD
ENDBRANCH  32  37
BRANCH  34  39
ATOM     39  O   LIG A   1      -9.910   3.981 134.145  0.00  0.00    -0.384 OA
ATOM     40  H   LIG A   1      -9.750   3.142 134.634  0.00  0.00    +0.210 HD
ENDBRANCH  34  39
BRANCH  31  41
ATOM     41  C   LIG A   1      -9.034   5.185 129.545  0.00  0.00    +0.190 C 
BRANCH  41  42
ATOM     42  O   LIG A   1      -8.928   4.013 128.738  0.00  0.00    -0.392 OA
ATOM     43  H   LIG A   1      -9.115   3.252 129.317  0.00  0.00    +0.209 HD
ENDBRANCH  41  42
ENDBRANCH  31  41
ENDBRANCH  28  29
ENDBRANCH   2  28
TORSDOF 12
ENDMDL
