MODEL 1
REMARK VINA RESULT:      -7.2      0.000      0.000
REMARK  Name = NuBBE_2080
REMARK  8 active torsions:
REMARK  status: ('A' for Active; 'I' for Inactive)
REMARK    1  A    between atoms: O_1  and  C_2
REMARK    2  A    between atoms: C_4  and  O_5
REMARK    3  A    between atoms: C_6  and  C_7
REMARK    4  A    between atoms: C_7  and  C_8
REMARK    5  A    between atoms: C_8  and  C_9
REMARK    6  A    between atoms: C_9  and  C_10
REMARK    7  A    between atoms: C_18  and  O_19
REMARK    8  A    between atoms: O_19  and  C_20
REMARK                            x       y       z     vdW  Elec       q    Type
REMARK                         _______ _______ _______ _____ _____    ______ ____
ROOT
ATOM      1  C   LIG A   1      -9.373   0.778 122.921  0.00  0.00    +0.010 C 
ENDROOT
BRANCH   1   2
ATOM      2  C   LIG A   1      -9.383  -0.138 124.156  0.00  0.00    +0.039 C 
BRANCH   2   6
ATOM      3  C   LIG A   1      -6.319  -3.181 123.997  0.00  0.00    +0.120 A 
ATOM      4  C   LIG A   1      -7.605  -3.535 124.389  0.00  0.00    +0.091 A 
ATOM      5  C   LIG A   1      -8.593  -2.546 124.451  0.00  0.00    +0.123 A 
ATOM      6  C   LIG A   1      -8.316  -1.212 124.120  0.00  0.00    -0.006 A 
ATOM      7  C   LIG A   1      -7.010  -0.890 123.713  0.00  0.00    +0.011 A 
ATOM      8  C   LIG A   1      -6.013  -1.868 123.663  0.00  0.00    +0.046 A 
BRANCH   3   9
ATOM      9  O   LIG A   1      -5.316  -4.103 123.924  0.00  0.00    -0.507 OA
ATOM     10  H   LIG A   1      -5.626  -4.938 124.309  0.00  0.00    +0.292 HD
ENDBRANCH   3   9
BRANCH   5  11
ATOM     11  O   LIG A   1      -9.859  -2.883 124.846  0.00  0.00    -0.506 OA
ATOM     12  H   LIG A   1     -10.457  -2.142 124.660  0.00  0.00    +0.292 HD
ENDBRANCH   5  11
ENDBRANCH   2   6
ENDBRANCH   1   2
BRANCH   1  13
ATOM     13  C   LIG A   1      -9.129   2.237 123.319  0.00  0.00    +0.039 C 
BRANCH  13  14
ATOM     14  C   LIG A   1      -8.156   2.959 122.404  0.00  0.00    -0.002 A 
ATOM     15  C   LIG A   1      -8.623   3.420 121.156  0.00  0.00    +0.056 A 
ATOM     16  C   LIG A   1      -7.720   4.016 120.299  0.00  0.00    +0.167 A 
ATOM     17  O   LIG A   1      -7.994   4.470 119.045  0.00  0.00    -0.453 OA
ATOM     18  C   LIG A   1      -6.681   4.898 118.624  0.00  0.00    +0.466 C 
ATOM     19  O   LIG A   1      -5.679   4.771 119.655  0.00  0.00    -0.453 OA
ATOM     20  C   LIG A   1      -6.408   4.187 120.644  0.00  0.00    +0.170 A 
ATOM     21  C   LIG A   1      -5.914   3.784 121.866  0.00  0.00    +0.095 A 
ATOM     22  C   LIG A   1      -6.795   3.153 122.759  0.00  0.00    +0.127 A 
BRANCH  22  23
ATOM     23  O   LIG A   1      -6.413   2.674 123.988  0.00  0.00    -0.495 OA
ATOM     24  C   LIG A   1      -5.762   3.591 124.861  0.00  0.00    +0.277 C 
ENDBRANCH  22  23
ENDBRANCH  13  14
ENDBRANCH   1  13
TORSDOF 7
ENDMDL
MODEL 2
REMARK VINA RESULT:      -7.1      1.660      7.139
REMARK  Name = NuBBE_2080
REMARK  8 active torsions:
REMARK  status: ('A' for Active; 'I' for Inactive)
REMARK    1  A    between atoms: O_1  and  C_2
REMARK    2  A    between atoms: C_4  and  O_5
REMARK    3  A    between atoms: C_6  and  C_7
REMARK    4  A    between atoms: C_7  and  C_8
REMARK    5  A    between atoms: C_8  and  C_9
REMARK    6  A    between atoms: C_9  and  C_10
REMARK    7  A    between atoms: C_18  and  O_19
REMARK    8  A    between atoms: O_19  and  C_20
REMARK                            x       y       z     vdW  Elec       q    Type
REMARK                         _______ _______ _______ _____ _____    ______ ____
ROOT
ATOM      1  C   LIG A   1      -8.086   3.135 122.855  0.00  0.00    +0.010 C 
ENDROOT
BRANCH   1   2
ATOM      2  C   LIG A   1      -6.651   3.030 122.309  0.00  0.00    +0.039 C 
BRANCH   2   6
ATOM      3  C   LIG A   1      -5.965   5.448 118.794  0.00  0.00    +0.120 A 
ATOM      4  C   LIG A   1      -5.027   5.462 119.820  0.00  0.00    +0.091 A 
ATOM      5  C   LIG A   1      -5.256   4.688 120.962  0.00  0.00    +0.123 A 
ATOM      6  C   LIG A   1      -6.405   3.894 121.090  0.00  0.00    -0.006 A 
ATOM      7  C   LIG A   1      -7.326   3.889 120.029  0.00  0.00    +0.011 A 
ATOM      8  C   LIG A   1      -7.112   4.672 118.891  0.00  0.00    +0.046 A 
BRANCH   3   9
ATOM      9  O   LIG A   1      -5.794   6.188 117.660  0.00  0.00    -0.507 OA
ATOM     10  H   LIG A   1      -6.648   6.569 117.401  0.00  0.00    +0.292 HD
ENDBRANCH   3   9
BRANCH   5  11
ATOM     11  O   LIG A   1      -4.344   4.704 121.981  0.00  0.00    -0.506 OA
ATOM     12  H   LIG A   1      -3.912   3.836 122.035  0.00  0.00    +0.292 HD
ENDBRANCH   5  11
ENDBRANCH   2   6
ENDBRANCH   1   2
BRANCH   1  13
ATOM     13  C   LIG A   1      -8.205   2.459 124.225  0.00  0.00    +0.039 C 
BRANCH  13  14
ATOM     14  C   LIG A   1      -8.063   0.949 124.168  0.00  0.00    -0.002 A 
ATOM     15  C   LIG A   1      -9.101   0.198 123.580  0.00  0.00    +0.056 A 
ATOM     16  C   LIG A   1      -9.000  -1.179 123.590  0.00  0.00    +0.167 A 
ATOM     17  O   LIG A   1      -9.931  -2.048 123.110  0.00  0.00    -0.453 OA
ATOM     18  C   LIG A   1      -9.324  -3.310 123.464  0.00  0.00    +0.466 C 
ATOM     19  O   LIG A   1      -8.019  -3.171 124.064  0.00  0.00    -0.453 OA
ATOM     20  C   LIG A   1      -7.917  -1.815 124.131  0.00  0.00    +0.170 A 
ATOM     21  C   LIG A   1      -6.863  -1.122 124.686  0.00  0.00    +0.095 A 
ATOM     22  C   LIG A   1      -6.937   0.280 124.715  0.00  0.00    +0.127 A 
BRANCH  22  23
ATOM     23  O   LIG A   1      -5.968   1.077 125.276  0.00  0.00    -0.495 OA
ATOM     24  C   LIG A   1      -5.736   0.920 126.671  0.00  0.00    +0.277 C 
ENDBRANCH  22  23
ENDBRANCH  13  14
ENDBRANCH   1  13
TORSDOF 7
ENDMDL
MODEL 3
REMARK VINA RESULT:      -7.1      3.425      7.322
REMARK  Name = NuBBE_2080
REMARK  8 active torsions:
REMARK  status: ('A' for Active; 'I' for Inactive)
REMARK    1  A    between atoms: O_1  and  C_2
REMARK    2  A    between atoms: C_4  and  O_5
REMARK    3  A    between atoms: C_6  and  C_7
REMARK    4  A    between atoms: C_7  and  C_8
REMARK    5  A    between atoms: C_8  and  C_9
REMARK    6  A    between atoms: C_9  and  C_10
REMARK    7  A    between atoms: C_18  and  O_19
REMARK    8  A    between atoms: O_19  and  C_20
REMARK                            x       y       z     vdW  Elec       q    Type
REMARK                         _______ _______ _______ _____ _____    ______ ____
ROOT
ATOM      1  C   LIG A   1      -9.299  -2.675 123.581  0.00  0.00    +0.010 C 
ENDROOT
BRANCH   1   2
ATOM      2  C   LIG A   1      -8.576  -1.596 122.757  0.00  0.00    +0.039 C 
BRANCH   2   6
ATOM      3  C   LIG A   1      -8.911   2.352 124.481  0.00  0.00    +0.120 A 
ATOM      4  C   LIG A   1      -9.961   1.855 123.718  0.00  0.00    +0.091 A 
ATOM      5  C   LIG A   1      -9.846   0.582 123.151  0.00  0.00    +0.123 A 
ATOM      6  C   LIG A   1      -8.701  -0.205 123.342  0.00  0.00    -0.006 A 
ATOM      7  C   LIG A   1      -7.663   0.321 124.131  0.00  0.00    +0.011 A 
ATOM      8  C   LIG A   1      -7.763   1.598 124.688  0.00  0.00    +0.046 A 
BRANCH   3   9
ATOM      9  O   LIG A   1      -8.967   3.591 125.053  0.00  0.00    -0.507 OA
ATOM     10  H   LIG A   1      -8.145   4.065 124.858  0.00  0.00    +0.292 HD
ENDBRANCH   3   9
BRANCH   5  11
ATOM     11  O   LIG A   1     -10.871   0.088 122.391  0.00  0.00    -0.506 OA
ATOM     12  H   LIG A   1     -11.642  -0.067 122.959  0.00  0.00    +0.292 HD
ENDBRANCH   5  11
ENDBRANCH   2   6
ENDBRANCH   1   2
BRANCH   1  13
ATOM     13  C   LIG A   1      -8.302  -3.675 124.175  0.00  0.00    +0.039 C 
BRANCH  13  14
ATOM     14  C   LIG A   1      -7.588  -3.156 125.410  0.00  0.00    -0.002 A 
ATOM     15  C   LIG A   1      -8.298  -3.109 126.627  0.00  0.00    +0.056 A 
ATOM     16  C   LIG A   1      -7.667  -2.574 127.732  0.00  0.00    +0.167 A 
ATOM     17  O   LIG A   1      -8.223  -2.412 128.965  0.00  0.00    -0.453 OA
ATOM     18  C   LIG A   1      -7.143  -1.749 129.658  0.00  0.00    +0.466 C 
ATOM     19  O   LIG A   1      -5.949  -1.609 128.860  0.00  0.00    -0.453 OA
ATOM     20  C   LIG A   1      -6.378  -2.119 127.674  0.00  0.00    +0.170 A 
ATOM     21  C   LIG A   1      -5.634  -2.177 126.516  0.00  0.00    +0.095 A 
ATOM     22  C   LIG A   1      -6.246  -2.694 125.363  0.00  0.00    +0.127 A 
BRANCH  22  23
ATOM     23  O   LIG A   1      -5.621  -2.766 124.141  0.00  0.00    -0.495 OA
ATOM     24  C   LIG A   1      -4.706  -3.840 123.951  0.00  0.00    +0.277 C 
ENDBRANCH  22  23
ENDBRANCH  13  14
ENDBRANCH   1  13
TORSDOF 7
ENDMDL
MODEL 4
REMARK VINA RESULT:      -6.9     10.039     12.216
REMARK  Name = NuBBE_2080
REMARK  8 active torsions:
REMARK  status: ('A' for Active; 'I' for Inactive)
REMARK    1  A    between atoms: O_1  and  C_2
REMARK    2  A    between atoms: C_4  and  O_5
REMARK    3  A    between atoms: C_6  and  C_7
REMARK    4  A    between atoms: C_7  and  C_8
REMARK    5  A    between atoms: C_8  and  C_9
REMARK    6  A    between atoms: C_9  and  C_10
REMARK    7  A    between atoms: C_18  and  O_19
REMARK    8  A    between atoms: O_19  and  C_20
REMARK                            x       y       z     vdW  Elec       q    Type
REMARK                         _______ _______ _______ _____ _____    ______ ____
ROOT
ATOM      1  C   LIG A   1      -8.605   6.438 131.615  0.00  0.00    +0.010 C 
ENDROOT
BRANCH   1   2
ATOM      2  C   LIG A   1      -9.695   5.840 130.709  0.00  0.00    +0.039 C 
BRANCH   2   6
ATOM      3  C   LIG A   1     -12.390   8.828 129.133  0.00  0.00    +0.120 A 
ATOM      4  C   LIG A   1     -12.769   8.096 130.253  0.00  0.00    +0.091 A 
ATOM      5  C   LIG A   1     -11.901   7.122 130.755  0.00  0.00    +0.123 A 
ATOM      6  C   LIG A   1     -10.656   6.873 130.159  0.00  0.00    -0.006 A 
ATOM      7  C   LIG A   1     -10.296   7.640 129.038  0.00  0.00    +0.011 A 
ATOM      8  C   LIG A   1     -11.164   8.605 128.520  0.00  0.00    +0.046 A 
BRANCH   3   9
ATOM      9  O   LIG A   1     -13.201   9.787 128.599  0.00  0.00    -0.507 OA
ATOM     10  H   LIG A   1     -13.994   9.362 128.237  0.00  0.00    +0.292 HD
ENDBRANCH   3   9
BRANCH   5  11
ATOM     11  O   LIG A   1     -12.270   6.390 131.850  0.00  0.00    -0.506 OA
ATOM     12  H   LIG A   1     -13.229   6.468 131.976  0.00  0.00    +0.292 HD
ENDBRANCH   5  11
ENDBRANCH   2   6
ENDBRANCH   1   2
BRANCH   1  13
ATOM     13  C   LIG A   1      -7.359   6.811 130.806  0.00  0.00    +0.039 C 
BRANCH  13  14
ATOM     14  C   LIG A   1      -6.064   6.655 131.583  0.00  0.00    -0.002 A 
ATOM     15  C   LIG A   1      -6.098   5.968 132.814  0.00  0.00    +0.056 A 
ATOM     16  C   LIG A   1      -4.933   5.886 133.549  0.00  0.00    +0.167 A 
ATOM     17  O   LIG A   1      -4.805   5.303 134.773  0.00  0.00    -0.453 OA
ATOM     18  C   LIG A   1      -3.421   5.595 135.063  0.00  0.00    +0.466 C 
ATOM     19  O   LIG A   1      -2.737   6.263 133.982  0.00  0.00    -0.453 OA
ATOM     20  C   LIG A   1      -3.761   6.429 133.102  0.00  0.00    +0.170 A 
ATOM     21  C   LIG A   1      -3.672   7.080 131.890  0.00  0.00    +0.095 A 
ATOM     22  C   LIG A   1      -4.840   7.205 131.120  0.00  0.00    +0.127 A 
BRANCH  22  23
ATOM     23  O   LIG A   1      -4.885   7.864 129.916  0.00  0.00    -0.495 OA
ATOM     24  C   LIG A   1      -3.729   7.775 129.090  0.00  0.00    +0.277 C 
ENDBRANCH  22  23
ENDBRANCH  13  14
ENDBRANCH   1  13
TORSDOF 7
ENDMDL
MODEL 5
REMARK VINA RESULT:      -6.8      9.811     11.164
REMARK  Name = NuBBE_2080
REMARK  8 active torsions:
REMARK  status: ('A' for Active; 'I' for Inactive)
REMARK    1  A    between atoms: O_1  and  C_2
REMARK    2  A    between atoms: C_4  and  O_5
REMARK    3  A    between atoms: C_6  and  C_7
REMARK    4  A    between atoms: C_7  and  C_8
REMARK    5  A    between atoms: C_8  and  C_9
REMARK    6  A    between atoms: C_9  and  C_10
REMARK    7  A    between atoms: C_18  and  O_19
REMARK    8  A    between atoms: O_19  and  C_20
REMARK                            x       y       z     vdW  Elec       q    Type
REMARK                         _______ _______ _______ _____ _____    ______ ____
ROOT
ATOM      1  C   LIG A   1      -7.904   6.885 131.090  0.00  0.00    +0.010 C 
ENDROOT
BRANCH   1   2
ATOM      2  C   LIG A   1      -9.295   6.368 131.494  0.00  0.00    +0.039 C 
BRANCH   2   6
ATOM      3  C   LIG A   1     -12.469   8.048 129.090  0.00  0.00    +0.120 A 
ATOM      4  C   LIG A   1     -12.794   7.320 130.230  0.00  0.00    +0.091 A 
ATOM      5  C   LIG A   1     -11.766   6.768 131.000  0.00  0.00    +0.123 A 
ATOM      6  C   LIG A   1     -10.419   6.937 130.653  0.00  0.00    -0.006 A 
ATOM      7  C   LIG A   1     -10.122   7.691 129.504  0.00  0.00    +0.011 A 
ATOM      8  C   LIG A   1     -11.144   8.233 128.720  0.00  0.00    +0.046 A 
BRANCH   3   9
ATOM      9  O   LIG A   1     -13.432   8.604 128.299  0.00  0.00    -0.507 OA
ATOM     10  H   LIG A   1     -13.303   8.302 127.386  0.00  0.00    +0.292 HD
ENDBRANCH   3   9
BRANCH   5  11
ATOM     11  O   LIG A   1     -12.078   6.043 132.117  0.00  0.00    -0.506 OA
ATOM     12  H   LIG A   1     -11.553   5.226 132.122  0.00  0.00    +0.292 HD
ENDBRANCH   5  11
ENDBRANCH   2   6
ENDBRANCH   1   2
BRANCH   1  13
ATOM     13  C   LIG A   1      -6.820   6.341 132.026  0.00  0.00    +0.039 C 
BRANCH  13  14
ATOM     14  C   LIG A   1      -5.423   6.407 131.435  0.00  0.00    -0.002 A 
ATOM     15  C   LIG A   1      -5.282   6.771 130.081  0.00  0.00    +0.056 A 
ATOM     16  C   LIG A   1      -4.017   6.766 129.529  0.00  0.00    +0.167 A 
ATOM     17  O   LIG A   1      -3.714   7.043 128.231  0.00  0.00    -0.453 OA
ATOM     18  C   LIG A   1      -2.290   6.801 128.233  0.00  0.00    +0.466 C 
ATOM     19  O   LIG A   1      -1.766   6.471 129.536  0.00  0.00    -0.453 OA
ATOM     20  C   LIG A   1      -2.913   6.441 130.268  0.00  0.00    +0.170 A 
ATOM     21  C   LIG A   1      -2.998   6.112 131.604  0.00  0.00    +0.095 A 
ATOM     22  C   LIG A   1      -4.269   6.085 132.198  0.00  0.00    +0.127 A 
BRANCH  22  23
ATOM     23  O   LIG A   1      -4.485   5.735 133.509  0.00  0.00    -0.495 OA
ATOM     24  C   LIG A   1      -3.775   4.602 133.996  0.00  0.00    +0.277 C 
ENDBRANCH  22  23
ENDBRANCH  13  14
ENDBRANCH   1  13
TORSDOF 7
ENDMDL
MODEL 6
REMARK VINA RESULT:      -6.8      4.438      6.716
REMARK  Name = NuBBE_2080
REMARK  8 active torsions:
REMARK  status: ('A' for Active; 'I' for Inactive)
REMARK    1  A    between atoms: O_1  and  C_2
REMARK    2  A    between atoms: C_4  and  O_5
REMARK    3  A    between atoms: C_6  and  C_7
REMARK    4  A    between atoms: C_7  and  C_8
REMARK    5  A    between atoms: C_8  and  C_9
REMARK    6  A    between atoms: C_9  and  C_10
REMARK    7  A    between atoms: C_18  and  O_19
REMARK    8  A    between atoms: O_19  and  C_20
REMARK                            x       y       z     vdW  Elec       q    Type
REMARK                         _______ _______ _______ _____ _____    ______ ____
ROOT
ATOM      1  C   LIG A   1      -9.079  -4.023 127.914  0.00  0.00    +0.010 C 
ENDROOT
BRANCH   1   2
ATOM      2  C   LIG A   1      -8.511  -2.957 128.866  0.00  0.00    +0.039 C 
BRANCH   2   6
ATOM      3  C   LIG A   1      -4.284  -3.389 129.658  0.00  0.00    +0.120 A 
ATOM      4  C   LIG A   1      -4.710  -2.414 128.763  0.00  0.00    +0.091 A 
ATOM      5  C   LIG A   1      -6.077  -2.283 128.499  0.00  0.00    +0.123 A 
ATOM      6  C   LIG A   1      -7.025  -3.107 129.122  0.00  0.00    -0.006 A 
ATOM      7  C   LIG A   1      -6.564  -4.073 130.033  0.00  0.00    +0.011 A 
ATOM      8  C   LIG A   1      -5.199  -4.221 130.290  0.00  0.00    +0.046 A 
BRANCH   3   9
ATOM      9  O   LIG A   1      -2.962  -3.564 129.948  0.00  0.00    -0.507 OA
ATOM     10  H   LIG A   1      -2.431  -3.232 129.208  0.00  0.00    +0.292 HD
ENDBRANCH   3   9
BRANCH   5  11
ATOM     11  O   LIG A   1      -6.504  -1.333 127.612  0.00  0.00    -0.506 OA
ATOM     12  H   LIG A   1      -5.782  -0.705 127.448  0.00  0.00    +0.292 HD
ENDBRANCH   5  11
ENDBRANCH   2   6
ENDBRANCH   1   2
BRANCH   1  13
ATOM     13  C   LIG A   1      -9.736  -3.376 126.691  0.00  0.00    +0.039 C 
BRANCH  13  14
ATOM     14  C   LIG A   1      -8.738  -2.890 125.654  0.00  0.00    -0.002 A 
ATOM     15  C   LIG A   1      -7.737  -3.781 125.217  0.00  0.00    +0.056 A 
ATOM     16  C   LIG A   1      -6.792  -3.315 124.325  0.00  0.00    +0.167 A 
ATOM     17  O   LIG A   1      -5.736  -4.027 123.842  0.00  0.00    -0.453 OA
ATOM     18  C   LIG A   1      -5.078  -3.018 123.046  0.00  0.00    +0.466 C 
ATOM     19  O   LIG A   1      -5.793  -1.765 123.002  0.00  0.00    -0.453 OA
ATOM     20  C   LIG A   1      -6.823  -2.034 123.848  0.00  0.00    +0.170 A 
ATOM     21  C   LIG A   1      -7.803  -1.139 124.221  0.00  0.00    +0.095 A 
ATOM     22  C   LIG A   1      -8.771  -1.566 125.144  0.00  0.00    +0.127 A 
BRANCH  22  23
ATOM     23  O   LIG A   1      -9.773  -0.755 125.620  0.00  0.00    -0.495 OA
ATOM     24  C   LIG A   1      -9.655   0.638 125.349  0.00  0.00    +0.277 C 
ENDBRANCH  22  23
ENDBRANCH  13  14
ENDBRANCH   1  13
TORSDOF 7
ENDMDL
MODEL 7
REMARK VINA RESULT:      -6.7      4.681      8.701
REMARK  Name = NuBBE_2080
REMARK  8 active torsions:
REMARK  status: ('A' for Active; 'I' for Inactive)
REMARK    1  A    between atoms: O_1  and  C_2
REMARK    2  A    between atoms: C_4  and  O_5
REMARK    3  A    between atoms: C_6  and  C_7
REMARK    4  A    between atoms: C_7  and  C_8
REMARK    5  A    between atoms: C_8  and  C_9
REMARK    6  A    between atoms: C_9  and  C_10
REMARK    7  A    between atoms: C_18  and  O_19
REMARK    8  A    between atoms: O_19  and  C_20
REMARK                            x       y       z     vdW  Elec       q    Type
REMARK                         _______ _______ _______ _____ _____    ______ ____
ROOT
ATOM      1  C   LIG A   1      -8.799  -3.879 127.795  0.00  0.00    +0.010 C 
ENDROOT
BRANCH   1   2
ATOM      2  C   LIG A   1      -9.591  -3.423 126.558  0.00  0.00    +0.039 C 
BRANCH   2   6
ATOM      3  C   LIG A   1      -7.041  -1.923 123.408  0.00  0.00    +0.120 A 
ATOM      4  C   LIG A   1      -7.970  -1.069 123.992  0.00  0.00    +0.091 A 
ATOM      5  C   LIG A   1      -8.802  -1.560 125.003  0.00  0.00    +0.123 A 
ATOM      6  C   LIG A   1      -8.715  -2.888 125.445  0.00  0.00    -0.006 A 
ATOM      7  C   LIG A   1      -7.754  -3.721 124.845  0.00  0.00    +0.011 A 
ATOM      8  C   LIG A   1      -6.930  -3.243 123.823  0.00  0.00    +0.046 A 
BRANCH   3   9
ATOM      9  O   LIG A   1      -6.208  -1.499 122.413  0.00  0.00    -0.507 OA
ATOM     10  H   LIG A   1      -6.601  -0.724 121.983  0.00  0.00    +0.292 HD
ENDBRANCH   3   9
BRANCH   5  11
ATOM     11  O   LIG A   1      -9.727  -0.730 125.576  0.00  0.00    -0.506 OA
ATOM     12  H   LIG A   1     -10.098  -1.162 126.361  0.00  0.00    +0.292 HD
ENDBRANCH   5  11
ENDBRANCH   2   6
ENDBRANCH   1   2
BRANCH   1  13
ATOM     13  C   LIG A   1      -8.197  -2.682 128.538  0.00  0.00    +0.039 C 
BRANCH  13  14
ATOM     14  C   LIG A   1      -6.822  -2.959 129.117  0.00  0.00    -0.002 A 
ATOM     15  C   LIG A   1      -6.737  -3.525 130.406  0.00  0.00    +0.056 A 
ATOM     16  C   LIG A   1      -5.486  -3.713 130.957  0.00  0.00    +0.167 A 
ATOM     17  O   LIG A   1      -5.230  -4.201 132.202  0.00  0.00    -0.453 OA
ATOM     18  C   LIG A   1      -3.791  -4.091 132.241  0.00  0.00    +0.466 C 
ATOM     19  O   LIG A   1      -3.218  -3.627 131.000  0.00  0.00    -0.453 OA
ATOM     20  C   LIG A   1      -4.345  -3.389 130.276  0.00  0.00    +0.170 A 
ATOM     21  C   LIG A   1      -4.378  -2.865 129.002  0.00  0.00    +0.095 A 
ATOM     22  C   LIG A   1      -5.632  -2.638 128.413  0.00  0.00    +0.127 A 
BRANCH  22  23
ATOM     23  O   LIG A   1      -5.793  -2.085 127.166  0.00  0.00    -0.495 OA
ATOM     24  C   LIG A   1      -5.530  -0.692 127.041  0.00  0.00    +0.277 C 
ENDBRANCH  22  23
ENDBRANCH  13  14
ENDBRANCH   1  13
TORSDOF 7
ENDMDL
MODEL 8
REMARK VINA RESULT:      -6.7      8.649     10.354
REMARK  Name = NuBBE_2080
REMARK  8 active torsions:
REMARK  status: ('A' for Active; 'I' for Inactive)
REMARK    1  A    between atoms: O_1  and  C_2
REMARK    2  A    between atoms: C_4  and  O_5
REMARK    3  A    between atoms: C_6  and  C_7
REMARK    4  A    between atoms: C_7  and  C_8
REMARK    5  A    between atoms: C_8  and  C_9
REMARK    6  A    between atoms: C_9  and  C_10
REMARK    7  A    between atoms: C_18  and  O_19
REMARK    8  A    between atoms: O_19  and  C_20
REMARK                            x       y       z     vdW  Elec       q    Type
REMARK                         _______ _______ _______ _____ _____    ______ ____
ROOT
ATOM      1  C   LIG A   1      -6.764   7.193 130.768  0.00  0.00    +0.010 C 
ENDROOT
BRANCH   1   2
ATOM      2  C   LIG A   1      -5.335   6.885 131.247  0.00  0.00    +0.039 C 
BRANCH   2   6
ATOM      3  C   LIG A   1      -2.813   5.074 128.241  0.00  0.00    +0.120 A 
ATOM      4  C   LIG A   1      -3.057   6.442 128.186  0.00  0.00    +0.091 A 
ATOM      5  C   LIG A   1      -3.883   7.024 129.153  0.00  0.00    +0.123 A 
ATOM      6  C   LIG A   1      -4.462   6.262 130.178  0.00  0.00    -0.006 A 
ATOM      7  C   LIG A   1      -4.183   4.885 130.214  0.00  0.00    +0.011 A 
ATOM      8  C   LIG A   1      -3.372   4.292 129.242  0.00  0.00    +0.046 A 
BRANCH   3   9
ATOM      9  O   LIG A   1      -2.020   4.453 127.320  0.00  0.00    -0.507 OA
ATOM     10  H   LIG A   1      -1.226   4.116 127.764  0.00  0.00    +0.292 HD
ENDBRANCH   3   9
BRANCH   5  11
ATOM     11  O   LIG A   1      -4.136   8.368 129.102  0.00  0.00    -0.506 OA
ATOM     12  H   LIG A   1      -3.294   8.851 129.119  0.00  0.00    +0.292 HD
ENDBRANCH   5  11
ENDBRANCH   2   6
ENDBRANCH   1   2
BRANCH   1  13
ATOM     13  C   LIG A   1      -7.797   6.387 131.562  0.00  0.00    +0.039 C 
BRANCH  13  14
ATOM     14  C   LIG A   1      -9.163   6.339 130.901  0.00  0.00    -0.002 A 
ATOM     15  C   LIG A   1      -9.535   7.399 130.050  0.00  0.00    +0.056 A 
ATOM     16  C   LIG A   1     -10.803   7.385 129.504  0.00  0.00    +0.167 A 
ATOM     17  O   LIG A   1     -11.335   8.351 128.705  0.00  0.00    -0.453 OA
ATOM     18  C   LIG A   1     -12.673   7.839 128.524  0.00  0.00    +0.466 C 
ATOM     19  O   LIG A   1     -12.883   6.552 129.141  0.00  0.00    -0.453 OA
ATOM     20  C   LIG A   1     -11.681   6.366 129.751  0.00  0.00    +0.170 A 
ATOM     21  C   LIG A   1     -11.349   5.292 130.548  0.00  0.00    +0.095 A 
ATOM     22  C   LIG A   1     -10.076   5.278 131.140  0.00  0.00    +0.127 A 
BRANCH  22  23
ATOM     23  O   LIG A   1      -9.645   4.283 131.984  0.00  0.00    -0.495 OA
ATOM     24  C   LIG A   1      -9.600   2.964 131.451  0.00  0.00    +0.277 C 
ENDBRANCH  22  23
ENDBRANCH  13  14
ENDBRANCH   1  13
TORSDOF 7
ENDMDL
MODEL 9
REMARK VINA RESULT:      -6.7      9.819     11.834
REMARK  Name = NuBBE_2080
REMARK  8 active torsions:
REMARK  status: ('A' for Active; 'I' for Inactive)
REMARK    1  A    between atoms: O_1  and  C_2
REMARK    2  A    between atoms: C_4  and  O_5
REMARK    3  A    between atoms: C_6  and  C_7
REMARK    4  A    between atoms: C_7  and  C_8
REMARK    5  A    between atoms: C_8  and  C_9
REMARK    6  A    between atoms: C_9  and  C_10
REMARK    7  A    between atoms: C_18  and  O_19
REMARK    8  A    between atoms: O_19  and  C_20
REMARK                            x       y       z     vdW  Elec       q    Type
REMARK                         _______ _______ _______ _____ _____    ______ ____
ROOT
ATOM      1  C   LIG A   1      -8.822   5.566 130.257  0.00  0.00    +0.010 C 
ENDROOT
BRANCH   1   2
ATOM      2  C   LIG A   1     -10.330   5.341 130.052  0.00  0.00    +0.039 C 
BRANCH   2   6
ATOM      3  C   LIG A   1     -12.461   9.003 129.203  0.00  0.00    +0.120 A 
ATOM      4  C   LIG A   1     -12.776   8.286 130.352  0.00  0.00    +0.091 A 
ATOM      5  C   LIG A   1     -12.093   7.096 130.619  0.00  0.00    +0.123 A 
ATOM      6  C   LIG A   1     -11.096   6.614 129.760  0.00  0.00    -0.006 A 
ATOM      7  C   LIG A   1     -10.790   7.370 128.615  0.00  0.00    +0.011 A 
ATOM      8  C   LIG A   1     -11.478   8.553 128.332  0.00  0.00    +0.046 A 
BRANCH   3   9
ATOM      9  O   LIG A   1     -13.100  10.168 128.891  0.00  0.00    -0.507 OA
ATOM     10  H   LIG A   1     -13.090  10.284 127.928  0.00  0.00    +0.292 HD
ENDBRANCH   3   9
BRANCH   5  11
ATOM     11  O   LIG A   1     -12.404   6.379 131.742  0.00  0.00    -0.506 OA
ATOM     12  H   LIG A   1     -11.747   6.568 132.432  0.00  0.00    +0.292 HD
ENDBRANCH   5  11
ENDBRANCH   2   6
ENDBRANCH   1   2
BRANCH   1  13
ATOM     13  C   LIG A   1      -8.546   6.273 131.587  0.00  0.00    +0.039 C 
BRANCH  13  14
ATOM     14  C   LIG A   1      -7.070   6.350 131.937  0.00  0.00    -0.002 A 
ATOM     15  C   LIG A   1      -6.194   6.966 131.020  0.00  0.00    +0.056 A 
ATOM     16  C   LIG A   1      -4.844   6.975 131.310  0.00  0.00    +0.167 A 
ATOM     17  O   LIG A   1      -3.863   7.483 130.514  0.00  0.00    -0.453 OA
ATOM     18  C   LIG A   1      -2.691   7.137 131.284  0.00  0.00    +0.466 C 
ATOM     19  O   LIG A   1      -2.998   6.514 132.548  0.00  0.00    -0.453 OA
ATOM     20  C   LIG A   1      -4.354   6.426 132.462  0.00  0.00    +0.170 A 
ATOM     21  C   LIG A   1      -5.175   5.843 133.403  0.00  0.00    +0.095 A 
ATOM     22  C   LIG A   1      -6.553   5.794 133.137  0.00  0.00    +0.127 A 
BRANCH  22  23
ATOM     23  O   LIG A   1      -7.466   5.206 133.978  0.00  0.00    -0.495 OA
ATOM     24  C   LIG A   1      -7.302   5.444 135.371  0.00  0.00    +0.277 C 
ENDBRANCH  22  23
ENDBRANCH  13  14
ENDBRANCH   1  13
TORSDOF 7
ENDMDL
