MODEL 1
REMARK VINA RESULT:      -8.0      0.000      0.000
REMARK  Name = NuBBE_1306
REMARK  11 active torsions:
REMARK  status: ('A' for Active; 'I' for Inactive)
REMARK    1  A    between atoms: C_4  and  C_22
REMARK    2  A    between atoms: C_10  and  C_11
REMARK    3  A    between atoms: C_10  and  C_14
REMARK    4  A    between atoms: C_16  and  O_17
REMARK    5  A    between atoms: O_17  and  C_18
REMARK    6  A    between atoms: C_19  and  O_20
REMARK    7  A    between atoms: O_20  and  C_21
REMARK    8  A    between atoms: C_24  and  O_25
REMARK    9  A    between atoms: O_25  and  C_26
REMARK   10  A    between atoms: C_27  and  O_30
REMARK   11  A    between atoms: O_30  and  C_31
REMARK                            x       y       z     vdW  Elec       q    Type
REMARK                         _______ _______ _______ _____ _____    ______ ____
ROOT
ATOM      1  O   LIG A   1      -7.100  -2.276 127.940  0.00  0.00    -0.287 OA
ATOM      2  C   LIG A   1      -7.392  -1.097 127.916  0.00  0.00    +0.197 A 
ATOM      3  C   LIG A   1      -7.677  -0.420 129.190  0.00  0.00    +0.098 A 
ATOM      4  C   LIG A   1      -8.099   0.846 129.179  0.00  0.00    +0.140 A 
ATOM      5  O   LIG A   1      -8.259   1.582 128.027  0.00  0.00    -0.451 OA
ATOM      6  C   LIG A   1      -8.056   1.015 126.796  0.00  0.00    +0.188 A 
ATOM      7  C   LIG A   1      -7.535  -0.278 126.684  0.00  0.00    +0.110 A 
ATOM      8  C   LIG A   1      -7.177  -0.775 125.433  0.00  0.00    +0.147 A 
ATOM      9  O   LIG A   1      -6.647  -2.035 125.357  0.00  0.00    -0.481 OA
ATOM     10  C   LIG A   1      -6.716  -2.706 124.086  0.00  0.00    +0.123 C 
ATOM     11  C   LIG A   1      -5.631  -3.785 124.143  0.00  0.00    +0.060 C 
ATOM     12  C   LIG A   1      -6.449  -1.763 122.940  0.00  0.00    +0.020 C 
ATOM     13  C   LIG A   1      -6.717  -0.456 123.041  0.00  0.00    +0.015 C 
ATOM     14  C   LIG A   1      -8.094  -3.371 123.944  0.00  0.00    +0.060 C 
ATOM     15  C   LIG A   1      -7.300   0.038 124.295  0.00  0.00    +0.063 A 
ATOM     16  C   LIG A   1      -7.934   1.299 124.387  0.00  0.00    +0.176 A 
ATOM     17  C   LIG A   1      -8.341   1.791 125.650  0.00  0.00    +0.206 A 
ENDROOT
BRANCH   4  18
ATOM     18  C   LIG A   1      -8.476   1.581 130.404  0.00  0.00    +0.021 A 
ATOM     19  C   LIG A   1      -9.112   2.829 130.331  0.00  0.00    +0.061 A 
ATOM     20  C   LIG A   1      -9.428   3.557 131.483  0.00  0.00    +0.162 A 
ATOM     21  C   LIG A   1      -9.057   3.053 132.741  0.00  0.00    +0.162 A 
ATOM     22  C   LIG A   1      -8.424   1.811 132.827  0.00  0.00    +0.050 A 
ATOM     23  C   LIG A   1      -8.143   1.083 131.670  0.00  0.00    +0.015 A 
BRANCH  20  24
ATOM     24  O   LIG A   1     -10.075   4.769 131.464  0.00  0.00    -0.491 OA
ATOM     25  C   LIG A   1     -11.076   4.956 130.469  0.00  0.00    +0.277 C 
ENDBRANCH  20  24
BRANCH  21  26
ATOM     26  O   LIG A   1      -9.367   3.819 133.838  0.00  0.00    -0.491 OA
ATOM     27  C   LIG A   1      -8.259   4.320 134.578  0.00  0.00    +0.277 C 
ENDBRANCH  21  26
ENDBRANCH   4  18
BRANCH  16  28
ATOM     28  O   LIG A   1      -8.006   1.983 123.195  0.00  0.00    -0.491 OA
ATOM     29  C   LIG A   1      -9.266   2.087 122.545  0.00  0.00    +0.277 C 
ENDBRANCH  16  28
BRANCH  17  30
ATOM     30  O   LIG A   1      -8.958   3.019 125.668  0.00  0.00    -0.488 OA
ATOM     31  C   LIG A   1      -8.182   4.215 125.660  0.00  0.00    +0.277 C 
ENDBRANCH  17  30
TORSDOF 5
ENDMDL
MODEL 2
REMARK VINA RESULT:      -7.8      6.121      8.649
REMARK  Name = NuBBE_1306
REMARK  11 active torsions:
REMARK  status: ('A' for Active; 'I' for Inactive)
REMARK    1  A    between atoms: C_4  and  C_22
REMARK    2  A    between atoms: C_10  and  C_11
REMARK    3  A    between atoms: C_10  and  C_14
REMARK    4  A    between atoms: C_16  and  O_17
REMARK    5  A    between atoms: O_17  and  C_18
REMARK    6  A    between atoms: C_19  and  O_20
REMARK    7  A    between atoms: O_20  and  C_21
REMARK    8  A    between atoms: C_24  and  O_25
REMARK    9  A    between atoms: O_25  and  C_26
REMARK   10  A    between atoms: C_27  and  O_30
REMARK   11  A    between atoms: O_30  and  C_31
REMARK                            x       y       z     vdW  Elec       q    Type
REMARK                         _______ _______ _______ _____ _____    ______ ____
ROOT
ATOM      1  O   LIG A   1      -5.321   6.837 131.743  0.00  0.00    -0.287 OA
ATOM      2  C   LIG A   1      -6.354   6.201 131.670  0.00  0.00    +0.197 A 
ATOM      3  C   LIG A   1      -7.530   6.841 131.060  0.00  0.00    +0.098 A 
ATOM      4  C   LIG A   1      -8.700   6.200 131.063  0.00  0.00    +0.140 A 
ATOM      5  O   LIG A   1      -8.872   4.938 131.586  0.00  0.00    -0.451 OA
ATOM      6  C   LIG A   1      -7.839   4.289 132.211  0.00  0.00    +0.188 A 
ATOM      7  C   LIG A   1      -6.548   4.826 132.198  0.00  0.00    +0.110 A 
ATOM      8  C   LIG A   1      -5.481   4.075 132.688  0.00  0.00    +0.147 A 
ATOM      9  O   LIG A   1      -4.225   4.618 132.641  0.00  0.00    -0.481 OA
ATOM     10  C   LIG A   1      -3.237   4.076 133.536  0.00  0.00    +0.123 C 
ATOM     11  C   LIG A   1      -1.887   4.455 132.920  0.00  0.00    +0.060 C 
ATOM     12  C   LIG A   1      -3.350   2.577 133.652  0.00  0.00    +0.020 C 
ATOM     13  C   LIG A   1      -4.518   1.952 133.461  0.00  0.00    +0.015 C 
ATOM     14  C   LIG A   1      -3.381   4.748 134.910  0.00  0.00    +0.060 C 
ATOM     15  C   LIG A   1      -5.699   2.769 133.153  0.00  0.00    +0.063 A 
ATOM     16  C   LIG A   1      -7.016   2.268 133.276  0.00  0.00    +0.176 A 
ATOM     17  C   LIG A   1      -8.108   3.043 132.821  0.00  0.00    +0.206 A 
ENDROOT
BRANCH   4  18
ATOM     18  C   LIG A   1      -9.946   6.794 130.536  0.00  0.00    +0.021 A 
ATOM     19  C   LIG A   1      -9.985   7.379 129.263  0.00  0.00    +0.061 A 
ATOM     20  C   LIG A   1     -11.145   7.989 128.773  0.00  0.00    +0.162 A 
ATOM     21  C   LIG A   1     -12.284   8.062 129.593  0.00  0.00    +0.162 A 
ATOM     22  C   LIG A   1     -12.258   7.482 130.863  0.00  0.00    +0.050 A 
ATOM     23  C   LIG A   1     -11.102   6.850 131.325  0.00  0.00    +0.015 A 
BRANCH  20  24
ATOM     24  O   LIG A   1     -11.241   8.551 127.523  0.00  0.00    -0.491 OA
ATOM     25  C   LIG A   1     -10.902   7.727 126.413  0.00  0.00    +0.277 C 
ENDBRANCH  20  24
BRANCH  21  26
ATOM     26  O   LIG A   1     -13.388   8.694 129.076  0.00  0.00    -0.491 OA
ATOM     27  C   LIG A   1     -13.480  10.091 129.333  0.00  0.00    +0.277 C 
ENDBRANCH  21  26
ENDBRANCH   4  18
BRANCH  16  28
ATOM     28  O   LIG A   1      -7.087   0.982 133.763  0.00  0.00    -0.491 OA
ATOM     29  C   LIG A   1      -7.036  -0.099 132.843  0.00  0.00    +0.277 C 
ENDBRANCH  16  28
BRANCH  17  30
ATOM     30  O   LIG A   1      -9.362   2.501 132.978  0.00  0.00    -0.488 OA
ATOM     31  C   LIG A   1      -9.962   1.756 131.920  0.00  0.00    +0.277 C 
ENDBRANCH  17  30
TORSDOF 5
ENDMDL
MODEL 3
REMARK VINA RESULT:      -7.8      5.222      8.349
REMARK  Name = NuBBE_1306
REMARK  11 active torsions:
REMARK  status: ('A' for Active; 'I' for Inactive)
REMARK    1  A    between atoms: C_4  and  C_22
REMARK    2  A    between atoms: C_10  and  C_11
REMARK    3  A    between atoms: C_10  and  C_14
REMARK    4  A    between atoms: C_16  and  O_17
REMARK    5  A    between atoms: O_17  and  C_18
REMARK    6  A    between atoms: C_19  and  O_20
REMARK    7  A    between atoms: O_20  and  C_21
REMARK    8  A    between atoms: C_24  and  O_25
REMARK    9  A    between atoms: O_25  and  C_26
REMARK   10  A    between atoms: C_27  and  O_30
REMARK   11  A    between atoms: O_30  and  C_31
REMARK                            x       y       z     vdW  Elec       q    Type
REMARK                         _______ _______ _______ _____ _____    ______ ____
ROOT
ATOM      1  O   LIG A   1      -8.484   4.384 134.599  0.00  0.00    -0.287 OA
ATOM      2  C   LIG A   1      -8.314   4.822 133.478  0.00  0.00    +0.197 A 
ATOM      3  C   LIG A   1      -9.401   5.593 132.856  0.00  0.00    +0.098 A 
ATOM      4  C   LIG A   1      -9.277   5.994 131.589  0.00  0.00    +0.140 A 
ATOM      5  O   LIG A   1      -8.159   5.753 130.823  0.00  0.00    -0.451 OA
ATOM      6  C   LIG A   1      -7.119   5.005 131.312  0.00  0.00    +0.188 A 
ATOM      7  C   LIG A   1      -7.101   4.600 132.651  0.00  0.00    +0.110 A 
ATOM      8  C   LIG A   1      -5.963   3.989 133.173  0.00  0.00    +0.147 A 
ATOM      9  O   LIG A   1      -5.965   3.625 134.493  0.00  0.00    -0.481 OA
ATOM     10  C   LIG A   1      -5.026   2.613 134.900  0.00  0.00    +0.123 C 
ATOM     11  C   LIG A   1      -4.874   2.794 136.414  0.00  0.00    +0.060 C 
ATOM     12  C   LIG A   1      -3.690   2.784 134.222  0.00  0.00    +0.020 C 
ATOM     13  C   LIG A   1      -3.591   3.367 133.022  0.00  0.00    +0.015 C 
ATOM     14  C   LIG A   1      -5.621   1.228 134.607  0.00  0.00    +0.060 C 
ATOM     15  C   LIG A   1      -4.825   3.822 132.368  0.00  0.00    +0.063 A 
ATOM     16  C   LIG A   1      -4.880   4.123 130.987  0.00  0.00    +0.176 A 
ATOM     17  C   LIG A   1      -6.049   4.702 130.440  0.00  0.00    +0.206 A 
ENDROOT
BRANCH   4  18
ATOM     18  C   LIG A   1     -10.345   6.712 130.862  0.00  0.00    +0.021 A 
ATOM     19  C   LIG A   1     -10.093   7.316 129.622  0.00  0.00    +0.061 A 
ATOM     20  C   LIG A   1     -11.083   8.041 128.948  0.00  0.00    +0.162 A 
ATOM     21  C   LIG A   1     -12.343   8.210 129.548  0.00  0.00    +0.162 A 
ATOM     22  C   LIG A   1     -12.606   7.611 130.782  0.00  0.00    +0.050 A 
ATOM     23  C   LIG A   1     -11.617   6.866 131.427  0.00  0.00    +0.015 A 
BRANCH  20  24
ATOM     24  O   LIG A   1     -10.894   8.628 127.721  0.00  0.00    -0.491 OA
ATOM     25  C   LIG A   1     -10.846   7.766 126.589  0.00  0.00    +0.277 C 
ENDBRANCH  20  24
BRANCH  21  26
ATOM     26  O   LIG A   1     -13.270   8.951 128.857  0.00  0.00    -0.491 OA
ATOM     27  C   LIG A   1     -13.467  10.283 129.318  0.00  0.00    +0.277 C 
ENDBRANCH  21  26
ENDBRANCH   4  18
BRANCH  16  28
ATOM     28  O   LIG A   1      -3.703   3.893 130.312  0.00  0.00    -0.491 OA
ATOM     29  C   LIG A   1      -2.880   5.003 129.981  0.00  0.00    +0.277 C 
ENDBRANCH  16  28
BRANCH  17  30
ATOM     30  O   LIG A   1      -6.040   4.962 129.090  0.00  0.00    -0.488 OA
ATOM     31  C   LIG A   1      -6.533   3.994 128.167  0.00  0.00    +0.277 C 
ENDBRANCH  17  30
TORSDOF 5
ENDMDL
MODEL 4
REMARK VINA RESULT:      -7.5      3.834      5.673
REMARK  Name = NuBBE_1306
REMARK  11 active torsions:
REMARK  status: ('A' for Active; 'I' for Inactive)
REMARK    1  A    between atoms: C_4  and  C_22
REMARK    2  A    between atoms: C_10  and  C_11
REMARK    3  A    between atoms: C_10  and  C_14
REMARK    4  A    between atoms: C_16  and  O_17
REMARK    5  A    between atoms: O_17  and  C_18
REMARK    6  A    between atoms: C_19  and  O_20
REMARK    7  A    between atoms: O_20  and  C_21
REMARK    8  A    between atoms: C_24  and  O_25
REMARK    9  A    between atoms: O_25  and  C_26
REMARK   10  A    between atoms: C_27  and  O_30
REMARK   11  A    between atoms: O_30  and  C_31
REMARK                            x       y       z     vdW  Elec       q    Type
REMARK                         _______ _______ _______ _____ _____    ______ ____
ROOT
ATOM      1  O   LIG A   1      -6.609   0.479 124.347  0.00  0.00    -0.287 OA
ATOM      2  C   LIG A   1      -6.342   0.661 125.518  0.00  0.00    +0.197 A 
ATOM      3  C   LIG A   1      -5.622   1.888 125.890  0.00  0.00    +0.098 A 
ATOM      4  C   LIG A   1      -5.229   2.059 127.154  0.00  0.00    +0.140 A 
ATOM      5  O   LIG A   1      -5.486   1.153 128.157  0.00  0.00    -0.451 OA
ATOM      6  C   LIG A   1      -6.114  -0.036 127.888  0.00  0.00    +0.188 A 
ATOM      7  C   LIG A   1      -6.643  -0.291 126.618  0.00  0.00    +0.110 A 
ATOM      8  C   LIG A   1      -7.423  -1.426 126.409  0.00  0.00    +0.147 A 
ATOM      9  O   LIG A   1      -7.948  -1.636 125.162  0.00  0.00    -0.481 OA
ATOM     10  C   LIG A   1      -8.335  -2.981 124.826  0.00  0.00    +0.123 C 
ATOM     11  C   LIG A   1      -9.332  -2.835 123.673  0.00  0.00    +0.060 C 
ATOM     12  C   LIG A   1      -8.989  -3.682 125.990  0.00  0.00    +0.020 C 
ATOM     13  C   LIG A   1      -8.700  -3.346 127.253  0.00  0.00    +0.015 C 
ATOM     14  C   LIG A   1      -7.098  -3.754 124.341  0.00  0.00    +0.060 C 
ATOM     15  C   LIG A   1      -7.709  -2.287 127.480  0.00  0.00    +0.063 A 
ATOM     16  C   LIG A   1      -7.081  -2.097 128.733  0.00  0.00    +0.176 A 
ATOM     17  C   LIG A   1      -6.252  -0.969 128.940  0.00  0.00    +0.206 A 
ENDROOT
BRANCH   4  18
ATOM     18  C   LIG A   1      -4.441   3.225 127.602  0.00  0.00    +0.021 A 
ATOM     19  C   LIG A   1      -5.058   4.313 128.236  0.00  0.00    +0.061 A 
ATOM     20  C   LIG A   1      -4.330   5.445 128.620  0.00  0.00    +0.162 A 
ATOM     21  C   LIG A   1      -2.959   5.517 128.321  0.00  0.00    +0.162 A 
ATOM     22  C   LIG A   1      -2.332   4.440 127.691  0.00  0.00    +0.050 A 
ATOM     23  C   LIG A   1      -3.067   3.305 127.342  0.00  0.00    +0.015 A 
BRANCH  20  24
ATOM     24  O   LIG A   1      -4.884   6.523 129.267  0.00  0.00    -0.491 OA
ATOM     25  C   LIG A   1      -5.309   6.325 130.611  0.00  0.00    +0.277 C 
ENDBRANCH  20  24
BRANCH  21  26
ATOM     26  O   LIG A   1      -2.297   6.661 128.696  0.00  0.00    -0.491 OA
ATOM     27  C   LIG A   1      -1.621   6.604 129.947  0.00  0.00    +0.277 C 
ENDBRANCH  21  26
ENDBRANCH   4  18
BRANCH  16  28
ATOM     28  O   LIG A   1      -7.435  -3.023 129.688  0.00  0.00    -0.491 OA
ATOM     29  C   LIG A   1      -6.507  -4.046 130.021  0.00  0.00    +0.277 C 
ENDBRANCH  16  28
BRANCH  17  30
ATOM     30  O   LIG A   1      -5.666  -0.849 130.178  0.00  0.00    -0.488 OA
ATOM     31  C   LIG A   1      -4.282  -1.143 130.351  0.00  0.00    +0.277 C 
ENDBRANCH  17  30
TORSDOF 5
ENDMDL
MODEL 5
REMARK VINA RESULT:      -7.5      5.487      7.926
REMARK  Name = NuBBE_1306
REMARK  11 active torsions:
REMARK  status: ('A' for Active; 'I' for Inactive)
REMARK    1  A    between atoms: C_4  and  C_22
REMARK    2  A    between atoms: C_10  and  C_11
REMARK    3  A    between atoms: C_10  and  C_14
REMARK    4  A    between atoms: C_16  and  O_17
REMARK    5  A    between atoms: O_17  and  C_18
REMARK    6  A    between atoms: C_19  and  O_20
REMARK    7  A    between atoms: O_20  and  C_21
REMARK    8  A    between atoms: C_24  and  O_25
REMARK    9  A    between atoms: O_25  and  C_26
REMARK   10  A    between atoms: C_27  and  O_30
REMARK   11  A    between atoms: O_30  and  C_31
REMARK                            x       y       z     vdW  Elec       q    Type
REMARK                         _______ _______ _______ _____ _____    ______ ____
ROOT
ATOM      1  O   LIG A   1      -9.773   1.250 131.162  0.00  0.00    -0.287 OA
ATOM      2  C   LIG A   1      -9.502   2.392 131.473  0.00  0.00    +0.197 A 
ATOM      3  C   LIG A   1     -10.352   3.479 130.962  0.00  0.00    +0.098 A 
ATOM      4  C   LIG A   1     -10.012   4.746 131.206  0.00  0.00    +0.140 A 
ATOM      5  O   LIG A   1      -8.910   5.107 131.946  0.00  0.00    -0.451 OA
ATOM      6  C   LIG A   1      -8.041   4.159 132.422  0.00  0.00    +0.188 A 
ATOM      7  C   LIG A   1      -8.335   2.797 132.299  0.00  0.00    +0.110 A 
ATOM      8  C   LIG A   1      -7.530   1.855 132.935  0.00  0.00    +0.147 A 
ATOM      9  O   LIG A   1      -7.856   0.530 132.817  0.00  0.00    -0.481 OA
ATOM     10  C   LIG A   1      -6.813  -0.431 133.057  0.00  0.00    +0.123 C 
ATOM     11  C   LIG A   1      -7.540  -1.739 133.383  0.00  0.00    +0.060 C 
ATOM     12  C   LIG A   1      -5.934  -0.026 134.214  0.00  0.00    +0.020 C 
ATOM     13  C   LIG A   1      -5.769   1.261 134.542  0.00  0.00    +0.015 C 
ATOM     14  C   LIG A   1      -5.989  -0.609 131.773  0.00  0.00    +0.060 C 
ATOM     15  C   LIG A   1      -6.453   2.276 133.731  0.00  0.00    +0.063 A 
ATOM     16  C   LIG A   1      -6.083   3.642 133.762  0.00  0.00    +0.176 A 
ATOM     17  C   LIG A   1      -6.871   4.599 133.082  0.00  0.00    +0.206 A 
ENDROOT
BRANCH   4  18
ATOM     18  C   LIG A   1     -10.767   5.899 130.674  0.00  0.00    +0.021 A 
ATOM     19  C   LIG A   1     -10.337   6.574 129.523  0.00  0.00    +0.061 A 
ATOM     20  C   LIG A   1     -11.015   7.699 129.038  0.00  0.00    +0.162 A 
ATOM     21  C   LIG A   1     -12.124   8.194 129.746  0.00  0.00    +0.162 A 
ATOM     22  C   LIG A   1     -12.563   7.529 130.893  0.00  0.00    +0.050 A 
ATOM     23  C   LIG A   1     -11.893   6.391 131.346  0.00  0.00    +0.015 A 
BRANCH  20  24
ATOM     24  O   LIG A   1     -10.649   8.378 127.901  0.00  0.00    -0.491 OA
ATOM     25  C   LIG A   1     -10.889   7.732 126.655  0.00  0.00    +0.277 C 
ENDBRANCH  20  24
BRANCH  21  26
ATOM     26  O   LIG A   1     -12.737   9.314 129.243  0.00  0.00    -0.491 OA
ATOM     27  C   LIG A   1     -13.221  10.242 130.207  0.00  0.00    +0.277 C 
ENDBRANCH  21  26
ENDBRANCH   4  18
BRANCH  16  28
ATOM     28  O   LIG A   1      -4.999   3.914 134.565  0.00  0.00    -0.491 OA
ATOM     29  C   LIG A   1      -3.714   4.010 133.964  0.00  0.00    +0.277 C 
ENDBRANCH  16  28
BRANCH  17  30
ATOM     30  O   LIG A   1      -6.452   5.906 133.145  0.00  0.00    -0.488 OA
ATOM     31  C   LIG A   1      -5.723   6.482 132.064  0.00  0.00    +0.277 C 
ENDBRANCH  17  30
TORSDOF 5
ENDMDL
MODEL 6
REMARK VINA RESULT:      -7.4      3.534      8.009
REMARK  Name = NuBBE_1306
REMARK  11 active torsions:
REMARK  status: ('A' for Active; 'I' for Inactive)
REMARK    1  A    between atoms: C_4  and  C_22
REMARK    2  A    between atoms: C_10  and  C_11
REMARK    3  A    between atoms: C_10  and  C_14
REMARK    4  A    between atoms: C_16  and  O_17
REMARK    5  A    between atoms: O_17  and  C_18
REMARK    6  A    between atoms: C_19  and  O_20
REMARK    7  A    between atoms: O_20  and  C_21
REMARK    8  A    between atoms: C_24  and  O_25
REMARK    9  A    between atoms: O_25  and  C_26
REMARK   10  A    between atoms: C_27  and  O_30
REMARK   11  A    between atoms: O_30  and  C_31
REMARK                            x       y       z     vdW  Elec       q    Type
REMARK                         _______ _______ _______ _____ _____    ______ ____
ROOT
ATOM      1  O   LIG A   1      -3.809   3.136 128.071  0.00  0.00    -0.287 OA
ATOM      2  C   LIG A   1      -4.992   2.912 128.235  0.00  0.00    +0.197 A 
ATOM      3  C   LIG A   1      -5.578   1.728 127.587  0.00  0.00    +0.098 A 
ATOM      4  C   LIG A   1      -6.893   1.521 127.669  0.00  0.00    +0.140 A 
ATOM      5  O   LIG A   1      -7.750   2.346 128.361  0.00  0.00    -0.451 OA
ATOM      6  C   LIG A   1      -7.293   3.494 128.957  0.00  0.00    +0.188 A 
ATOM      7  C   LIG A   1      -5.924   3.774 129.007  0.00  0.00    +0.110 A 
ATOM      8  C   LIG A   1      -5.465   4.852 129.761  0.00  0.00    +0.147 A 
ATOM      9  O   LIG A   1      -4.117   5.088 129.811  0.00  0.00    -0.481 OA
ATOM     10  C   LIG A   1      -3.691   6.413 130.175  0.00  0.00    +0.123 C 
ATOM     11  C   LIG A   1      -2.249   6.250 130.662  0.00  0.00    +0.060 C 
ATOM     12  C   LIG A   1      -4.546   6.993 131.274  0.00  0.00    +0.020 C 
ATOM     13  C   LIG A   1      -5.819   6.613 131.436  0.00  0.00    +0.015 C 
ATOM     14  C   LIG A   1      -3.713   7.309 128.927  0.00  0.00    +0.060 C 
ATOM     15  C   LIG A   1      -6.373   5.627 130.500  0.00  0.00    +0.063 A 
ATOM     16  C   LIG A   1      -7.765   5.419 130.359  0.00  0.00    +0.176 A 
ATOM     17  C   LIG A   1      -8.239   4.353 129.559  0.00  0.00    +0.206 A 
ENDROOT
BRANCH   4  18
ATOM     18  C   LIG A   1      -7.576   0.399 126.991  0.00  0.00    +0.021 A 
ATOM     19  C   LIG A   1      -8.399   0.622 125.879  0.00  0.00    +0.061 A 
ATOM     20  C   LIG A   1      -9.091  -0.426 125.260  0.00  0.00    +0.162 A 
ATOM     21  C   LIG A   1      -8.999  -1.723 125.793  0.00  0.00    +0.162 A 
ATOM     22  C   LIG A   1      -8.181  -1.957 126.900  0.00  0.00    +0.050 A 
ATOM     23  C   LIG A   1      -7.473  -0.906 127.488  0.00  0.00    +0.015 A 
BRANCH  20  24
ATOM     24  O   LIG A   1      -9.887  -0.264 124.152  0.00  0.00    -0.491 OA
ATOM     25  C   LIG A   1      -9.678   0.906 123.368  0.00  0.00    +0.277 C 
ENDBRANCH  20  24
BRANCH  21  26
ATOM     26  O   LIG A   1      -9.718  -2.710 125.164  0.00  0.00    -0.491 OA
ATOM     27  C   LIG A   1      -8.998  -3.495 124.220  0.00  0.00    +0.277 C 
ENDBRANCH  21  26
ENDBRANCH   4  18
BRANCH  16  28
ATOM     28  O   LIG A   1      -8.541   6.260 131.124  0.00  0.00    -0.491 OA
ATOM     29  C   LIG A   1      -9.339   7.236 130.468  0.00  0.00    +0.277 C 
ENDBRANCH  16  28
BRANCH  17  30
ATOM     30  O   LIG A   1      -9.603   4.213 129.458  0.00  0.00    -0.488 OA
ATOM     31  C   LIG A   1     -10.324   3.464 130.433  0.00  0.00    +0.277 C 
ENDBRANCH  17  30
TORSDOF 5
ENDMDL
MODEL 7
REMARK VINA RESULT:      -7.2      3.677      5.496
REMARK  Name = NuBBE_1306
REMARK  11 active torsions:
REMARK  status: ('A' for Active; 'I' for Inactive)
REMARK    1  A    between atoms: C_4  and  C_22
REMARK    2  A    between atoms: C_10  and  C_11
REMARK    3  A    between atoms: C_10  and  C_14
REMARK    4  A    between atoms: C_16  and  O_17
REMARK    5  A    between atoms: O_17  and  C_18
REMARK    6  A    between atoms: C_19  and  O_20
REMARK    7  A    between atoms: O_20  and  C_21
REMARK    8  A    between atoms: C_24  and  O_25
REMARK    9  A    between atoms: O_25  and  C_26
REMARK   10  A    between atoms: C_27  and  O_30
REMARK   11  A    between atoms: O_30  and  C_31
REMARK                            x       y       z     vdW  Elec       q    Type
REMARK                         _______ _______ _______ _____ _____    ______ ____
ROOT
ATOM      1  O   LIG A   1      -9.361  -2.454 126.306  0.00  0.00    -0.287 OA
ATOM      2  C   LIG A   1      -8.388  -2.141 126.964  0.00  0.00    +0.197 A 
ATOM      3  C   LIG A   1      -8.044  -2.957 128.139  0.00  0.00    +0.098 A 
ATOM      4  C   LIG A   1      -7.043  -2.571 128.933  0.00  0.00    +0.140 A 
ATOM      5  O   LIG A   1      -6.279  -1.450 128.700  0.00  0.00    -0.451 OA
ATOM      6  C   LIG A   1      -6.560  -0.612 127.653  0.00  0.00    +0.188 A 
ATOM      7  C   LIG A   1      -7.532  -0.954 126.707  0.00  0.00    +0.110 A 
ATOM      8  C   LIG A   1      -7.686  -0.177 125.561  0.00  0.00    +0.147 A 
ATOM      9  O   LIG A   1      -8.630  -0.551 124.641  0.00  0.00    -0.481 OA
ATOM     10  C   LIG A   1      -9.104   0.460 123.734  0.00  0.00    +0.123 C 
ATOM     11  C   LIG A   1      -9.687  -0.310 122.545  0.00  0.00    +0.060 C 
ATOM     12  C   LIG A   1      -7.989   1.362 123.268  0.00  0.00    +0.020 C 
ATOM     13  C   LIG A   1      -6.906   1.574 124.026  0.00  0.00    +0.015 C 
ATOM     14  C   LIG A   1     -10.217   1.268 124.418  0.00  0.00    +0.060 C 
ATOM     15  C   LIG A   1      -6.840   0.920 125.339  0.00  0.00    +0.063 A 
ATOM     16  C   LIG A   1      -5.938   1.337 126.345  0.00  0.00    +0.176 A 
ATOM     17  C   LIG A   1      -5.807   0.578 127.532  0.00  0.00    +0.206 A 
ENDROOT
BRANCH   4  18
ATOM     18  C   LIG A   1      -6.673  -3.289 130.170  0.00  0.00    +0.021 A 
ATOM     19  C   LIG A   1      -7.028  -2.786 131.430  0.00  0.00    +0.061 A 
ATOM     20  C   LIG A   1      -6.640  -3.431 132.610  0.00  0.00    +0.162 A 
ATOM     21  C   LIG A   1      -5.836  -4.582 132.535  0.00  0.00    +0.162 A 
ATOM     22  C   LIG A   1      -5.478  -5.093 131.286  0.00  0.00    +0.050 A 
ATOM     23  C   LIG A   1      -5.898  -4.455 130.117  0.00  0.00    +0.015 A 
BRANCH  20  24
ATOM     24  O   LIG A   1      -6.985  -2.993 133.866  0.00  0.00    -0.491 OA
ATOM     25  C   LIG A   1      -8.322  -3.233 134.293  0.00  0.00    +0.277 C 
ENDBRANCH  20  24
BRANCH  21  26
ATOM     26  O   LIG A   1      -5.462  -5.160 133.723  0.00  0.00    -0.491 OA
ATOM     27  C   LIG A   1      -4.067  -5.390 133.888  0.00  0.00    +0.277 C 
ENDBRANCH  21  26
ENDBRANCH   4  18
BRANCH  16  28
ATOM     28  O   LIG A   1      -5.183   2.438 126.006  0.00  0.00    -0.491 OA
ATOM     29  C   LIG A   1      -5.575   3.711 126.498  0.00  0.00    +0.277 C 
ENDBRANCH  16  28
BRANCH  17  30
ATOM     30  O   LIG A   1      -4.919   1.043 128.472  0.00  0.00    -0.488 OA
ATOM     31  C   LIG A   1      -5.390   1.726 129.632  0.00  0.00    +0.277 C 
ENDBRANCH  17  30
TORSDOF 5
ENDMDL
MODEL 8
REMARK VINA RESULT:      -7.1      3.303      8.474
REMARK  Name = NuBBE_1306
REMARK  11 active torsions:
REMARK  status: ('A' for Active; 'I' for Inactive)
REMARK    1  A    between atoms: C_4  and  C_22
REMARK    2  A    between atoms: C_10  and  C_11
REMARK    3  A    between atoms: C_10  and  C_14
REMARK    4  A    between atoms: C_16  and  O_17
REMARK    5  A    between atoms: O_17  and  C_18
REMARK    6  A    between atoms: C_19  and  O_20
REMARK    7  A    between atoms: O_20  and  C_21
REMARK    8  A    between atoms: C_24  and  O_25
REMARK    9  A    between atoms: O_25  and  C_26
REMARK   10  A    between atoms: C_27  and  O_30
REMARK   11  A    between atoms: O_30  and  C_31
REMARK                            x       y       z     vdW  Elec       q    Type
REMARK                         _______ _______ _______ _____ _____    ______ ____
ROOT
ATOM      1  O   LIG A   1      -9.321   2.860 129.129  0.00  0.00    -0.287 OA
ATOM      2  C   LIG A   1      -8.229   2.595 128.665  0.00  0.00    +0.197 A 
ATOM      3  C   LIG A   1      -8.116   1.448 127.751  0.00  0.00    +0.098 A 
ATOM      4  C   LIG A   1      -6.912   1.077 127.312  0.00  0.00    +0.140 A 
ATOM      5  O   LIG A   1      -5.748   1.731 127.646  0.00  0.00    -0.451 OA
ATOM      6  C   LIG A   1      -5.760   2.782 128.526  0.00  0.00    +0.188 A 
ATOM      7  C   LIG A   1      -6.969   3.312 128.988  0.00  0.00    +0.110 A 
ATOM      8  C   LIG A   1      -6.968   4.482 129.744  0.00  0.00    +0.147 A 
ATOM      9  O   LIG A   1      -8.169   4.990 130.162  0.00  0.00    -0.481 OA
ATOM     10  C   LIG A   1      -8.152   5.884 131.289  0.00  0.00    +0.123 C 
ATOM     11  C   LIG A   1      -9.458   6.678 131.190  0.00  0.00    +0.060 C 
ATOM     12  C   LIG A   1      -6.972   6.822 131.241  0.00  0.00    +0.020 C 
ATOM     13  C   LIG A   1      -5.836   6.477 130.622  0.00  0.00    +0.015 C 
ATOM     14  C   LIG A   1      -8.150   5.059 132.585  0.00  0.00    +0.060 C 
ATOM     15  C   LIG A   1      -5.760   5.147 130.004  0.00  0.00    +0.063 A 
ATOM     16  C   LIG A   1      -4.528   4.554 129.641  0.00  0.00    +0.176 A 
ATOM     17  C   LIG A   1      -4.520   3.342 128.911  0.00  0.00    +0.206 A 
ENDROOT
BRANCH   4  18
ATOM     18  C   LIG A   1      -6.697  -0.103 126.449  0.00  0.00    +0.021 A 
ATOM     19  C   LIG A   1      -7.683  -1.091 126.318  0.00  0.00    +0.061 A 
ATOM     20  C   LIG A   1      -7.472  -2.237 125.543  0.00  0.00    +0.162 A 
ATOM     21  C   LIG A   1      -6.226  -2.430 124.922  0.00  0.00    +0.162 A 
ATOM     22  C   LIG A   1      -5.236  -1.452 125.044  0.00  0.00    +0.050 A 
ATOM     23  C   LIG A   1      -5.474  -0.300 125.796  0.00  0.00    +0.015 A 
BRANCH  20  24
ATOM     24  O   LIG A   1      -8.416  -3.219 125.362  0.00  0.00    -0.491 OA
ATOM     25  C   LIG A   1      -9.655  -3.062 126.045  0.00  0.00    +0.277 C 
ENDBRANCH  20  24
BRANCH  21  26
ATOM     26  O   LIG A   1      -6.061  -3.583 124.195  0.00  0.00    -0.491 OA
ATOM     27  C   LIG A   1      -4.740  -3.841 123.733  0.00  0.00    +0.277 C 
ENDBRANCH  21  26
ENDBRANCH   4  18
BRANCH  16  28
ATOM     28  O   LIG A   1      -3.422   5.302 129.973  0.00  0.00    -0.491 OA
ATOM     29  C   LIG A   1      -2.643   4.906 131.094  0.00  0.00    +0.277 C 
ENDBRANCH  16  28
BRANCH  17  30
ATOM     30  O   LIG A   1      -3.290   2.815 128.597  0.00  0.00    -0.488 OA
ATOM     31  C   LIG A   1      -2.611   3.227 127.413  0.00  0.00    +0.277 C 
ENDBRANCH  17  30
TORSDOF 5
ENDMDL
MODEL 9
REMARK VINA RESULT:      -7.1      3.549      8.939
REMARK  Name = NuBBE_1306
REMARK  11 active torsions:
REMARK  status: ('A' for Active; 'I' for Inactive)
REMARK    1  A    between atoms: C_4  and  C_22
REMARK    2  A    between atoms: C_10  and  C_11
REMARK    3  A    between atoms: C_10  and  C_14
REMARK    4  A    between atoms: C_16  and  O_17
REMARK    5  A    between atoms: O_17  and  C_18
REMARK    6  A    between atoms: C_19  and  O_20
REMARK    7  A    between atoms: O_20  and  C_21
REMARK    8  A    between atoms: C_24  and  O_25
REMARK    9  A    between atoms: O_25  and  C_26
REMARK   10  A    between atoms: C_27  and  O_30
REMARK   11  A    between atoms: O_30  and  C_31
REMARK                            x       y       z     vdW  Elec       q    Type
REMARK                         _______ _______ _______ _____ _____    ______ ____
ROOT
ATOM      1  O   LIG A   1      -8.828   2.904 129.824  0.00  0.00    -0.287 OA
ATOM      2  C   LIG A   1      -7.973   3.499 129.199  0.00  0.00    +0.197 A 
ATOM      3  C   LIG A   1      -7.999   3.423 127.729  0.00  0.00    +0.098 A 
ATOM      4  C   LIG A   1      -7.012   3.983 127.028  0.00  0.00    +0.140 A 
ATOM      5  O   LIG A   1      -5.965   4.667 127.603  0.00  0.00    -0.451 OA
ATOM      6  C   LIG A   1      -5.842   4.747 128.966  0.00  0.00    +0.188 A 
ATOM      7  C   LIG A   1      -6.856   4.270 129.803  0.00  0.00    +0.110 A 
ATOM      8  C   LIG A   1      -6.793   4.512 131.173  0.00  0.00    +0.147 A 
ATOM      9  O   LIG A   1      -7.813   4.053 131.964  0.00  0.00    -0.481 OA
ATOM     10  C   LIG A   1      -7.537   3.886 133.366  0.00  0.00    +0.123 C 
ATOM     11  C   LIG A   1      -8.908   3.900 134.049  0.00  0.00    +0.060 C 
ATOM     12  C   LIG A   1      -6.680   5.003 133.905  0.00  0.00    +0.020 C 
ATOM     13  C   LIG A   1      -5.830   5.668 133.114  0.00  0.00    +0.015 C 
ATOM     14  C   LIG A   1      -6.868   2.520 133.587  0.00  0.00    +0.060 C 
ATOM     15  C   LIG A   1      -5.737   5.268 131.704  0.00  0.00    +0.063 A 
ATOM     16  C   LIG A   1      -4.653   5.651 130.881  0.00  0.00    +0.176 A 
ATOM     17  C   LIG A   1      -4.688   5.370 129.495  0.00  0.00    +0.206 A 
ENDROOT
BRANCH   4  18
ATOM     18  C   LIG A   1      -6.919   3.896 125.556  0.00  0.00    +0.021 A 
ATOM     19  C   LIG A   1      -7.960   3.338 124.799  0.00  0.00    +0.061 A 
ATOM     20  C   LIG A   1      -7.863   3.204 123.409  0.00  0.00    +0.162 A 
ATOM     21  C   LIG A   1      -6.677   3.591 122.760  0.00  0.00    +0.162 A 
ATOM     22  C   LIG A   1      -5.635   4.149 123.503  0.00  0.00    +0.050 A 
ATOM     23  C   LIG A   1      -5.759   4.304 124.885  0.00  0.00    +0.015 A 
BRANCH  20  24
ATOM     24  O   LIG A   1      -8.864   2.689 122.622  0.00  0.00    -0.491 OA
ATOM     25  C   LIG A   1      -9.608   1.597 123.150  0.00  0.00    +0.277 C 
ENDBRANCH  20  24
BRANCH  21  26
ATOM     26  O   LIG A   1      -6.624   3.414 121.399  0.00  0.00    -0.491 OA
ATOM     27  C   LIG A   1      -5.485   3.965 120.747  0.00  0.00    +0.277 C 
ENDBRANCH  21  26
ENDBRANCH   4  18
BRANCH  16  28
ATOM     28  O   LIG A   1      -3.676   6.370 131.532  0.00  0.00    -0.491 OA
ATOM     29  C   LIG A   1      -3.549   7.757 131.250  0.00  0.00    +0.277 C 
ENDBRANCH  16  28
BRANCH  17  30
ATOM     30  O   LIG A   1      -3.599   5.761 128.754  0.00  0.00    -0.488 OA
ATOM     31  C   LIG A   1      -2.590   4.817 128.403  0.00  0.00    +0.277 C 
ENDBRANCH  17  30
TORSDOF 5
ENDMDL
