MODEL 1
REMARK VINA RESULT:      -6.6      0.000      0.000
REMARK  Name = NuBBE_1733
REMARK  4 active torsions:
REMARK  status: ('A' for Active; 'I' for Inactive)
REMARK    1  A    between atoms: C_1  and  C_14
REMARK    2  A    between atoms: C_1  and  C_15
REMARK    3  A    between atoms: C_5  and  C_13
REMARK    4  A    between atoms: C_9  and  C_12
REMARK                            x       y       z     vdW  Elec       q    Type
REMARK                         _______ _______ _______ _____ _____    ______ ____
ROOT
ATOM      1  C   LIG A   1      -7.022  -1.125 123.477  0.00  0.00    -0.076 C 
ATOM      2  C   LIG A   1      -6.394  -1.776 124.493  0.00  0.00    -0.067 C 
ATOM      3  C   LIG A   1      -6.406  -3.290 124.649  0.00  0.00    +0.035 C 
ATOM      4  C   LIG A   1      -7.689  -3.953 125.215  0.00  0.00    +0.034 C 
ATOM      5  C   LIG A   1      -8.608  -3.252 126.216  0.00  0.00    -0.076 C 
ATOM      6  C   LIG A   1      -8.905  -3.723 127.450  0.00  0.00    -0.027 C 
ATOM      7  C   LIG A   1      -8.097  -3.496 128.730  0.00  0.00    +0.031 C 
ATOM      8  C   LIG A   1      -7.378  -2.136 128.910  0.00  0.00    +0.034 C 
ATOM      9  C   LIG A   1      -6.244  -1.909 127.937  0.00  0.00    -0.076 C 
ATOM     10  C   LIG A   1      -6.435  -1.113 126.885  0.00  0.00    -0.024 C 
ATOM     11  C   LIG A   1      -5.623  -1.079 125.618  0.00  0.00    +0.057 C 
ATOM     12  C   LIG A   1      -4.990  -2.708 128.185  0.00  0.00    +0.038 C 
ATOM     13  C   LIG A   1      -9.529  -2.212 125.633  0.00  0.00    +0.038 C 
ATOM     14  C   LIG A   1      -7.732  -1.813 122.329  0.00  0.00    +0.038 C 
ATOM     15  C   LIG A   1      -7.183   0.375 123.404  0.00  0.00    +0.038 C 
ENDROOT
TORSDOF 0
ENDMDL
MODEL 2
REMARK VINA RESULT:      -6.5      1.758      3.396
REMARK  Name = NuBBE_1733
REMARK  4 active torsions:
REMARK  status: ('A' for Active; 'I' for Inactive)
REMARK    1  A    between atoms: C_1  and  C_14
REMARK    2  A    between atoms: C_1  and  C_15
REMARK    3  A    between atoms: C_5  and  C_13
REMARK    4  A    between atoms: C_9  and  C_12
REMARK                            x       y       z     vdW  Elec       q    Type
REMARK                         _______ _______ _______ _____ _____    ______ ____
ROOT
ATOM      1  C   LIG A   1      -7.637   1.974 124.104  0.00  0.00    -0.076 C 
ATOM      2  C   LIG A   1      -7.267   0.826 124.733  0.00  0.00    -0.067 C 
ATOM      3  C   LIG A   1      -6.394  -0.238 124.084  0.00  0.00    +0.035 C 
ATOM      4  C   LIG A   1      -7.054  -1.191 123.054  0.00  0.00    +0.034 C 
ATOM      5  C   LIG A   1      -8.523  -1.606 123.136  0.00  0.00    -0.076 C 
ATOM      6  C   LIG A   1      -8.958  -2.884 123.246  0.00  0.00    -0.027 C 
ATOM      7  C   LIG A   1      -9.135  -3.677 124.542  0.00  0.00    +0.031 C 
ATOM      8  C   LIG A   1      -9.602  -2.915 125.808  0.00  0.00    +0.034 C 
ATOM      9  C   LIG A   1      -8.588  -1.928 126.336  0.00  0.00    -0.076 C 
ATOM     10  C   LIG A   1      -8.752  -0.628 126.091  0.00  0.00    -0.024 C 
ATOM     11  C   LIG A   1      -7.696   0.443 126.153  0.00  0.00    +0.057 C 
ATOM     12  C   LIG A   1      -7.385  -2.521 127.026  0.00  0.00    +0.038 C 
ATOM     13  C   LIG A   1      -9.516  -0.577 122.662  0.00  0.00    +0.038 C 
ATOM     14  C   LIG A   1      -7.165   2.385 122.725  0.00  0.00    +0.038 C 
ATOM     15  C   LIG A   1      -8.650   2.951 124.654  0.00  0.00    +0.038 C 
ENDROOT
TORSDOF 0
ENDMDL
MODEL 3
REMARK VINA RESULT:      -6.4      0.983      4.477
REMARK  Name = NuBBE_1733
REMARK  4 active torsions:
REMARK  status: ('A' for Active; 'I' for Inactive)
REMARK    1  A    between atoms: C_1  and  C_14
REMARK    2  A    between atoms: C_1  and  C_15
REMARK    3  A    between atoms: C_5  and  C_13
REMARK    4  A    between atoms: C_9  and  C_12
REMARK                            x       y       z     vdW  Elec       q    Type
REMARK                         _______ _______ _______ _____ _____    ______ ____
ROOT
ATOM      1  C   LIG A   1      -6.631  -2.265 127.991  0.00  0.00    -0.076 C 
ATOM      2  C   LIG A   1      -6.963  -1.394 127.001  0.00  0.00    -0.067 C 
ATOM      3  C   LIG A   1      -8.398  -1.003 126.676  0.00  0.00    +0.035 C 
ATOM      4  C   LIG A   1      -9.262  -2.012 125.876  0.00  0.00    +0.034 C 
ATOM      5  C   LIG A   1      -8.669  -2.974 124.847  0.00  0.00    -0.076 C 
ATOM      6  C   LIG A   1      -9.018  -3.017 123.539  0.00  0.00    -0.027 C 
ATOM      7  C   LIG A   1      -8.426  -2.169 122.411  0.00  0.00    +0.031 C 
ATOM      8  C   LIG A   1      -6.922  -1.806 122.480  0.00  0.00    +0.034 C 
ATOM      9  C   LIG A   1      -6.569  -0.871 123.613  0.00  0.00    -0.076 C 
ATOM     10  C   LIG A   1      -5.998  -1.363 124.713  0.00  0.00    -0.024 C 
ATOM     11  C   LIG A   1      -5.950  -0.717 126.072  0.00  0.00    +0.057 C 
ATOM     12  C   LIG A   1      -7.001   0.564 123.445  0.00  0.00    +0.038 C 
ATOM     13  C   LIG A   1      -7.973  -4.184 125.415  0.00  0.00    +0.038 C 
ATOM     14  C   LIG A   1      -7.624  -2.887 128.951  0.00  0.00    +0.038 C 
ATOM     15  C   LIG A   1      -5.238  -2.809 128.209  0.00  0.00    +0.038 C 
ENDROOT
TORSDOF 0
ENDMDL
MODEL 4
REMARK VINA RESULT:      -6.3      1.583      3.841
REMARK  Name = NuBBE_1733
REMARK  4 active torsions:
REMARK  status: ('A' for Active; 'I' for Inactive)
REMARK    1  A    between atoms: C_1  and  C_14
REMARK    2  A    between atoms: C_1  and  C_15
REMARK    3  A    between atoms: C_5  and  C_13
REMARK    4  A    between atoms: C_9  and  C_12
REMARK                            x       y       z     vdW  Elec       q    Type
REMARK                         _______ _______ _______ _____ _____    ______ ____
ROOT
ATOM      1  C   LIG A   1      -7.668   1.765 125.011  0.00  0.00    -0.076 C 
ATOM      2  C   LIG A   1      -7.680   0.630 125.760  0.00  0.00    -0.067 C 
ATOM      3  C   LIG A   1      -6.416  -0.055 126.262  0.00  0.00    +0.035 C 
ATOM      4  C   LIG A   1      -5.601  -0.906 125.254  0.00  0.00    +0.034 C 
ATOM      5  C   LIG A   1      -6.251  -1.653 124.089  0.00  0.00    -0.076 C 
ATOM      6  C   LIG A   1      -6.180  -2.992 123.896  0.00  0.00    -0.027 C 
ATOM      7  C   LIG A   1      -7.110  -4.048 124.495  0.00  0.00    +0.031 C 
ATOM      8  C   LIG A   1      -8.603  -3.684 124.688  0.00  0.00    +0.034 C 
ATOM      9  C   LIG A   1      -8.843  -2.618 125.732  0.00  0.00    -0.076 C 
ATOM     10  C   LIG A   1      -9.095  -1.368 125.344  0.00  0.00    -0.024 C 
ATOM     11  C   LIG A   1      -8.951  -0.119 126.172  0.00  0.00    +0.057 C 
ATOM     12  C   LIG A   1      -8.668  -3.047 127.168  0.00  0.00    +0.038 C 
ATOM     13  C   LIG A   1      -6.631  -0.804 122.903  0.00  0.00    +0.038 C 
ATOM     14  C   LIG A   1      -6.417   2.542 124.655  0.00  0.00    +0.038 C 
ATOM     15  C   LIG A   1      -8.891   2.354 124.348  0.00  0.00    +0.038 C 
ENDROOT
TORSDOF 0
ENDMDL
MODEL 5
REMARK VINA RESULT:      -6.3      1.371      4.781
REMARK  Name = NuBBE_1733
REMARK  4 active torsions:
REMARK  status: ('A' for Active; 'I' for Inactive)
REMARK    1  A    between atoms: C_1  and  C_14
REMARK    2  A    between atoms: C_1  and  C_15
REMARK    3  A    between atoms: C_5  and  C_13
REMARK    4  A    between atoms: C_9  and  C_12
REMARK                            x       y       z     vdW  Elec       q    Type
REMARK                         _______ _______ _______ _____ _____    ______ ____
ROOT
ATOM      1  C   LIG A   1      -8.256  -2.306 127.856  0.00  0.00    -0.076 C 
ATOM      2  C   LIG A   1      -8.716  -2.099 126.593  0.00  0.00    -0.067 C 
ATOM      3  C   LIG A   1      -8.933  -3.222 125.589  0.00  0.00    +0.035 C 
ATOM      4  C   LIG A   1      -7.687  -3.813 124.879  0.00  0.00    +0.034 C 
ATOM      5  C   LIG A   1      -6.440  -2.983 124.572  0.00  0.00    -0.076 C 
ATOM      6  C   LIG A   1      -5.933  -2.781 123.333  0.00  0.00    -0.027 C 
ATOM      7  C   LIG A   1      -6.346  -1.685 122.348  0.00  0.00    +0.031 C 
ATOM      8  C   LIG A   1      -6.747  -0.301 122.920  0.00  0.00    +0.034 C 
ATOM      9  C   LIG A   1      -8.028  -0.318 123.720  0.00  0.00    -0.076 C 
ATOM     10  C   LIG A   1      -7.967  -0.303 125.052  0.00  0.00    -0.024 C 
ATOM     11  C   LIG A   1      -9.049  -0.722 126.011  0.00  0.00    +0.057 C 
ATOM     12  C   LIG A   1      -9.302  -0.461 122.926  0.00  0.00    +0.038 C 
ATOM     13  C   LIG A   1      -5.524  -2.732 125.742  0.00  0.00    +0.038 C 
ATOM     14  C   LIG A   1      -7.985  -3.670 128.456  0.00  0.00    +0.038 C 
ATOM     15  C   LIG A   1      -7.856  -1.198 128.803  0.00  0.00    +0.038 C 
ENDROOT
TORSDOF 0
ENDMDL
MODEL 6
REMARK VINA RESULT:      -6.2      1.943      4.645
REMARK  Name = NuBBE_1733
REMARK  4 active torsions:
REMARK  status: ('A' for Active; 'I' for Inactive)
REMARK    1  A    between atoms: C_1  and  C_14
REMARK    2  A    between atoms: C_1  and  C_15
REMARK    3  A    between atoms: C_5  and  C_13
REMARK    4  A    between atoms: C_9  and  C_12
REMARK                            x       y       z     vdW  Elec       q    Type
REMARK                         _______ _______ _______ _____ _____    ______ ____
ROOT
ATOM      1  C   LIG A   1      -8.326   0.900 126.969  0.00  0.00    -0.076 C 
ATOM      2  C   LIG A   1      -8.587  -0.174 126.175  0.00  0.00    -0.067 C 
ATOM      3  C   LIG A   1      -8.426  -1.615 126.638  0.00  0.00    +0.035 C 
ATOM      4  C   LIG A   1      -6.993  -2.201 126.708  0.00  0.00    +0.034 C 
ATOM      5  C   LIG A   1      -5.874  -1.760 125.764  0.00  0.00    -0.076 C 
ATOM      6  C   LIG A   1      -5.200  -2.584 124.928  0.00  0.00    -0.027 C 
ATOM      7  C   LIG A   1      -5.616  -2.981 123.510  0.00  0.00    +0.031 C 
ATOM      8  C   LIG A   1      -6.344  -1.926 122.639  0.00  0.00    +0.034 C 
ATOM      9  C   LIG A   1      -7.723  -1.566 123.139  0.00  0.00    -0.076 C 
ATOM     10  C   LIG A   1      -7.900  -0.423 123.803  0.00  0.00    -0.024 C 
ATOM     11  C   LIG A   1      -9.044  -0.076 124.717  0.00  0.00    +0.057 C 
ATOM     12  C   LIG A   1      -8.794  -2.607 122.934  0.00  0.00    +0.038 C 
ATOM     13  C   LIG A   1      -5.233  -0.435 126.091  0.00  0.00    +0.038 C 
ATOM     14  C   LIG A   1      -7.934   0.808 128.430  0.00  0.00    +0.038 C 
ATOM     15  C   LIG A   1      -8.296   2.328 126.479  0.00  0.00    +0.038 C 
ENDROOT
TORSDOF 0
ENDMDL
MODEL 7
REMARK VINA RESULT:      -6.0      1.359      4.624
REMARK  Name = NuBBE_1733
REMARK  4 active torsions:
REMARK  status: ('A' for Active; 'I' for Inactive)
REMARK    1  A    between atoms: C_1  and  C_14
REMARK    2  A    between atoms: C_1  and  C_15
REMARK    3  A    between atoms: C_5  and  C_13
REMARK    4  A    between atoms: C_9  and  C_12
REMARK                            x       y       z     vdW  Elec       q    Type
REMARK                         _______ _______ _______ _____ _____    ______ ____
ROOT
ATOM      1  C   LIG A   1      -6.700  -0.470 128.146  0.00  0.00    -0.076 C 
ATOM      2  C   LIG A   1      -6.814  -1.560 127.341  0.00  0.00    -0.067 C 
ATOM      3  C   LIG A   1      -5.685  -2.067 126.454  0.00  0.00    +0.035 C 
ATOM      4  C   LIG A   1      -5.400  -1.306 125.134  0.00  0.00    +0.034 C 
ATOM      5  C   LIG A   1      -6.494  -0.591 124.340  0.00  0.00    -0.076 C 
ATOM      6  C   LIG A   1      -6.822  -0.869 123.056  0.00  0.00    -0.027 C 
ATOM      7  C   LIG A   1      -7.810  -1.936 122.579  0.00  0.00    +0.031 C 
ATOM      8  C   LIG A   1      -9.059  -2.218 123.450  0.00  0.00    +0.034 C 
ATOM      9  C   LIG A   1      -8.743  -2.848 124.787  0.00  0.00    -0.076 C 
ATOM     10  C   LIG A   1      -8.754  -2.092 125.885  0.00  0.00    -0.024 C 
ATOM     11  C   LIG A   1      -8.089  -2.399 127.200  0.00  0.00    +0.057 C 
ATOM     12  C   LIG A   1      -8.327  -4.297 124.753  0.00  0.00    +0.038 C 
ATOM     13  C   LIG A   1      -6.930   0.742 124.890  0.00  0.00    +0.038 C 
ATOM     14  C   LIG A   1      -5.424   0.324 128.335  0.00  0.00    +0.038 C 
ATOM     15  C   LIG A   1      -7.857   0.160 128.887  0.00  0.00    +0.038 C 
ENDROOT
TORSDOF 0
ENDMDL
MODEL 8
REMARK VINA RESULT:      -6.0      1.620      4.037
REMARK  Name = NuBBE_1733
REMARK  4 active torsions:
REMARK  status: ('A' for Active; 'I' for Inactive)
REMARK    1  A    between atoms: C_1  and  C_14
REMARK    2  A    between atoms: C_1  and  C_15
REMARK    3  A    between atoms: C_5  and  C_13
REMARK    4  A    between atoms: C_9  and  C_12
REMARK                            x       y       z     vdW  Elec       q    Type
REMARK                         _______ _______ _______ _____ _____    ______ ____
ROOT
ATOM      1  C   LIG A   1      -6.588   0.667 127.734  0.00  0.00    -0.076 C 
ATOM      2  C   LIG A   1      -6.749   0.349 126.421  0.00  0.00    -0.067 C 
ATOM      3  C   LIG A   1      -8.091   0.404 125.705  0.00  0.00    +0.035 C 
ATOM      4  C   LIG A   1      -9.095  -0.750 125.954  0.00  0.00    +0.034 C 
ATOM      5  C   LIG A   1      -8.650  -2.181 126.258  0.00  0.00    -0.076 C 
ATOM      6  C   LIG A   1      -8.974  -3.265 125.513  0.00  0.00    -0.027 C 
ATOM      7  C   LIG A   1      -8.226  -3.780 124.282  0.00  0.00    +0.031 C 
ATOM      8  C   LIG A   1      -6.683  -3.637 124.251  0.00  0.00    +0.034 C 
ATOM      9  C   LIG A   1      -6.203  -2.207 124.170  0.00  0.00    -0.076 C 
ATOM     10  C   LIG A   1      -5.745  -1.608 125.270  0.00  0.00    -0.024 C 
ATOM     11  C   LIG A   1      -5.617  -0.127 125.505  0.00  0.00    +0.057 C 
ATOM     12  C   LIG A   1      -6.384  -1.523 122.838  0.00  0.00    +0.038 C 
ATOM     13  C   LIG A   1      -8.179  -2.429 127.668  0.00  0.00    +0.038 C 
ATOM     14  C   LIG A   1      -7.692   1.197 128.627  0.00  0.00    +0.038 C 
ATOM     15  C   LIG A   1      -5.312   0.441 128.510  0.00  0.00    +0.038 C 
ENDROOT
TORSDOF 0
ENDMDL
MODEL 9
REMARK VINA RESULT:      -5.8      1.621      4.048
REMARK  Name = NuBBE_1733
REMARK  4 active torsions:
REMARK  status: ('A' for Active; 'I' for Inactive)
REMARK    1  A    between atoms: C_1  and  C_14
REMARK    2  A    between atoms: C_1  and  C_15
REMARK    3  A    between atoms: C_5  and  C_13
REMARK    4  A    between atoms: C_9  and  C_12
REMARK                            x       y       z     vdW  Elec       q    Type
REMARK                         _______ _______ _______ _____ _____    ______ ____
ROOT
ATOM      1  C   LIG A   1      -8.542  -3.188 124.739  0.00  0.00    -0.076 C 
ATOM      2  C   LIG A   1      -8.427  -2.191 125.657  0.00  0.00    -0.067 C 
ATOM      3  C   LIG A   1      -9.255  -0.916 125.615  0.00  0.00    +0.035 C 
ATOM      4  C   LIG A   1      -8.853   0.180 124.594  0.00  0.00    +0.034 C 
ATOM      5  C   LIG A   1      -7.407   0.404 124.151  0.00  0.00    -0.076 C 
ATOM      6  C   LIG A   1      -6.724   1.565 124.302  0.00  0.00    -0.027 C 
ATOM      7  C   LIG A   1      -5.933   2.001 125.536  0.00  0.00    +0.031 C 
ATOM      8  C   LIG A   1      -5.187   0.913 126.349  0.00  0.00    +0.034 C 
ATOM      9  C   LIG A   1      -6.104  -0.058 127.056  0.00  0.00    -0.076 C 
ATOM     10  C   LIG A   1      -6.295  -1.272 126.538  0.00  0.00    -0.024 C 
ATOM     11  C   LIG A   1      -7.438  -2.208 126.827  0.00  0.00    +0.057 C 
ATOM     12  C   LIG A   1      -6.830   0.477 128.265  0.00  0.00    +0.038 C 
ATOM     13  C   LIG A   1      -6.876  -0.582 123.142  0.00  0.00    +0.038 C 
ATOM     14  C   LIG A   1      -9.560  -3.204 123.617  0.00  0.00    +0.038 C 
ATOM     15  C   LIG A   1      -7.606  -4.371 124.651  0.00  0.00    +0.038 C 
ENDROOT
TORSDOF 0
ENDMDL
