MODEL 1
REMARK VINA RESULT:      -7.6      0.000      0.000
REMARK  Name = NuBBE_1963
REMARK  6 active torsions:
REMARK  status: ('A' for Active; 'I' for Inactive)
REMARK    1  A    between atoms: C_8  and  O_9
REMARK    2  A    between atoms: C_11  and  O_13
REMARK    3  A    between atoms: O_13  and  C_14
REMARK    4  A    between atoms: C_16  and  O_20
REMARK    5  A    between atoms: C_18  and  C_19
REMARK    6  A    between atoms: O_20  and  C_21
REMARK                            x       y       z     vdW  Elec       q    Type
REMARK                         _______ _______ _______ _____ _____    ______ ____
ROOT
ATOM      1  O   LIG A   1     -10.128   5.573 133.161  0.00  0.00    -0.286 OA
ATOM      2  C   LIG A   1      -9.434   6.094 132.290  0.00  0.00    +0.204 A 
ATOM      3  C   LIG A   1      -7.958   6.137 132.341  0.00  0.00    +0.068 A 
ATOM      4  C   LIG A   1      -7.309   6.776 131.279  0.00  0.00    +0.143 A 
ATOM      5  O   LIG A   1      -7.945   7.363 130.212  0.00  0.00    -0.454 OA
ATOM      6  C   LIG A   1      -9.310   7.300 130.152  0.00  0.00    +0.146 A 
ATOM      7  C   LIG A   1     -10.096   6.704 131.130  0.00  0.00    +0.106 A 
ATOM      8  C   LIG A   1     -11.484   6.690 130.988  0.00  0.00    +0.135 A 
ATOM      9  C   LIG A   1     -12.085   7.261 129.870  0.00  0.00    +0.092 A 
ATOM     10  C   LIG A   1     -11.299   7.849 128.878  0.00  0.00    +0.127 A 
ATOM     11  C   LIG A   1      -9.909   7.873 129.027  0.00  0.00    +0.092 A 
ATOM     12  C   LIG A   1      -5.916   6.857 131.240  0.00  0.00    +0.092 A 
ATOM     13  C   LIG A   1      -5.153   6.299 132.258  0.00  0.00    +0.124 A 
ATOM     14  C   LIG A   1      -5.798   5.663 133.324  0.00  0.00    +0.050 A 
ATOM     15  C   LIG A   1      -7.201   5.569 133.385  0.00  0.00    -0.033 A 
ATOM     16  C   LIG A   1      -7.829   4.869 134.560  0.00  0.00    +0.045 C 
ENDROOT
BRANCH   8  17
ATOM     17  O   LIG A   1     -12.326   6.124 131.909  0.00  0.00    -0.506 OA
ATOM     18  H   LIG A   1     -12.133   5.159 131.935  0.00  0.00    +0.292 HD
ENDBRANCH   8  17
BRANCH  10  19
ATOM     19  O   LIG A   1     -11.772   8.417 127.726  0.00  0.00    -0.495 OA
ATOM     20  C   LIG A   1     -11.447   7.734 126.518  0.00  0.00    +0.277 C 
ENDBRANCH  10  19
BRANCH  13  21
ATOM     21  O   LIG A   1      -3.787   6.309 132.321  0.00  0.00    -0.495 OA
ATOM     22  C   LIG A   1      -3.148   7.541 131.998  0.00  0.00    +0.277 C 
ENDBRANCH  13  21
TORSDOF 3
ENDMDL
MODEL 2
REMARK VINA RESULT:      -7.5      2.660      3.809
REMARK  Name = NuBBE_1963
REMARK  6 active torsions:
REMARK  status: ('A' for Active; 'I' for Inactive)
REMARK    1  A    between atoms: C_8  and  O_9
REMARK    2  A    between atoms: C_11  and  O_13
REMARK    3  A    between atoms: O_13  and  C_14
REMARK    4  A    between atoms: C_16  and  O_20
REMARK    5  A    between atoms: C_18  and  C_19
REMARK    6  A    between atoms: O_20  and  C_21
REMARK                            x       y       z     vdW  Elec       q    Type
REMARK                         _______ _______ _______ _____ _____    ______ ____
ROOT
ATOM      1  O   LIG A   1      -9.003   5.324 128.162  0.00  0.00    -0.286 OA
ATOM      2  C   LIG A   1      -9.583   5.784 129.144  0.00  0.00    +0.204 A 
ATOM      3  C   LIG A   1      -9.290   5.369 130.532  0.00  0.00    +0.068 A 
ATOM      4  C   LIG A   1     -10.044   5.977 131.543  0.00  0.00    +0.143 A 
ATOM      5  O   LIG A   1     -11.026   6.913 131.332  0.00  0.00    -0.454 OA
ATOM      6  C   LIG A   1     -11.279   7.315 130.049  0.00  0.00    +0.146 A 
ATOM      7  C   LIG A   1     -10.619   6.804 128.939  0.00  0.00    +0.106 A 
ATOM      8  C   LIG A   1     -10.945   7.271 127.665  0.00  0.00    +0.135 A 
ATOM      9  C   LIG A   1     -11.919   8.251 127.501  0.00  0.00    +0.092 A 
ATOM     10  C   LIG A   1     -12.575   8.778 128.614  0.00  0.00    +0.127 A 
ATOM     11  C   LIG A   1     -12.257   8.300 129.888  0.00  0.00    +0.092 A 
ATOM     12  C   LIG A   1      -9.830   5.652 132.883  0.00  0.00    +0.092 A 
ATOM     13  C   LIG A   1      -8.860   4.721 133.233  0.00  0.00    +0.124 A 
ATOM     14  C   LIG A   1      -8.108   4.109 132.225  0.00  0.00    +0.050 A 
ATOM     15  C   LIG A   1      -8.306   4.419 130.866  0.00  0.00    -0.033 A 
ATOM     16  C   LIG A   1      -7.459   3.724 129.835  0.00  0.00    +0.045 C 
ENDROOT
BRANCH   8  17
ATOM     17  O   LIG A   1     -10.341   6.816 126.522  0.00  0.00    -0.506 OA
ATOM     18  H   LIG A   1      -9.477   6.419 126.780  0.00  0.00    +0.292 HD
ENDBRANCH   8  17
BRANCH  10  19
ATOM     19  O   LIG A   1     -13.529   9.759 128.579  0.00  0.00    -0.495 OA
ATOM     20  C   LIG A   1     -13.512  10.680 129.666  0.00  0.00    +0.277 C 
ENDBRANCH  10  19
BRANCH  13  21
ATOM     21  O   LIG A   1      -8.557   4.332 134.509  0.00  0.00    -0.495 OA
ATOM     22  C   LIG A   1      -7.577   5.110 135.191  0.00  0.00    +0.277 C 
ENDBRANCH  13  21
TORSDOF 3
ENDMDL
MODEL 3
REMARK VINA RESULT:      -7.1      2.807      6.813
REMARK  Name = NuBBE_1963
REMARK  6 active torsions:
REMARK  status: ('A' for Active; 'I' for Inactive)
REMARK    1  A    between atoms: C_8  and  O_9
REMARK    2  A    between atoms: C_11  and  O_13
REMARK    3  A    between atoms: O_13  and  C_14
REMARK    4  A    between atoms: C_16  and  O_20
REMARK    5  A    between atoms: C_18  and  C_19
REMARK    6  A    between atoms: O_20  and  C_21
REMARK                            x       y       z     vdW  Elec       q    Type
REMARK                         _______ _______ _______ _____ _____    ______ ____
ROOT
ATOM      1  O   LIG A   1      -9.356   5.715 127.872  0.00  0.00    -0.286 OA
ATOM      2  C   LIG A   1      -9.888   6.082 128.918  0.00  0.00    +0.204 A 
ATOM      3  C   LIG A   1     -10.912   7.145 128.982  0.00  0.00    +0.068 A 
ATOM      4  C   LIG A   1     -11.417   7.458 130.249  0.00  0.00    +0.143 A 
ATOM      5  O   LIG A   1     -11.024   6.855 131.420  0.00  0.00    -0.454 OA
ATOM      6  C   LIG A   1     -10.095   5.853 131.356  0.00  0.00    +0.146 A 
ATOM      7  C   LIG A   1      -9.498   5.431 130.175  0.00  0.00    +0.106 A 
ATOM      8  C   LIG A   1      -8.556   4.402 130.205  0.00  0.00    +0.135 A 
ATOM      9  C   LIG A   1      -8.218   3.791 131.409  0.00  0.00    +0.092 A 
ATOM     10  C   LIG A   1      -8.825   4.202 132.597  0.00  0.00    +0.127 A 
ATOM     11  C   LIG A   1      -9.759   5.241 132.567  0.00  0.00    +0.092 A 
ATOM     12  C   LIG A   1     -12.392   8.444 130.404  0.00  0.00    +0.092 A 
ATOM     13  C   LIG A   1     -12.880   9.128 129.297  0.00  0.00    +0.124 A 
ATOM     14  C   LIG A   1     -12.374   8.821 128.029  0.00  0.00    +0.050 A 
ATOM     15  C   LIG A   1     -11.390   7.831 127.849  0.00  0.00    -0.033 A 
ATOM     16  C   LIG A   1     -10.893   7.551 126.456  0.00  0.00    +0.045 C 
ENDROOT
BRANCH   8  17
ATOM     17  O   LIG A   1      -7.923   3.932 129.085  0.00  0.00    -0.506 OA
ATOM     18  H   LIG A   1      -6.997   3.713 129.336  0.00  0.00    +0.292 HD
ENDBRANCH   8  17
BRANCH  10  19
ATOM     19  O   LIG A   1      -8.592   3.661 133.832  0.00  0.00    -0.495 OA
ATOM     20  C   LIG A   1      -8.166   4.575 134.839  0.00  0.00    +0.277 C 
ENDBRANCH  10  19
BRANCH  13  21
ATOM     21  O   LIG A   1     -13.838  10.103 129.326  0.00  0.00    -0.495 OA
ATOM     22  C   LIG A   1     -13.508  11.293 130.037  0.00  0.00    +0.277 C 
ENDBRANCH  13  21
TORSDOF 3
ENDMDL
MODEL 4
REMARK VINA RESULT:      -6.9      9.614     10.419
REMARK  Name = NuBBE_1963
REMARK  6 active torsions:
REMARK  status: ('A' for Active; 'I' for Inactive)
REMARK    1  A    between atoms: C_8  and  O_9
REMARK    2  A    between atoms: C_11  and  O_13
REMARK    3  A    between atoms: O_13  and  C_14
REMARK    4  A    between atoms: C_16  and  O_20
REMARK    5  A    between atoms: C_18  and  C_19
REMARK    6  A    between atoms: O_20  and  C_21
REMARK                            x       y       z     vdW  Elec       q    Type
REMARK                         _______ _______ _______ _____ _____    ______ ____
ROOT
ATOM      1  O   LIG A   1      -9.763  -0.533 123.909  0.00  0.00    -0.286 OA
ATOM      2  C   LIG A   1      -8.592  -0.333 124.225  0.00  0.00    +0.204 A 
ATOM      3  C   LIG A   1      -7.575  -1.402 124.308  0.00  0.00    +0.068 A 
ATOM      4  C   LIG A   1      -6.286  -1.016 124.693  0.00  0.00    +0.143 A 
ATOM      5  O   LIG A   1      -5.911   0.269 124.999  0.00  0.00    -0.454 OA
ATOM      6  C   LIG A   1      -6.847   1.262 124.897  0.00  0.00    +0.146 A 
ATOM      7  C   LIG A   1      -8.168   1.040 124.532  0.00  0.00    +0.106 A 
ATOM      8  C   LIG A   1      -9.055   2.114 124.457  0.00  0.00    +0.135 A 
ATOM      9  C   LIG A   1      -8.622   3.407 124.736  0.00  0.00    +0.092 A 
ATOM     10  C   LIG A   1      -7.292   3.638 125.090  0.00  0.00    +0.127 A 
ATOM     11  C   LIG A   1      -6.408   2.559 125.177  0.00  0.00    +0.092 A 
ATOM     12  C   LIG A   1      -5.260  -1.958 124.791  0.00  0.00    +0.092 A 
ATOM     13  C   LIG A   1      -5.507  -3.295 124.503  0.00  0.00    +0.124 A 
ATOM     14  C   LIG A   1      -6.795  -3.684 124.122  0.00  0.00    +0.050 A 
ATOM     15  C   LIG A   1      -7.846  -2.753 124.018  0.00  0.00    -0.033 A 
ATOM     16  C   LIG A   1      -9.206  -3.241 123.600  0.00  0.00    +0.045 C 
ENDROOT
BRANCH   8  17
ATOM     17  O   LIG A   1     -10.372   1.975 124.107  0.00  0.00    -0.506 OA
ATOM     18  H   LIG A   1     -10.827   2.823 124.316  0.00  0.00    +0.292 HD
ENDBRANCH   8  17
BRANCH  10  19
ATOM     19  O   LIG A   1      -6.748   4.864 125.362  0.00  0.00    -0.495 OA
ATOM     20  C   LIG A   1      -5.444   4.849 125.937  0.00  0.00    +0.277 C 
ENDBRANCH  10  19
BRANCH  13  21
ATOM     21  O   LIG A   1      -4.581  -4.301 124.555  0.00  0.00    -0.495 OA
ATOM     22  C   LIG A   1      -4.245  -4.915 123.314  0.00  0.00    +0.277 C 
ENDBRANCH  13  21
TORSDOF 3
ENDMDL
MODEL 5
REMARK VINA RESULT:      -6.7      8.528      9.979
REMARK  Name = NuBBE_1963
REMARK  6 active torsions:
REMARK  status: ('A' for Active; 'I' for Inactive)
REMARK    1  A    between atoms: C_8  and  O_9
REMARK    2  A    between atoms: C_11  and  O_13
REMARK    3  A    between atoms: O_13  and  C_14
REMARK    4  A    between atoms: C_16  and  O_20
REMARK    5  A    between atoms: C_18  and  C_19
REMARK    6  A    between atoms: O_20  and  C_21
REMARK                            x       y       z     vdW  Elec       q    Type
REMARK                         _______ _______ _______ _____ _____    ______ ____
ROOT
ATOM      1  O   LIG A   1      -9.633  -0.667 123.773  0.00  0.00    -0.286 OA
ATOM      2  C   LIG A   1      -9.039  -0.291 124.782  0.00  0.00    +0.204 A 
ATOM      3  C   LIG A   1      -8.589   1.100 124.993  0.00  0.00    +0.068 A 
ATOM      4  C   LIG A   1      -7.915   1.370 126.189  0.00  0.00    +0.143 A 
ATOM      5  O   LIG A   1      -7.644   0.439 127.163  0.00  0.00    -0.454 OA
ATOM      6  C   LIG A   1      -8.084  -0.843 126.978  0.00  0.00    +0.146 A 
ATOM      7  C   LIG A   1      -8.763  -1.268 125.843  0.00  0.00    +0.106 A 
ATOM      8  C   LIG A   1      -9.171  -2.598 125.740  0.00  0.00    +0.135 A 
ATOM      9  C   LIG A   1      -8.911  -3.498 126.769  0.00  0.00    +0.092 A 
ATOM     10  C   LIG A   1      -8.242  -3.073 127.917  0.00  0.00    +0.127 A 
ATOM     11  C   LIG A   1      -7.821  -1.744 128.014  0.00  0.00    +0.092 A 
ATOM     12  C   LIG A   1      -7.460   2.658 126.476  0.00  0.00    +0.092 A 
ATOM     13  C   LIG A   1      -7.675   3.694 125.575  0.00  0.00    +0.124 A 
ATOM     14  C   LIG A   1      -8.344   3.427 124.376  0.00  0.00    +0.050 A 
ATOM     15  C   LIG A   1      -8.811   2.136 124.064  0.00  0.00    -0.033 A 
ATOM     16  C   LIG A   1      -9.526   1.921 122.758  0.00  0.00    +0.045 C 
ENDROOT
BRANCH   8  17
ATOM     17  O   LIG A   1      -9.843  -3.093 124.653  0.00  0.00    -0.506 OA
ATOM     18  H   LIG A   1     -10.725  -2.655 124.623  0.00  0.00    +0.292 HD
ENDBRANCH   8  17
BRANCH  10  19
ATOM     19  O   LIG A   1      -7.953  -3.858 129.000  0.00  0.00    -0.495 OA
ATOM     20  C   LIG A   1      -7.410  -3.180 130.130  0.00  0.00    +0.277 C 
ENDBRANCH  10  19
BRANCH  13  21
ATOM     21  O   LIG A   1      -7.285   4.993 125.752  0.00  0.00    -0.495 OA
ATOM     22  C   LIG A   1      -6.056   5.372 125.139  0.00  0.00    +0.277 C 
ENDBRANCH  13  21
TORSDOF 3
ENDMDL
MODEL 6
REMARK VINA RESULT:      -6.5      9.225      9.682
REMARK  Name = NuBBE_1963
REMARK  6 active torsions:
REMARK  status: ('A' for Active; 'I' for Inactive)
REMARK    1  A    between atoms: C_8  and  O_9
REMARK    2  A    between atoms: C_11  and  O_13
REMARK    3  A    between atoms: O_13  and  C_14
REMARK    4  A    between atoms: C_16  and  O_20
REMARK    5  A    between atoms: C_18  and  C_19
REMARK    6  A    between atoms: O_20  and  C_21
REMARK                            x       y       z     vdW  Elec       q    Type
REMARK                         _______ _______ _______ _____ _____    ______ ____
ROOT
ATOM      1  O   LIG A   1      -9.572  -2.179 125.801  0.00  0.00    -0.286 OA
ATOM      2  C   LIG A   1      -8.555  -1.632 126.223  0.00  0.00    +0.204 A 
ATOM      3  C   LIG A   1      -7.817  -2.091 127.417  0.00  0.00    +0.068 A 
ATOM      4  C   LIG A   1      -6.681  -1.356 127.777  0.00  0.00    +0.143 A 
ATOM      5  O   LIG A   1      -6.220  -0.249 127.107  0.00  0.00    -0.454 OA
ATOM      6  C   LIG A   1      -6.889   0.159 125.986  0.00  0.00    +0.146 A 
ATOM      7  C   LIG A   1      -8.033  -0.462 125.504  0.00  0.00    +0.106 A 
ATOM      8  C   LIG A   1      -8.653   0.027 124.353  0.00  0.00    +0.135 A 
ATOM      9  C   LIG A   1      -8.126   1.127 123.682  0.00  0.00    +0.092 A 
ATOM     10  C   LIG A   1      -6.969   1.746 124.155  0.00  0.00    +0.127 A 
ATOM     11  C   LIG A   1      -6.357   1.264 125.314  0.00  0.00    +0.092 A 
ATOM     12  C   LIG A   1      -5.919  -1.722 128.888  0.00  0.00    +0.092 A 
ATOM     13  C   LIG A   1      -6.276  -2.828 129.650  0.00  0.00    +0.124 A 
ATOM     14  C   LIG A   1      -7.413  -3.562 129.295  0.00  0.00    +0.050 A 
ATOM     15  C   LIG A   1      -8.198  -3.211 128.181  0.00  0.00    -0.033 A 
ATOM     16  C   LIG A   1      -9.406  -4.048 127.855  0.00  0.00    +0.045 C 
ENDROOT
BRANCH   8  17
ATOM     17  O   LIG A   1      -9.784  -0.530 123.816  0.00  0.00    -0.506 OA
ATOM     18  H   LIG A   1     -10.532   0.084 123.997  0.00  0.00    +0.292 HD
ENDBRANCH   8  17
BRANCH  10  19
ATOM     19  O   LIG A   1      -6.348   2.815 123.567  0.00  0.00    -0.495 OA
ATOM     20  C   LIG A   1      -6.734   3.096 122.225  0.00  0.00    +0.277 C 
ENDBRANCH  10  19
BRANCH  13  21
ATOM     21  O   LIG A   1      -5.602  -3.284 130.749  0.00  0.00    -0.495 OA
ATOM     22  C   LIG A   1      -5.518  -4.699 130.896  0.00  0.00    +0.277 C 
ENDBRANCH  13  21
TORSDOF 3
ENDMDL
MODEL 7
REMARK VINA RESULT:      -6.5      8.060     10.034
REMARK  Name = NuBBE_1963
REMARK  6 active torsions:
REMARK  status: ('A' for Active; 'I' for Inactive)
REMARK    1  A    between atoms: C_8  and  O_9
REMARK    2  A    between atoms: C_11  and  O_13
REMARK    3  A    between atoms: O_13  and  C_14
REMARK    4  A    between atoms: C_16  and  O_20
REMARK    5  A    between atoms: C_18  and  C_19
REMARK    6  A    between atoms: O_20  and  C_21
REMARK                            x       y       z     vdW  Elec       q    Type
REMARK                         _______ _______ _______ _____ _____    ______ ____
ROOT
ATOM      1  O   LIG A   1      -8.616   3.421 124.261  0.00  0.00    -0.286 OA
ATOM      2  C   LIG A   1      -7.749   2.613 124.588  0.00  0.00    +0.204 A 
ATOM      3  C   LIG A   1      -7.844   1.162 124.323  0.00  0.00    +0.068 A 
ATOM      4  C   LIG A   1      -6.779   0.370 124.766  0.00  0.00    +0.143 A 
ATOM      5  O   LIG A   1      -5.672   0.844 125.427  0.00  0.00    -0.454 OA
ATOM      6  C   LIG A   1      -5.573   2.190 125.649  0.00  0.00    +0.146 A 
ATOM      7  C   LIG A   1      -6.547   3.106 125.273  0.00  0.00    +0.106 A 
ATOM      8  C   LIG A   1      -6.363   4.462 125.544  0.00  0.00    +0.135 A 
ATOM      9  C   LIG A   1      -5.206   4.904 126.180  0.00  0.00    +0.092 A 
ATOM     10  C   LIG A   1      -4.218   3.989 126.547  0.00  0.00    +0.127 A 
ATOM     11  C   LIG A   1      -4.409   2.630 126.287  0.00  0.00    +0.092 A 
ATOM     12  C   LIG A   1      -6.780  -1.009 124.553  0.00  0.00    +0.092 A 
ATOM     13  C   LIG A   1      -7.842  -1.615 123.890  0.00  0.00    +0.124 A 
ATOM     14  C   LIG A   1      -8.909  -0.826 123.449  0.00  0.00    +0.050 A 
ATOM     15  C   LIG A   1      -8.931   0.566 123.655  0.00  0.00    -0.033 A 
ATOM     16  C   LIG A   1     -10.110   1.354 123.151  0.00  0.00    +0.045 C 
ENDROOT
BRANCH   8  17
ATOM     17  O   LIG A   1      -7.277   5.425 125.207  0.00  0.00    -0.506 OA
ATOM     18  H   LIG A   1      -6.834   6.300 125.293  0.00  0.00    +0.292 HD
ENDBRANCH   8  17
BRANCH  10  19
ATOM     19  O   LIG A   1      -3.032   4.307 127.153  0.00  0.00    -0.495 OA
ATOM     20  C   LIG A   1      -1.988   3.347 127.014  0.00  0.00    +0.277 C 
ENDBRANCH  10  19
BRANCH  13  21
ATOM     21  O   LIG A   1      -7.947  -2.951 123.617  0.00  0.00    -0.495 OA
ATOM     22  C   LIG A   1      -8.281  -3.796 124.714  0.00  0.00    +0.277 C 
ENDBRANCH  13  21
TORSDOF 3
ENDMDL
MODEL 8
REMARK VINA RESULT:      -6.4      3.240      3.553
REMARK  Name = NuBBE_1963
REMARK  6 active torsions:
REMARK  status: ('A' for Active; 'I' for Inactive)
REMARK    1  A    between atoms: C_8  and  O_9
REMARK    2  A    between atoms: C_11  and  O_13
REMARK    3  A    between atoms: O_13  and  C_14
REMARK    4  A    between atoms: C_16  and  O_20
REMARK    5  A    between atoms: C_18  and  C_19
REMARK    6  A    between atoms: O_20  and  C_21
REMARK                            x       y       z     vdW  Elec       q    Type
REMARK                         _______ _______ _______ _____ _____    ______ ____
ROOT
ATOM      1  O   LIG A   1      -9.969   4.275 131.999  0.00  0.00    -0.286 OA
ATOM      2  C   LIG A   1      -9.691   4.669 130.868  0.00  0.00    +0.204 A 
ATOM      3  C   LIG A   1      -8.651   4.050 130.021  0.00  0.00    +0.068 A 
ATOM      4  C   LIG A   1      -8.444   4.620 128.760  0.00  0.00    +0.143 A 
ATOM      5  O   LIG A   1      -9.130   5.704 128.268  0.00  0.00    -0.454 OA
ATOM      6  C   LIG A   1     -10.111   6.260 129.043  0.00  0.00    +0.146 A 
ATOM      7  C   LIG A   1     -10.432   5.811 130.318  0.00  0.00    +0.106 A 
ATOM      8  C   LIG A   1     -11.447   6.443 131.038  0.00  0.00    +0.135 A 
ATOM      9  C   LIG A   1     -12.144   7.512 130.484  0.00  0.00    +0.092 A 
ATOM     10  C   LIG A   1     -11.835   7.959 129.199  0.00  0.00    +0.127 A 
ATOM     11  C   LIG A   1     -10.810   7.334 128.483  0.00  0.00    +0.092 A 
ATOM     12  C   LIG A   1      -7.487   4.097 127.890  0.00  0.00    +0.092 A 
ATOM     13  C   LIG A   1      -6.726   2.996 128.265  0.00  0.00    +0.124 A 
ATOM     14  C   LIG A   1      -6.928   2.426 129.526  0.00  0.00    +0.050 A 
ATOM     15  C   LIG A   1      -7.886   2.938 130.421  0.00  0.00    -0.033 A 
ATOM     16  C   LIG A   1      -8.051   2.273 131.762  0.00  0.00    +0.045 C 
ENDROOT
BRANCH   8  17
ATOM     17  O   LIG A   1     -11.820   6.060 132.299  0.00  0.00    -0.506 OA
ATOM     18  H   LIG A   1     -11.945   5.083 132.289  0.00  0.00    +0.292 HD
ENDBRANCH   8  17
BRANCH  10  19
ATOM     19  O   LIG A   1     -12.466   8.981 128.543  0.00  0.00    -0.495 OA
ATOM     20  C   LIG A   1     -13.163   9.910 129.369  0.00  0.00    +0.277 C 
ENDBRANCH  10  19
BRANCH  13  21
ATOM     21  O   LIG A   1      -5.770   2.393 127.495  0.00  0.00    -0.495 OA
ATOM     22  C   LIG A   1      -5.146   3.210 126.508  0.00  0.00    +0.277 C 
ENDBRANCH  13  21
TORSDOF 3
ENDMDL
MODEL 9
REMARK VINA RESULT:      -6.3      8.767      9.810
REMARK  Name = NuBBE_1963
REMARK  6 active torsions:
REMARK  status: ('A' for Active; 'I' for Inactive)
REMARK    1  A    between atoms: C_8  and  O_9
REMARK    2  A    between atoms: C_11  and  O_13
REMARK    3  A    between atoms: O_13  and  C_14
REMARK    4  A    between atoms: C_16  and  O_20
REMARK    5  A    between atoms: C_18  and  C_19
REMARK    6  A    between atoms: O_20  and  C_21
REMARK                            x       y       z     vdW  Elec       q    Type
REMARK                         _______ _______ _______ _____ _____    ______ ____
ROOT
ATOM      1  O   LIG A   1      -8.308   0.690 123.149  0.00  0.00    -0.286 OA
ATOM      2  C   LIG A   1      -7.708   0.570 124.216  0.00  0.00    +0.204 A 
ATOM      3  C   LIG A   1      -6.725   1.554 124.714  0.00  0.00    +0.068 A 
ATOM      4  C   LIG A   1      -6.117   1.270 125.943  0.00  0.00    +0.143 A 
ATOM      5  O   LIG A   1      -6.367   0.152 126.700  0.00  0.00    -0.454 OA
ATOM      6  C   LIG A   1      -7.297  -0.745 126.251  0.00  0.00    +0.146 A 
ATOM      7  C   LIG A   1      -7.981  -0.608 125.050  0.00  0.00    +0.106 A 
ATOM      8  C   LIG A   1      -8.911  -1.576 124.670  0.00  0.00    +0.135 A 
ATOM      9  C   LIG A   1      -9.163  -2.673 125.488  0.00  0.00    +0.092 A 
ATOM     10  C   LIG A   1      -8.487  -2.809 126.702  0.00  0.00    +0.127 A 
ATOM     11  C   LIG A   1      -7.547  -1.845 127.077  0.00  0.00    +0.092 A 
ATOM     12  C   LIG A   1      -5.182   2.147 126.493  0.00  0.00    +0.092 A 
ATOM     13  C   LIG A   1      -4.843   3.320 125.828  0.00  0.00    +0.124 A 
ATOM     14  C   LIG A   1      -5.446   3.603 124.598  0.00  0.00    +0.050 A 
ATOM     15  C   LIG A   1      -6.391   2.734 124.022  0.00  0.00    -0.033 A 
ATOM     16  C   LIG A   1      -7.001   3.103 122.697  0.00  0.00    +0.045 C 
ENDROOT
BRANCH   8  17
ATOM     17  O   LIG A   1      -9.624  -1.512 123.502  0.00  0.00    -0.506 OA
ATOM     18  H   LIG A   1      -9.633  -2.414 123.108  0.00  0.00    +0.292 HD
ENDBRANCH   8  17
BRANCH  10  19
ATOM     19  O   LIG A   1      -8.669  -3.827 127.598  0.00  0.00    -0.495 OA
ATOM     20  C   LIG A   1      -8.497  -3.484 128.970  0.00  0.00    +0.277 C 
ENDBRANCH  10  19
BRANCH  13  21
ATOM     21  O   LIG A   1      -3.950   4.254 126.274  0.00  0.00    -0.495 OA
ATOM     22  C   LIG A   1      -2.679   3.765 126.693  0.00  0.00    +0.277 C 
ENDBRANCH  13  21
TORSDOF 3
ENDMDL
