MODEL 1
REMARK VINA RESULT:      -5.6      0.000      0.000
REMARK  Name = NuBBE_389
REMARK  27 active torsions:
REMARK  status: ('A' for Active; 'I' for Inactive)
REMARK    1  A    between atoms: C_1  and  C_2
REMARK    2  A    between atoms: C_2  and  C_3
REMARK    3  A    between atoms: C_3  and  C_4
REMARK    4  A    between atoms: C_4  and  C_5
REMARK    5  A    between atoms: C_5  and  O_6
REMARK    6  A    between atoms: O_6  and  C_7
REMARK    7  A    between atoms: C_10  and  C_11
REMARK    8  A    between atoms: C_11  and  C_12
REMARK    9  A    between atoms: C_12  and  O_13
REMARK   10  A    between atoms: O_13  and  C_14
REMARK   11  A    between atoms: C_14  and  C_15
REMARK   12  A    between atoms: C_15  and  C_16
REMARK   13  A    between atoms: C_16  and  C_17
REMARK   14  A    between atoms: C_17  and  C_18
REMARK   15  A    between atoms: C_18  and  C_19
REMARK   16  A    between atoms: C_19  and  C_20
REMARK   17  A    between atoms: C_20  and  C_21
REMARK   18  A    between atoms: C_21  and  C_22
REMARK   19  A    between atoms: C_22  and  C_23
REMARK   20  A    between atoms: C_23  and  C_24
REMARK   21  A    between atoms: C_24  and  C_25
REMARK   22  A    between atoms: C_25  and  C_26
REMARK   23  A    between atoms: C_26  and  C_27
REMARK   24  A    between atoms: C_27  and  C_28
REMARK   25  A    between atoms: C_28  and  C_29
REMARK   26  A    between atoms: C_29  and  C_30
REMARK   27  A    between atoms: C_30  and  C_31
REMARK                            x       y       z     vdW  Elec       q    Type
REMARK                         _______ _______ _______ _____ _____    ______ ____
ROOT
ATOM      1  C   LIG A   1      -9.909   0.922 123.435  0.00  0.00    +0.307 C 
ATOM      2  O   LIG A   1     -10.974   1.264 124.058  0.00  0.00    -0.251 OA
ENDROOT
BRANCH   1   3
ATOM      3  C   LIG A   1      -9.754  -0.317 122.595  0.00  0.00    +0.120 C 
BRANCH   3   4
ATOM      4  C   LIG A   1      -8.728  -1.332 123.148  0.00  0.00    +0.011 C 
BRANCH   4   5
ATOM      5  C   LIG A   1      -9.085  -2.848 123.207  0.00  0.00    +0.000 C 
BRANCH   5   6
ATOM      6  C   LIG A   1      -8.937  -3.581 124.581  0.00  0.00    +0.000 C 
BRANCH   6   7
ATOM      7  C   LIG A   1      -9.125  -2.749 125.913  0.00  0.00    -0.000 C 
BRANCH   7   8
ATOM      8  C   LIG A   1      -9.448  -3.594 127.196  0.00  0.00    -0.000 C 
BRANCH   8   9
ATOM      9  C   LIG A   1      -8.258  -3.843 128.197  0.00  0.00    -0.000 C 
BRANCH   9  10
ATOM     10  C   LIG A   1      -8.254  -2.877 129.400  0.00  0.00    -0.000 C 
BRANCH  10  11
ATOM     11  C   LIG A   1      -7.227  -3.096 130.538  0.00  0.00    -0.000 C 
BRANCH  11  12
ATOM     12  C   LIG A   1      -6.107  -4.117 130.278  0.00  0.00    -0.000 C 
BRANCH  12  13
ATOM     13  C   LIG A   1      -4.732  -3.476 129.988  0.00  0.00    -0.000 C 
BRANCH  13  14
ATOM     14  C   LIG A   1      -4.687  -2.299 128.997  0.00  0.00    -0.000 C 
BRANCH  14  15
ATOM     15  C   LIG A   1      -4.869  -2.620 127.497  0.00  0.00    -0.000 C 
BRANCH  15  16
ATOM     16  C   LIG A   1      -5.718  -1.612 126.721  0.00  0.00    -0.000 C 
BRANCH  16  17
ATOM     17  C   LIG A   1      -5.626  -1.605 125.204  0.00  0.00    -0.000 C 
BRANCH  17  18
ATOM     18  C   LIG A   1      -5.382  -2.967 124.589  0.00  0.00    -0.003 C 
ATOM     19  C   LIG A   1      -5.204  -2.862 123.081  0.00  0.00    +0.004 C 
ENDBRANCH  17  18
ENDBRANCH  16  17
ENDBRANCH  15  16
ENDBRANCH  14  15
ENDBRANCH  13  14
ENDBRANCH  12  13
ENDBRANCH  11  12
ENDBRANCH  10  11
ENDBRANCH   9  10
ENDBRANCH   8   9
ENDBRANCH   7   8
ENDBRANCH   6   7
ENDBRANCH   5   6
ENDBRANCH   4   5
ENDBRANCH   3   4
ENDBRANCH   1   3
BRANCH   1  20
ATOM     20  O   LIG A   1      -8.730   1.565 123.501  0.00  0.00    -0.464 OA
BRANCH  20  21
ATOM     21  C   LIG A   1      -8.629   2.667 124.438  0.00  0.00    +0.237 C 
BRANCH  21  22
ATOM     22  C   LIG A   1      -7.254   2.599 125.095  0.00  0.00    +0.076 C 
BRANCH  22  26
ATOM     23  C   LIG A   1      -6.879   0.824 129.040  0.00  0.00    +0.120 A 
ATOM     24  C   LIG A   1      -5.834   1.578 128.473  0.00  0.00    +0.046 A 
ATOM     25  C   LIG A   1      -5.957   2.188 127.212  0.00  0.00    +0.007 A 
ATOM     26  C   LIG A   1      -7.122   2.018 126.468  0.00  0.00    -0.044 A 
ATOM     27  C   LIG A   1      -8.184   1.318 127.046  0.00  0.00    +0.007 A 
ATOM     28  C   LIG A   1      -8.048   0.690 128.296  0.00  0.00    +0.046 A 
BRANCH  23  29
ATOM     29  O   LIG A   1      -6.653   0.326 130.301  0.00  0.00    -0.492 OA
BRANCH  29  30
ATOM     30  C   LIG A   1      -7.210   0.939 131.477  0.00  0.00    +0.229 C 
BRANCH  30  31
ATOM     31  C   LIG A   1      -8.676   0.540 131.810  0.00  0.00    +0.041 C 
BRANCH  31  32
ATOM     32  C   LIG A   1      -9.792   1.587 132.051  0.00  0.00    +0.003 C 
BRANCH  32  34
ATOM     33  C   LIG A   1      -9.156   4.059 132.284  0.00  0.00    +0.004 C 
ATOM     34  C   LIG A   1      -9.492   2.746 133.006  0.00  0.00    -0.003 C 
ENDBRANCH  32  34
ENDBRANCH  31  32
ENDBRANCH  30  31
ENDBRANCH  29  30
ENDBRANCH  23  29
ENDBRANCH  22  26
ENDBRANCH  21  22
ENDBRANCH  20  21
ENDBRANCH   1  20
TORSDOF 25
ENDMDL
MODEL 2
REMARK VINA RESULT:      -5.6      2.092      4.846
REMARK  Name = NuBBE_389
REMARK  27 active torsions:
REMARK  status: ('A' for Active; 'I' for Inactive)
REMARK    1  A    between atoms: C_1  and  C_2
REMARK    2  A    between atoms: C_2  and  C_3
REMARK    3  A    between atoms: C_3  and  C_4
REMARK    4  A    between atoms: C_4  and  C_5
REMARK    5  A    between atoms: C_5  and  O_6
REMARK    6  A    between atoms: O_6  and  C_7
REMARK    7  A    between atoms: C_10  and  C_11
REMARK    8  A    between atoms: C_11  and  C_12
REMARK    9  A    between atoms: C_12  and  O_13
REMARK   10  A    between atoms: O_13  and  C_14
REMARK   11  A    between atoms: C_14  and  C_15
REMARK   12  A    between atoms: C_15  and  C_16
REMARK   13  A    between atoms: C_16  and  C_17
REMARK   14  A    between atoms: C_17  and  C_18
REMARK   15  A    between atoms: C_18  and  C_19
REMARK   16  A    between atoms: C_19  and  C_20
REMARK   17  A    between atoms: C_20  and  C_21
REMARK   18  A    between atoms: C_21  and  C_22
REMARK   19  A    between atoms: C_22  and  C_23
REMARK   20  A    between atoms: C_23  and  C_24
REMARK   21  A    between atoms: C_24  and  C_25
REMARK   22  A    between atoms: C_25  and  C_26
REMARK   23  A    between atoms: C_26  and  C_27
REMARK   24  A    between atoms: C_27  and  C_28
REMARK   25  A    between atoms: C_28  and  C_29
REMARK   26  A    between atoms: C_29  and  C_30
REMARK   27  A    between atoms: C_30  and  C_31
REMARK                            x       y       z     vdW  Elec       q    Type
REMARK                         _______ _______ _______ _____ _____    ______ ____
ROOT
ATOM      1  C   LIG A   1      -8.689  -1.788 123.614  0.00  0.00    +0.307 C 
ATOM      2  O   LIG A   1      -9.861  -2.075 123.187  0.00  0.00    -0.251 OA
ENDROOT
BRANCH   1   3
ATOM      3  C   LIG A   1      -7.635  -2.791 123.999  0.00  0.00    +0.120 C 
BRANCH   3   4
ATOM      4  C   LIG A   1      -8.050  -3.736 125.148  0.00  0.00    +0.011 C 
BRANCH   4   5
ATOM      5  C   LIG A   1      -8.905  -3.193 126.334  0.00  0.00    +0.000 C 
BRANCH   5   6
ATOM      6  C   LIG A   1      -8.924  -4.020 127.661  0.00  0.00    +0.000 C 
BRANCH   6   7
ATOM      7  C   LIG A   1      -8.021  -3.545 128.868  0.00  0.00    -0.000 C 
BRANCH   7   8
ATOM      8  C   LIG A   1      -8.359  -2.124 129.445  0.00  0.00    -0.000 C 
BRANCH   8   9
ATOM      9  C   LIG A   1      -7.634  -1.712 130.780  0.00  0.00    -0.000 C 
BRANCH   9  10
ATOM     10  C   LIG A   1      -7.118  -0.258 130.775  0.00  0.00    -0.000 C 
BRANCH  10  11
ATOM     11  C   LIG A   1      -8.061   0.874 130.300  0.00  0.00    -0.000 C 
BRANCH  11  12
ATOM     12  C   LIG A   1      -7.607   1.692 129.080  0.00  0.00    -0.000 C 
BRANCH  12  13
ATOM     13  C   LIG A   1      -7.926   1.023 127.725  0.00  0.00    -0.000 C 
BRANCH  13  14
ATOM     14  C   LIG A   1      -6.743   0.671 126.805  0.00  0.00    -0.000 C 
BRANCH  14  15
ATOM     15  C   LIG A   1      -6.243  -0.790 126.812  0.00  0.00    -0.000 C 
BRANCH  15  16
ATOM     16  C   LIG A   1      -5.228  -1.118 127.910  0.00  0.00    -0.000 C 
BRANCH  16  17
ATOM     17  C   LIG A   1      -4.819  -2.568 128.107  0.00  0.00    -0.000 C 
BRANCH  17  18
ATOM     18  C   LIG A   1      -4.226  -2.869 129.467  0.00  0.00    -0.003 C 
ATOM     19  C   LIG A   1      -3.691  -1.604 130.123  0.00  0.00    +0.004 C 
ENDBRANCH  17  18
ENDBRANCH  16  17
ENDBRANCH  15  16
ENDBRANCH  14  15
ENDBRANCH  13  14
ENDBRANCH  12  13
ENDBRANCH  11  12
ENDBRANCH  10  11
ENDBRANCH   9  10
ENDBRANCH   8   9
ENDBRANCH   7   8
ENDBRANCH   6   7
ENDBRANCH   5   6
ENDBRANCH   4   5
ENDBRANCH   3   4
ENDBRANCH   1   3
BRANCH   1  20
ATOM     20  O   LIG A   1      -8.238  -0.548 123.874  0.00  0.00    -0.464 OA
BRANCH  20  21
ATOM     21  C   LIG A   1      -9.219   0.519 123.901  0.00  0.00    +0.237 C 
BRANCH  21  22
ATOM     22  C   LIG A   1      -8.623   1.722 123.176  0.00  0.00    +0.076 C 
BRANCH  22  26
ATOM     23  C   LIG A   1      -6.311   4.697 125.334  0.00  0.00    +0.120 A 
ATOM     24  C   LIG A   1      -7.661   4.447 125.649  0.00  0.00    +0.046 A 
ATOM     25  C   LIG A   1      -8.409   3.461 124.982  0.00  0.00    +0.007 A 
ATOM     26  C   LIG A   1      -7.830   2.729 123.949  0.00  0.00    -0.044 A 
ATOM     27  C   LIG A   1      -6.477   2.931 123.668  0.00  0.00    +0.007 A 
ATOM     28  C   LIG A   1      -5.739   3.935 124.320  0.00  0.00    +0.046 A 
BRANCH  23  29
ATOM     29  O   LIG A   1      -5.676   5.649 126.096  0.00  0.00    -0.492 OA
BRANCH  29  30
ATOM     30  C   LIG A   1      -4.614   5.316 127.007  0.00  0.00    +0.229 C 
BRANCH  30  31
ATOM     31  C   LIG A   1      -4.873   4.079 127.914  0.00  0.00    +0.041 C 
BRANCH  31  32
ATOM     32  C   LIG A   1      -4.074   2.759 127.773  0.00  0.00    +0.003 C 
BRANCH  32  34
ATOM     33  C   LIG A   1      -1.752   2.913 126.699  0.00  0.00    +0.004 C 
ATOM     34  C   LIG A   1      -3.235   2.562 126.506  0.00  0.00    -0.003 C 
ENDBRANCH  32  34
ENDBRANCH  31  32
ENDBRANCH  30  31
ENDBRANCH  29  30
ENDBRANCH  23  29
ENDBRANCH  22  26
ENDBRANCH  21  22
ENDBRANCH  20  21
ENDBRANCH   1  20
TORSDOF 25
ENDMDL
MODEL 3
REMARK VINA RESULT:      -5.5      3.127      9.406
REMARK  Name = NuBBE_389
REMARK  27 active torsions:
REMARK  status: ('A' for Active; 'I' for Inactive)
REMARK    1  A    between atoms: C_1  and  C_2
REMARK    2  A    between atoms: C_2  and  C_3
REMARK    3  A    between atoms: C_3  and  C_4
REMARK    4  A    between atoms: C_4  and  C_5
REMARK    5  A    between atoms: C_5  and  O_6
REMARK    6  A    between atoms: O_6  and  C_7
REMARK    7  A    between atoms: C_10  and  C_11
REMARK    8  A    between atoms: C_11  and  C_12
REMARK    9  A    between atoms: C_12  and  O_13
REMARK   10  A    between atoms: O_13  and  C_14
REMARK   11  A    between atoms: C_14  and  C_15
REMARK   12  A    between atoms: C_15  and  C_16
REMARK   13  A    between atoms: C_16  and  C_17
REMARK   14  A    between atoms: C_17  and  C_18
REMARK   15  A    between atoms: C_18  and  C_19
REMARK   16  A    between atoms: C_19  and  C_20
REMARK   17  A    between atoms: C_20  and  C_21
REMARK   18  A    between atoms: C_21  and  C_22
REMARK   19  A    between atoms: C_22  and  C_23
REMARK   20  A    between atoms: C_23  and  C_24
REMARK   21  A    between atoms: C_24  and  C_25
REMARK   22  A    between atoms: C_25  and  C_26
REMARK   23  A    between atoms: C_26  and  C_27
REMARK   24  A    between atoms: C_27  and  C_28
REMARK   25  A    between atoms: C_28  and  C_29
REMARK   26  A    between atoms: C_29  and  C_30
REMARK   27  A    between atoms: C_30  and  C_31
REMARK                            x       y       z     vdW  Elec       q    Type
REMARK                         _______ _______ _______ _____ _____    ______ ____
ROOT
ATOM      1  C   LIG A   1      -7.641  -1.991 132.331  0.00  0.00    +0.307 C 
ATOM      2  O   LIG A   1      -8.221  -2.087 133.468  0.00  0.00    -0.251 OA
ENDROOT
BRANCH   1   3
ATOM      3  C   LIG A   1      -7.578  -0.743 131.491  0.00  0.00    +0.120 C 
BRANCH   3   4
ATOM      4  C   LIG A   1      -8.742   0.243 131.733  0.00  0.00    +0.011 C 
BRANCH   4   5
ATOM      5  C   LIG A   1      -8.889   1.511 130.838  0.00  0.00    +0.000 C 
BRANCH   5   6
ATOM      6  C   LIG A   1      -7.911   1.668 129.627  0.00  0.00    +0.000 C 
BRANCH   6   7
ATOM      7  C   LIG A   1      -6.869   2.858 129.639  0.00  0.00    -0.000 C 
BRANCH   7   8
ATOM      8  C   LIG A   1      -7.058   3.908 130.792  0.00  0.00    -0.000 C 
BRANCH   8   9
ATOM      9  C   LIG A   1      -6.617   5.387 130.480  0.00  0.00    -0.000 C 
BRANCH   9  10
ATOM     10  C   LIG A   1      -7.543   6.449 131.108  0.00  0.00    -0.000 C 
BRANCH  10  11
ATOM     11  C   LIG A   1      -9.076   6.289 130.968  0.00  0.00    -0.000 C 
BRANCH  11  12
ATOM     12  C   LIG A   1      -9.891   6.211 132.270  0.00  0.00    -0.000 C 
BRANCH  12  13
ATOM     13  C   LIG A   1     -11.397   6.499 132.083  0.00  0.00    -0.000 C 
BRANCH  13  14
ATOM     14  C   LIG A   1     -12.037   6.110 130.738  0.00  0.00    -0.000 C 
BRANCH  14  15
ATOM     15  C   LIG A   1     -12.971   7.142 130.067  0.00  0.00    -0.000 C 
BRANCH  15  16
ATOM     16  C   LIG A   1     -13.365   6.812 128.626  0.00  0.00    -0.000 C 
BRANCH  16  17
ATOM     17  C   LIG A   1     -12.666   7.552 127.498  0.00  0.00    -0.000 C 
BRANCH  17  18
ATOM     18  C   LIG A   1     -11.161   7.383 127.481  0.00  0.00    -0.003 C 
ATOM     19  C   LIG A   1     -10.470   8.558 128.158  0.00  0.00    +0.004 C 
ENDBRANCH  17  18
ENDBRANCH  16  17
ENDBRANCH  15  16
ENDBRANCH  14  15
ENDBRANCH  13  14
ENDBRANCH  12  13
ENDBRANCH  11  12
ENDBRANCH  10  11
ENDBRANCH   9  10
ENDBRANCH   8   9
ENDBRANCH   7   8
ENDBRANCH   6   7
ENDBRANCH   5   6
ENDBRANCH   4   5
ENDBRANCH   3   4
ENDBRANCH   1   3
BRANCH   1  20
ATOM     20  O   LIG A   1      -7.071  -3.007 131.661  0.00  0.00    -0.464 OA
BRANCH  20  21
ATOM     21  C   LIG A   1      -6.711  -2.767 130.277  0.00  0.00    +0.237 C 
BRANCH  21  22
ATOM     22  C   LIG A   1      -7.713  -3.507 129.397  0.00  0.00    +0.076 C 
BRANCH  22  26
ATOM     23  C   LIG A   1      -9.000  -1.783 125.625  0.00  0.00    +0.120 A 
ATOM     24  C   LIG A   1      -8.170  -1.070 126.511  0.00  0.00    +0.046 A 
ATOM     25  C   LIG A   1      -7.717  -1.631 127.719  0.00  0.00    +0.007 A 
ATOM     26  C   LIG A   1      -8.124  -2.911 128.086  0.00  0.00    -0.044 A 
ATOM     27  C   LIG A   1      -8.902  -3.645 127.188  0.00  0.00    +0.007 A 
ATOM     28  C   LIG A   1      -9.372  -3.072 125.994  0.00  0.00    +0.046 A 
BRANCH  23  29
ATOM     29  O   LIG A   1      -9.328  -1.142 124.454  0.00  0.00    -0.492 OA
BRANCH  29  30
ATOM     30  C   LIG A   1      -8.341  -0.807 123.463  0.00  0.00    +0.229 C 
BRANCH  30  31
ATOM     31  C   LIG A   1      -7.520  -2.003 122.904  0.00  0.00    +0.041 C 
BRANCH  31  32
ATOM     32  C   LIG A   1      -6.023  -2.220 123.243  0.00  0.00    +0.003 C 
BRANCH  32  34
ATOM     33  C   LIG A   1      -4.538  -4.251 123.730  0.00  0.00    +0.004 C 
ATOM     34  C   LIG A   1      -5.667  -3.337 124.228  0.00  0.00    -0.003 C 
ENDBRANCH  32  34
ENDBRANCH  31  32
ENDBRANCH  30  31
ENDBRANCH  29  30
ENDBRANCH  23  29
ENDBRANCH  22  26
ENDBRANCH  21  22
ENDBRANCH  20  21
ENDBRANCH   1  20
TORSDOF 25
ENDMDL
MODEL 4
REMARK VINA RESULT:      -5.5      1.953      8.388
REMARK  Name = NuBBE_389
REMARK  27 active torsions:
REMARK  status: ('A' for Active; 'I' for Inactive)
REMARK    1  A    between atoms: C_1  and  C_2
REMARK    2  A    between atoms: C_2  and  C_3
REMARK    3  A    between atoms: C_3  and  C_4
REMARK    4  A    between atoms: C_4  and  C_5
REMARK    5  A    between atoms: C_5  and  O_6
REMARK    6  A    between atoms: O_6  and  C_7
REMARK    7  A    between atoms: C_10  and  C_11
REMARK    8  A    between atoms: C_11  and  C_12
REMARK    9  A    between atoms: C_12  and  O_13
REMARK   10  A    between atoms: O_13  and  C_14
REMARK   11  A    between atoms: C_14  and  C_15
REMARK   12  A    between atoms: C_15  and  C_16
REMARK   13  A    between atoms: C_16  and  C_17
REMARK   14  A    between atoms: C_17  and  C_18
REMARK   15  A    between atoms: C_18  and  C_19
REMARK   16  A    between atoms: C_19  and  C_20
REMARK   17  A    between atoms: C_20  and  C_21
REMARK   18  A    between atoms: C_21  and  C_22
REMARK   19  A    between atoms: C_22  and  C_23
REMARK   20  A    between atoms: C_23  and  C_24
REMARK   21  A    between atoms: C_24  and  C_25
REMARK   22  A    between atoms: C_25  and  C_26
REMARK   23  A    between atoms: C_26  and  C_27
REMARK   24  A    between atoms: C_27  and  C_28
REMARK   25  A    between atoms: C_28  and  C_29
REMARK   26  A    between atoms: C_29  and  C_30
REMARK   27  A    between atoms: C_30  and  C_31
REMARK                            x       y       z     vdW  Elec       q    Type
REMARK                         _______ _______ _______ _____ _____    ______ ____
ROOT
ATOM      1  C   LIG A   1      -4.297  -3.352 130.437  0.00  0.00    +0.307 C 
ATOM      2  O   LIG A   1      -3.481  -3.646 131.378  0.00  0.00    -0.251 OA
ENDROOT
BRANCH   1   3
ATOM      3  C   LIG A   1      -4.104  -2.247 129.433  0.00  0.00    +0.120 C 
BRANCH   3   4
ATOM      4  C   LIG A   1      -3.868  -0.856 130.061  0.00  0.00    +0.011 C 
BRANCH   4   5
ATOM      5  C   LIG A   1      -4.842   0.319 129.743  0.00  0.00    +0.000 C 
BRANCH   5   6
ATOM      6  C   LIG A   1      -4.472   1.741 130.279  0.00  0.00    +0.000 C 
BRANCH   6   7
ATOM      7  C   LIG A   1      -4.293   2.923 129.243  0.00  0.00    -0.000 C 
BRANCH   7   8
ATOM      8  C   LIG A   1      -3.281   2.648 128.075  0.00  0.00    -0.000 C 
BRANCH   8   9
ATOM      9  C   LIG A   1      -3.859   2.703 126.611  0.00  0.00    -0.000 C 
BRANCH   9  10
ATOM     10  C   LIG A   1      -4.894   1.598 126.317  0.00  0.00    -0.000 C 
BRANCH  10  11
ATOM     11  C   LIG A   1      -6.344   2.002 125.953  0.00  0.00    -0.000 C 
BRANCH  11  12
ATOM     12  C   LIG A   1      -6.842   3.358 126.480  0.00  0.00    -0.000 C 
BRANCH  12  13
ATOM     13  C   LIG A   1      -7.652   3.259 127.792  0.00  0.00    -0.000 C 
BRANCH  13  14
ATOM     14  C   LIG A   1      -8.264   1.893 128.152  0.00  0.00    -0.000 C 
BRANCH  14  15
ATOM     15  C   LIG A   1      -8.488   1.583 129.649  0.00  0.00    -0.000 C 
BRANCH  15  16
ATOM     16  C   LIG A   1      -8.090   2.709 130.606  0.00  0.00    -0.000 C 
BRANCH  16  17
ATOM     17  C   LIG A   1      -9.020   3.038 131.762  0.00  0.00    -0.000 C 
BRANCH  17  18
ATOM     18  C   LIG A   1      -8.433   2.766 133.131  0.00  0.00    -0.003 C 
ATOM     19  C   LIG A   1      -8.815   3.860 134.117  0.00  0.00    +0.004 C 
ENDBRANCH  17  18
ENDBRANCH  16  17
ENDBRANCH  15  16
ENDBRANCH  14  15
ENDBRANCH  13  14
ENDBRANCH  12  13
ENDBRANCH  11  12
ENDBRANCH  10  11
ENDBRANCH   9  10
ENDBRANCH   8   9
ENDBRANCH   7   8
ENDBRANCH   6   7
ENDBRANCH   5   6
ENDBRANCH   4   5
ENDBRANCH   3   4
ENDBRANCH   1   3
BRANCH   1  20
ATOM     20  O   LIG A   1      -5.499  -3.923 130.245  0.00  0.00    -0.464 OA
BRANCH  20  21
ATOM     21  C   LIG A   1      -6.653  -3.044 130.229  0.00  0.00    +0.237 C 
BRANCH  21  22
ATOM     22  C   LIG A   1      -7.726  -3.696 129.364  0.00  0.00    +0.076 C 
BRANCH  22  26
ATOM     23  C   LIG A   1      -8.902  -1.872 125.602  0.00  0.00    +0.120 A 
ATOM     24  C   LIG A   1      -7.962  -1.258 126.453  0.00  0.00    +0.046 A 
ATOM     25  C   LIG A   1      -7.546  -1.856 127.656  0.00  0.00    +0.007 A 
ATOM     26  C   LIG A   1      -8.099  -3.069 128.056  0.00  0.00    -0.044 A 
ATOM     27  C   LIG A   1      -8.989  -3.712 127.192  0.00  0.00    +0.007 A 
ATOM     28  C   LIG A   1      -9.421  -3.099 126.003  0.00  0.00    +0.046 A 
BRANCH  23  29
ATOM     29  O   LIG A   1      -9.183  -1.210 124.431  0.00  0.00    -0.492 OA
BRANCH  29  30
ATOM     30  C   LIG A   1      -8.148  -0.745 123.547  0.00  0.00    +0.229 C 
BRANCH  30  31
ATOM     31  C   LIG A   1      -7.298  -1.856 122.868  0.00  0.00    +0.041 C 
BRANCH  31  32
ATOM     32  C   LIG A   1      -5.897  -2.271 123.386  0.00  0.00    +0.003 C 
BRANCH  32  34
ATOM     33  C   LIG A   1      -4.600  -4.450 123.761  0.00  0.00    +0.004 C 
ATOM     34  C   LIG A   1      -5.787  -3.572 124.186  0.00  0.00    -0.003 C 
ENDBRANCH  32  34
ENDBRANCH  31  32
ENDBRANCH  30  31
ENDBRANCH  29  30
ENDBRANCH  23  29
ENDBRANCH  22  26
ENDBRANCH  21  22
ENDBRANCH  20  21
ENDBRANCH   1  20
TORSDOF 25
ENDMDL
MODEL 5
REMARK VINA RESULT:      -5.4      2.582      6.488
REMARK  Name = NuBBE_389
REMARK  27 active torsions:
REMARK  status: ('A' for Active; 'I' for Inactive)
REMARK    1  A    between atoms: C_1  and  C_2
REMARK    2  A    between atoms: C_2  and  C_3
REMARK    3  A    between atoms: C_3  and  C_4
REMARK    4  A    between atoms: C_4  and  C_5
REMARK    5  A    between atoms: C_5  and  O_6
REMARK    6  A    between atoms: O_6  and  C_7
REMARK    7  A    between atoms: C_10  and  C_11
REMARK    8  A    between atoms: C_11  and  C_12
REMARK    9  A    between atoms: C_12  and  O_13
REMARK   10  A    between atoms: O_13  and  C_14
REMARK   11  A    between atoms: C_14  and  C_15
REMARK   12  A    between atoms: C_15  and  C_16
REMARK   13  A    between atoms: C_16  and  C_17
REMARK   14  A    between atoms: C_17  and  C_18
REMARK   15  A    between atoms: C_18  and  C_19
REMARK   16  A    between atoms: C_19  and  C_20
REMARK   17  A    between atoms: C_20  and  C_21
REMARK   18  A    between atoms: C_21  and  C_22
REMARK   19  A    between atoms: C_22  and  C_23
REMARK   20  A    between atoms: C_23  and  C_24
REMARK   21  A    between atoms: C_24  and  C_25
REMARK   22  A    between atoms: C_25  and  C_26
REMARK   23  A    between atoms: C_26  and  C_27
REMARK   24  A    between atoms: C_27  and  C_28
REMARK   25  A    between atoms: C_28  and  C_29
REMARK   26  A    between atoms: C_29  and  C_30
REMARK   27  A    between atoms: C_30  and  C_31
REMARK                            x       y       z     vdW  Elec       q    Type
REMARK                         _______ _______ _______ _____ _____    ______ ____
ROOT
ATOM      1  C   LIG A   1      -8.789  -2.024 123.467  0.00  0.00    +0.307 C 
ATOM      2  O   LIG A   1      -9.875  -1.634 122.912  0.00  0.00    -0.251 OA
ENDROOT
BRANCH   1   3
ATOM      3  C   LIG A   1      -7.411  -1.530 123.119  0.00  0.00    +0.120 C 
BRANCH   3   4
ATOM      4  C   LIG A   1      -7.110  -0.095 123.608  0.00  0.00    +0.011 C 
BRANCH   4   5
ATOM      5  C   LIG A   1      -7.985   0.545 124.728  0.00  0.00    +0.000 C 
BRANCH   5   6
ATOM      6  C   LIG A   1      -9.126   1.524 124.296  0.00  0.00    +0.000 C 
BRANCH   6   7
ATOM      7  C   LIG A   1      -9.259   1.911 122.769  0.00  0.00    -0.000 C 
BRANCH   7   8
ATOM      8  C   LIG A   1      -8.447   3.178 122.321  0.00  0.00    -0.000 C 
BRANCH   8   9
ATOM      9  C   LIG A   1      -8.666   3.673 120.843  0.00  0.00    -0.000 C 
BRANCH   9  10
ATOM     10  C   LIG A   1      -7.350   3.937 120.082  0.00  0.00    -0.000 C 
BRANCH  10  11
ATOM     11  C   LIG A   1      -6.013   3.465 120.704  0.00  0.00    -0.000 C 
BRANCH  11  12
ATOM     12  C   LIG A   1      -5.084   4.554 121.267  0.00  0.00    -0.000 C 
BRANCH  12  13
ATOM     13  C   LIG A   1      -4.724   4.360 122.756  0.00  0.00    -0.000 C 
BRANCH  13  14
ATOM     14  C   LIG A   1      -5.877   4.367 123.777  0.00  0.00    -0.000 C 
BRANCH  14  15
ATOM     15  C   LIG A   1      -5.716   3.497 125.043  0.00  0.00    -0.000 C 
BRANCH  15  16
ATOM     16  C   LIG A   1      -4.574   3.916 125.971  0.00  0.00    -0.000 C 
BRANCH  16  17
ATOM     17  C   LIG A   1      -3.539   2.873 126.360  0.00  0.00    -0.000 C 
BRANCH  17  18
ATOM     18  C   LIG A   1      -2.266   3.447 126.946  0.00  0.00    -0.003 C 
ATOM     19  C   LIG A   1      -2.574   4.427 128.069  0.00  0.00    +0.004 C 
ENDBRANCH  17  18
ENDBRANCH  16  17
ENDBRANCH  15  16
ENDBRANCH  14  15
ENDBRANCH  13  14
ENDBRANCH  12  13
ENDBRANCH  11  12
ENDBRANCH  10  11
ENDBRANCH   9  10
ENDBRANCH   8   9
ENDBRANCH   7   8
ENDBRANCH   6   7
ENDBRANCH   5   6
ENDBRANCH   4   5
ENDBRANCH   3   4
ENDBRANCH   1   3
BRANCH   1  20
ATOM     20  O   LIG A   1      -8.693  -3.000 124.386  0.00  0.00    -0.464 OA
BRANCH  20  21
ATOM     21  C   LIG A   1      -9.424  -2.815 125.625  0.00  0.00    +0.237 C 
BRANCH  21  22
ATOM     22  C   LIG A   1      -8.660  -3.537 126.731  0.00  0.00    +0.076 C 
BRANCH  22  26
ATOM     23  C   LIG A   1      -5.957  -1.211 129.209  0.00  0.00    +0.120 A 
ATOM     24  C   LIG A   1      -6.992  -1.980 129.775  0.00  0.00    +0.046 A 
ATOM     25  C   LIG A   1      -7.851  -2.766 128.986  0.00  0.00    +0.007 A 
ATOM     26  C   LIG A   1      -7.718  -2.764 127.600  0.00  0.00    -0.044 A 
ATOM     27  C   LIG A   1      -6.659  -2.048 127.035  0.00  0.00    +0.007 A 
ATOM     28  C   LIG A   1      -5.819  -1.245 127.825  0.00  0.00    +0.046 A 
BRANCH  23  29
ATOM     29  O   LIG A   1      -5.154  -0.531 130.093  0.00  0.00    -0.492 OA
BRANCH  29  30
ATOM     30  C   LIG A   1      -5.692   0.359 131.087  0.00  0.00    +0.229 C 
BRANCH  30  31
ATOM     31  C   LIG A   1      -6.512   1.560 130.536  0.00  0.00    +0.041 C 
BRANCH  31  32
ATOM     32  C   LIG A   1      -6.173   2.259 129.195  0.00  0.00    +0.003 C 
BRANCH  32  34
ATOM     33  C   LIG A   1      -8.427   1.445 128.284  0.00  0.00    +0.004 C 
ATOM     34  C   LIG A   1      -7.318   2.506 128.207  0.00  0.00    -0.003 C 
ENDBRANCH  32  34
ENDBRANCH  31  32
ENDBRANCH  30  31
ENDBRANCH  29  30
ENDBRANCH  23  29
ENDBRANCH  22  26
ENDBRANCH  21  22
ENDBRANCH  20  21
ENDBRANCH   1  20
TORSDOF 25
ENDMDL
MODEL 6
REMARK VINA RESULT:      -5.4      2.299      5.727
REMARK  Name = NuBBE_389
REMARK  27 active torsions:
REMARK  status: ('A' for Active; 'I' for Inactive)
REMARK    1  A    between atoms: C_1  and  C_2
REMARK    2  A    between atoms: C_2  and  C_3
REMARK    3  A    between atoms: C_3  and  C_4
REMARK    4  A    between atoms: C_4  and  C_5
REMARK    5  A    between atoms: C_5  and  O_6
REMARK    6  A    between atoms: O_6  and  C_7
REMARK    7  A    between atoms: C_10  and  C_11
REMARK    8  A    between atoms: C_11  and  C_12
REMARK    9  A    between atoms: C_12  and  O_13
REMARK   10  A    between atoms: O_13  and  C_14
REMARK   11  A    between atoms: C_14  and  C_15
REMARK   12  A    between atoms: C_15  and  C_16
REMARK   13  A    between atoms: C_16  and  C_17
REMARK   14  A    between atoms: C_17  and  C_18
REMARK   15  A    between atoms: C_18  and  C_19
REMARK   16  A    between atoms: C_19  and  C_20
REMARK   17  A    between atoms: C_20  and  C_21
REMARK   18  A    between atoms: C_21  and  C_22
REMARK   19  A    between atoms: C_22  and  C_23
REMARK   20  A    between atoms: C_23  and  C_24
REMARK   21  A    between atoms: C_24  and  C_25
REMARK   22  A    between atoms: C_25  and  C_26
REMARK   23  A    between atoms: C_26  and  C_27
REMARK   24  A    between atoms: C_27  and  C_28
REMARK   25  A    between atoms: C_28  and  C_29
REMARK   26  A    between atoms: C_29  and  C_30
REMARK   27  A    between atoms: C_30  and  C_31
REMARK                            x       y       z     vdW  Elec       q    Type
REMARK                         _______ _______ _______ _____ _____    ______ ____
ROOT
ATOM      1  C   LIG A   1      -9.035  -1.632 123.180  0.00  0.00    +0.307 C 
ATOM      2  O   LIG A   1      -9.613  -0.791 122.407  0.00  0.00    -0.251 OA
ENDROOT
BRANCH   1   3
ATOM      3  C   LIG A   1      -7.548  -1.847 123.271  0.00  0.00    +0.120 C 
BRANCH   3   4
ATOM      4  C   LIG A   1      -6.748  -0.586 123.666  0.00  0.00    +0.011 C 
BRANCH   4   5
ATOM      5  C   LIG A   1      -5.717  -0.651 124.834  0.00  0.00    +0.000 C 
BRANCH   5   6
ATOM      6  C   LIG A   1      -5.535   0.625 125.720  0.00  0.00    +0.000 C 
BRANCH   6   7
ATOM      7  C   LIG A   1      -6.121   0.623 127.188  0.00  0.00    -0.000 C 
BRANCH   7   8
ATOM      8  C   LIG A   1      -7.087   1.813 127.531  0.00  0.00    -0.000 C 
BRANCH   8   9
ATOM      9  C   LIG A   1      -8.631   1.523 127.430  0.00  0.00    -0.000 C 
BRANCH   9  10
ATOM     10  C   LIG A   1      -9.036   0.792 126.133  0.00  0.00    -0.000 C 
BRANCH  10  11
ATOM     11  C   LIG A   1      -9.420   1.628 124.887  0.00  0.00    -0.000 C 
BRANCH  11  12
ATOM     12  C   LIG A   1      -8.687   2.966 124.693  0.00  0.00    -0.000 C 
BRANCH  12  13
ATOM     13  C   LIG A   1      -7.512   2.895 123.693  0.00  0.00    -0.000 C 
BRANCH  13  14
ATOM     14  C   LIG A   1      -6.239   3.693 124.028  0.00  0.00    -0.000 C 
BRANCH  14  15
ATOM     15  C   LIG A   1      -6.315   4.702 125.196  0.00  0.00    -0.000 C 
BRANCH  15  16
ATOM     16  C   LIG A   1      -5.314   4.455 126.326  0.00  0.00    -0.000 C 
BRANCH  16  17
ATOM     17  C   LIG A   1      -3.889   4.075 125.959  0.00  0.00    -0.000 C 
BRANCH  17  18
ATOM     18  C   LIG A   1      -3.207   3.169 126.963  0.00  0.00    -0.003 C 
ATOM     19  C   LIG A   1      -1.739   2.972 126.613  0.00  0.00    +0.004 C 
ENDBRANCH  17  18
ENDBRANCH  16  17
ENDBRANCH  15  16
ENDBRANCH  14  15
ENDBRANCH  13  14
ENDBRANCH  12  13
ENDBRANCH  11  12
ENDBRANCH  10  11
ENDBRANCH   9  10
ENDBRANCH   8   9
ENDBRANCH   7   8
ENDBRANCH   6   7
ENDBRANCH   5   6
ENDBRANCH   4   5
ENDBRANCH   3   4
ENDBRANCH   1   3
BRANCH   1  20
ATOM     20  O   LIG A   1      -9.662  -2.520 123.971  0.00  0.00    -0.464 OA
BRANCH  20  21
ATOM     21  C   LIG A   1      -8.829  -3.367 124.802  0.00  0.00    +0.237 C 
BRANCH  21  22
ATOM     22  C   LIG A   1      -9.375  -3.307 126.225  0.00  0.00    +0.076 C 
BRANCH  22  26
ATOM     23  C   LIG A   1      -6.620  -2.950 129.563  0.00  0.00    +0.120 A 
ATOM     24  C   LIG A   1      -6.265  -2.520 128.270  0.00  0.00    +0.046 A 
ATOM     25  C   LIG A   1      -7.161  -2.596 127.189  0.00  0.00    +0.007 A 
ATOM     26  C   LIG A   1      -8.425  -3.150 127.372  0.00  0.00    -0.044 A 
ATOM     27  C   LIG A   1      -8.805  -3.528 128.662  0.00  0.00    +0.007 A 
ATOM     28  C   LIG A   1      -7.898  -3.473 129.735  0.00  0.00    +0.046 A 
BRANCH  23  29
ATOM     29  O   LIG A   1      -5.673  -2.771 130.544  0.00  0.00    -0.492 OA
BRANCH  29  30
ATOM     30  C   LIG A   1      -4.273  -2.645 130.241  0.00  0.00    +0.229 C 
BRANCH  30  31
ATOM     31  C   LIG A   1      -3.672  -1.224 130.433  0.00  0.00    +0.041 C 
BRANCH  31  32
ATOM     32  C   LIG A   1      -4.552   0.036 130.635  0.00  0.00    +0.003 C 
BRANCH  32  34
ATOM     33  C   LIG A   1      -4.562   2.595 130.769  0.00  0.00    +0.004 C 
ATOM     34  C   LIG A   1      -4.071   1.351 130.015  0.00  0.00    -0.003 C 
ENDBRANCH  32  34
ENDBRANCH  31  32
ENDBRANCH  30  31
ENDBRANCH  29  30
ENDBRANCH  23  29
ENDBRANCH  22  26
ENDBRANCH  21  22
ENDBRANCH  20  21
ENDBRANCH   1  20
TORSDOF 25
ENDMDL
MODEL 7
REMARK VINA RESULT:      -5.4      2.584      7.176
REMARK  Name = NuBBE_389
REMARK  27 active torsions:
REMARK  status: ('A' for Active; 'I' for Inactive)
REMARK    1  A    between atoms: C_1  and  C_2
REMARK    2  A    between atoms: C_2  and  C_3
REMARK    3  A    between atoms: C_3  and  C_4
REMARK    4  A    between atoms: C_4  and  C_5
REMARK    5  A    between atoms: C_5  and  O_6
REMARK    6  A    between atoms: O_6  and  C_7
REMARK    7  A    between atoms: C_10  and  C_11
REMARK    8  A    between atoms: C_11  and  C_12
REMARK    9  A    between atoms: C_12  and  O_13
REMARK   10  A    between atoms: O_13  and  C_14
REMARK   11  A    between atoms: C_14  and  C_15
REMARK   12  A    between atoms: C_15  and  C_16
REMARK   13  A    between atoms: C_16  and  C_17
REMARK   14  A    between atoms: C_17  and  C_18
REMARK   15  A    between atoms: C_18  and  C_19
REMARK   16  A    between atoms: C_19  and  C_20
REMARK   17  A    between atoms: C_20  and  C_21
REMARK   18  A    between atoms: C_21  and  C_22
REMARK   19  A    between atoms: C_22  and  C_23
REMARK   20  A    between atoms: C_23  and  C_24
REMARK   21  A    between atoms: C_24  and  C_25
REMARK   22  A    between atoms: C_25  and  C_26
REMARK   23  A    between atoms: C_26  and  C_27
REMARK   24  A    between atoms: C_27  and  C_28
REMARK   25  A    between atoms: C_28  and  C_29
REMARK   26  A    between atoms: C_29  and  C_30
REMARK   27  A    between atoms: C_30  and  C_31
REMARK                            x       y       z     vdW  Elec       q    Type
REMARK                         _______ _______ _______ _____ _____    ______ ____
ROOT
ATOM      1  C   LIG A   1      -7.917   3.177 130.684  0.00  0.00    +0.307 C 
ATOM      2  O   LIG A   1      -8.433   3.974 131.543  0.00  0.00    -0.251 OA
ENDROOT
BRANCH   1   3
ATOM      3  C   LIG A   1      -8.676   2.151 129.885  0.00  0.00    +0.120 C 
BRANCH   3   4
ATOM      4  C   LIG A   1      -7.882   0.856 129.602  0.00  0.00    +0.011 C 
BRANCH   4   5
ATOM      5  C   LIG A   1      -7.679   0.372 128.134  0.00  0.00    +0.000 C 
BRANCH   5   6
ATOM      6  C   LIG A   1      -8.687   0.881 127.051  0.00  0.00    +0.000 C 
BRANCH   6   7
ATOM      7  C   LIG A   1      -8.580   0.307 125.582  0.00  0.00    -0.000 C 
BRANCH   7   8
ATOM      8  C   LIG A   1      -7.139  -0.126 125.130  0.00  0.00    -0.000 C 
BRANCH   8   9
ATOM      9  C   LIG A   1      -6.917  -0.342 123.586  0.00  0.00    -0.000 C 
BRANCH   9  10
ATOM     10  C   LIG A   1      -7.121  -1.802 123.134  0.00  0.00    -0.000 C 
BRANCH  10  11
ATOM     11  C   LIG A   1      -6.578  -2.948 124.022  0.00  0.00    -0.000 C 
BRANCH  11  12
ATOM     12  C   LIG A   1      -7.608  -3.940 124.588  0.00  0.00    -0.000 C 
BRANCH  12  13
ATOM     13  C   LIG A   1      -9.006  -3.324 124.818  0.00  0.00    -0.000 C 
BRANCH  13  14
ATOM     14  C   LIG A   1      -9.413  -2.995 126.266  0.00  0.00    -0.000 C 
BRANCH  14  15
ATOM     15  C   LIG A   1      -8.949  -3.964 127.376  0.00  0.00    -0.000 C 
BRANCH  15  16
ATOM     16  C   LIG A   1      -8.519  -3.290 128.680  0.00  0.00    -0.000 C 
BRANCH  16  17
ATOM     17  C   LIG A   1      -7.033  -3.137 128.958  0.00  0.00    -0.000 C 
BRANCH  17  18
ATOM     18  C   LIG A   1      -6.628  -3.460 130.381  0.00  0.00    -0.003 C 
ATOM     19  C   LIG A   1      -6.978  -2.317 131.323  0.00  0.00    +0.004 C 
ENDBRANCH  17  18
ENDBRANCH  16  17
ENDBRANCH  15  16
ENDBRANCH  14  15
ENDBRANCH  13  14
ENDBRANCH  12  13
ENDBRANCH  11  12
ENDBRANCH  10  11
ENDBRANCH   9  10
ENDBRANCH   8   9
ENDBRANCH   7   8
ENDBRANCH   6   7
ENDBRANCH   5   6
ENDBRANCH   4   5
ENDBRANCH   3   4
ENDBRANCH   1   3
BRANCH   1  20
ATOM     20  O   LIG A   1      -6.604   3.065 130.418  0.00  0.00    -0.464 OA
BRANCH  20  21
ATOM     21  C   LIG A   1      -5.982   4.153 129.689  0.00  0.00    +0.237 C 
BRANCH  21  22
ATOM     22  C   LIG A   1      -5.369   3.574 128.417  0.00  0.00    +0.076 C 
BRANCH  22  26
ATOM     23  C   LIG A   1      -7.610   3.831 124.707  0.00  0.00    +0.120 A 
ATOM     24  C   LIG A   1      -6.324   3.258 124.749  0.00  0.00    +0.046 A 
ATOM     25  C   LIG A   1      -5.604   3.136 125.950  0.00  0.00    +0.007 A 
ATOM     26  C   LIG A   1      -6.142   3.628 127.136  0.00  0.00    -0.044 A 
ATOM     27  C   LIG A   1      -7.439   4.147 127.114  0.00  0.00    +0.007 A 
ATOM     28  C   LIG A   1      -8.146   4.289 125.907  0.00  0.00    +0.046 A 
BRANCH  23  29
ATOM     29  O   LIG A   1      -8.230   3.841 123.480  0.00  0.00    -0.492 OA
BRANCH  29  30
ATOM     30  C   LIG A   1      -7.884   2.911 122.440  0.00  0.00    +0.229 C 
BRANCH  30  31
ATOM     31  C   LIG A   1      -7.975   3.465 120.989  0.00  0.00    +0.041 C 
BRANCH  31  32
ATOM     32  C   LIG A   1      -6.808   4.225 120.310  0.00  0.00    +0.003 C 
BRANCH  32  34
ATOM     33  C   LIG A   1      -5.879   5.618 118.369  0.00  0.00    +0.004 C 
ATOM     34  C   LIG A   1      -7.011   4.709 118.871  0.00  0.00    -0.003 C 
ENDBRANCH  32  34
ENDBRANCH  31  32
ENDBRANCH  30  31
ENDBRANCH  29  30
ENDBRANCH  23  29
ENDBRANCH  22  26
ENDBRANCH  21  22
ENDBRANCH  20  21
ENDBRANCH   1  20
TORSDOF 25
ENDMDL
MODEL 8
REMARK VINA RESULT:      -5.3      2.080      6.024
REMARK  Name = NuBBE_389
REMARK  27 active torsions:
REMARK  status: ('A' for Active; 'I' for Inactive)
REMARK    1  A    between atoms: C_1  and  C_2
REMARK    2  A    between atoms: C_2  and  C_3
REMARK    3  A    between atoms: C_3  and  C_4
REMARK    4  A    between atoms: C_4  and  C_5
REMARK    5  A    between atoms: C_5  and  O_6
REMARK    6  A    between atoms: O_6  and  C_7
REMARK    7  A    between atoms: C_10  and  C_11
REMARK    8  A    between atoms: C_11  and  C_12
REMARK    9  A    between atoms: C_12  and  O_13
REMARK   10  A    between atoms: O_13  and  C_14
REMARK   11  A    between atoms: C_14  and  C_15
REMARK   12  A    between atoms: C_15  and  C_16
REMARK   13  A    between atoms: C_16  and  C_17
REMARK   14  A    between atoms: C_17  and  C_18
REMARK   15  A    between atoms: C_18  and  C_19
REMARK   16  A    between atoms: C_19  and  C_20
REMARK   17  A    between atoms: C_20  and  C_21
REMARK   18  A    between atoms: C_21  and  C_22
REMARK   19  A    between atoms: C_22  and  C_23
REMARK   20  A    between atoms: C_23  and  C_24
REMARK   21  A    between atoms: C_24  and  C_25
REMARK   22  A    between atoms: C_25  and  C_26
REMARK   23  A    between atoms: C_26  and  C_27
REMARK   24  A    between atoms: C_27  and  C_28
REMARK   25  A    between atoms: C_28  and  C_29
REMARK   26  A    between atoms: C_29  and  C_30
REMARK   27  A    between atoms: C_30  and  C_31
REMARK                            x       y       z     vdW  Elec       q    Type
REMARK                         _______ _______ _______ _____ _____    ______ ____
ROOT
ATOM      1  C   LIG A   1      -5.068   4.228 126.851  0.00  0.00    +0.307 C 
ATOM      2  O   LIG A   1      -4.989   5.277 127.581  0.00  0.00    -0.251 OA
ENDROOT
BRANCH   1   3
ATOM      3  C   LIG A   1      -5.117   2.814 127.365  0.00  0.00    +0.120 C 
BRANCH   3   4
ATOM      4  C   LIG A   1      -4.705   1.748 126.326  0.00  0.00    +0.011 C 
BRANCH   4   5
ATOM      5  C   LIG A   1      -5.410   0.358 126.313  0.00  0.00    +0.000 C 
BRANCH   5   6
ATOM      6  C   LIG A   1      -6.208  -0.068 127.590  0.00  0.00    +0.000 C 
BRANCH   6   7
ATOM      7  C   LIG A   1      -7.704  -0.552 127.427  0.00  0.00    -0.000 C 
BRANCH   7   8
ATOM      8  C   LIG A   1      -8.034  -1.950 128.062  0.00  0.00    -0.000 C 
BRANCH   8   9
ATOM      9  C   LIG A   1      -6.807  -2.863 128.438  0.00  0.00    -0.000 C 
BRANCH   9  10
ATOM     10  C   LIG A   1      -6.946  -3.542 129.817  0.00  0.00    -0.000 C 
BRANCH  10  11
ATOM     11  C   LIG A   1      -5.700  -4.195 130.463  0.00  0.00    -0.000 C 
BRANCH  11  12
ATOM     12  C   LIG A   1      -5.008  -3.409 131.590  0.00  0.00    -0.000 C 
BRANCH  12  13
ATOM     13  C   LIG A   1      -3.799  -2.571 131.116  0.00  0.00    -0.000 C 
BRANCH  13  14
ATOM     14  C   LIG A   1      -4.080  -1.370 130.194  0.00  0.00    -0.000 C 
BRANCH  14  15
ATOM     15  C   LIG A   1      -4.011   0.041 130.819  0.00  0.00    -0.000 C 
BRANCH  15  16
ATOM     16  C   LIG A   1      -5.270   0.472 131.574  0.00  0.00    -0.000 C 
BRANCH  16  17
ATOM     17  C   LIG A   1      -6.613  -0.062 131.105  0.00  0.00    -0.000 C 
BRANCH  17  18
ATOM     18  C   LIG A   1      -7.672  -0.123 132.186  0.00  0.00    -0.003 C 
ATOM     19  C   LIG A   1      -9.062   0.091 131.603  0.00  0.00    +0.004 C 
ENDBRANCH  17  18
ENDBRANCH  16  17
ENDBRANCH  15  16
ENDBRANCH  14  15
ENDBRANCH  13  14
ENDBRANCH  12  13
ENDBRANCH  11  12
ENDBRANCH  10  11
ENDBRANCH   9  10
ENDBRANCH   8   9
ENDBRANCH   7   8
ENDBRANCH   6   7
ENDBRANCH   5   6
ENDBRANCH   4   5
ENDBRANCH   3   4
ENDBRANCH   1   3
BRANCH   1  20
ATOM     20  O   LIG A   1      -5.030   4.211 125.507  0.00  0.00    -0.464 OA
BRANCH  20  21
ATOM     21  C   LIG A   1      -6.114   4.873 124.807  0.00  0.00    +0.237 C 
BRANCH  21  22
ATOM     22  C   LIG A   1      -6.473   4.025 123.592  0.00  0.00    +0.076 C 
BRANCH  22  26
ATOM     23  C   LIG A   1      -8.798   0.392 124.100  0.00  0.00    +0.120 A 
ATOM     24  C   LIG A   1      -7.646   0.418 123.291  0.00  0.00    +0.046 A 
ATOM     25  C   LIG A   1      -6.864   1.578 123.148  0.00  0.00    +0.007 A 
ATOM     26  C   LIG A   1      -7.247   2.757 123.782  0.00  0.00    -0.044 A 
ATOM     27  C   LIG A   1      -8.357   2.726 124.630  0.00  0.00    +0.007 A 
ATOM     28  C   LIG A   1      -9.149   1.571 124.751  0.00  0.00    +0.046 A 
BRANCH  23  29
ATOM     29  O   LIG A   1      -9.442  -0.818 124.200  0.00  0.00    -0.492 OA
BRANCH  29  30
ATOM     30  C   LIG A   1      -9.192  -1.896 123.281  0.00  0.00    +0.229 C 
BRANCH  30  31
ATOM     31  C   LIG A   1      -9.048  -3.304 123.925  0.00  0.00    +0.041 C 
BRANCH  31  32
ATOM     32  C   LIG A   1      -7.770  -3.750 124.680  0.00  0.00    +0.003 C 
BRANCH  32  34
ATOM     33  C   LIG A   1      -5.446  -3.219 123.736  0.00  0.00    +0.004 C 
ATOM     34  C   LIG A   1      -6.574  -2.794 124.689  0.00  0.00    -0.003 C 
ENDBRANCH  32  34
ENDBRANCH  31  32
ENDBRANCH  30  31
ENDBRANCH  29  30
ENDBRANCH  23  29
ENDBRANCH  22  26
ENDBRANCH  21  22
ENDBRANCH  20  21
ENDBRANCH   1  20
TORSDOF 25
ENDMDL
MODEL 9
REMARK VINA RESULT:      -5.3      2.629      6.106
REMARK  Name = NuBBE_389
REMARK  27 active torsions:
REMARK  status: ('A' for Active; 'I' for Inactive)
REMARK    1  A    between atoms: C_1  and  C_2
REMARK    2  A    between atoms: C_2  and  C_3
REMARK    3  A    between atoms: C_3  and  C_4
REMARK    4  A    between atoms: C_4  and  C_5
REMARK    5  A    between atoms: C_5  and  O_6
REMARK    6  A    between atoms: O_6  and  C_7
REMARK    7  A    between atoms: C_10  and  C_11
REMARK    8  A    between atoms: C_11  and  C_12
REMARK    9  A    between atoms: C_12  and  O_13
REMARK   10  A    between atoms: O_13  and  C_14
REMARK   11  A    between atoms: C_14  and  C_15
REMARK   12  A    between atoms: C_15  and  C_16
REMARK   13  A    between atoms: C_16  and  C_17
REMARK   14  A    between atoms: C_17  and  C_18
REMARK   15  A    between atoms: C_18  and  C_19
REMARK   16  A    between atoms: C_19  and  C_20
REMARK   17  A    between atoms: C_20  and  C_21
REMARK   18  A    between atoms: C_21  and  C_22
REMARK   19  A    between atoms: C_22  and  C_23
REMARK   20  A    between atoms: C_23  and  C_24
REMARK   21  A    between atoms: C_24  and  C_25
REMARK   22  A    between atoms: C_25  and  C_26
REMARK   23  A    between atoms: C_26  and  C_27
REMARK   24  A    between atoms: C_27  and  C_28
REMARK   25  A    between atoms: C_28  and  C_29
REMARK   26  A    between atoms: C_29  and  C_30
REMARK   27  A    between atoms: C_30  and  C_31
REMARK                            x       y       z     vdW  Elec       q    Type
REMARK                         _______ _______ _______ _____ _____    ______ ____
ROOT
ATOM      1  C   LIG A   1      -5.742  -2.748 130.260  0.00  0.00    +0.307 C 
ATOM      2  O   LIG A   1      -5.009  -3.796 130.209  0.00  0.00    -0.251 OA
ENDROOT
BRANCH   1   3
ATOM      3  C   LIG A   1      -5.955  -1.780 129.127  0.00  0.00    +0.120 C 
BRANCH   3   4
ATOM      4  C   LIG A   1      -6.836  -2.329 127.983  0.00  0.00    +0.011 C 
BRANCH   4   5
ATOM      5  C   LIG A   1      -8.209  -2.992 128.306  0.00  0.00    +0.000 C 
BRANCH   5   6
ATOM      6  C   LIG A   1      -8.993  -3.661 127.130  0.00  0.00    +0.000 C 
BRANCH   6   7
ATOM      7  C   LIG A   1      -9.432  -2.768 125.901  0.00  0.00    -0.000 C 
BRANCH   7   8
ATOM      8  C   LIG A   1      -8.911  -3.247 124.499  0.00  0.00    -0.000 C 
BRANCH   8   9
ATOM      9  C   LIG A   1      -7.574  -4.077 124.488  0.00  0.00    -0.000 C 
BRANCH   9  10
ATOM     10  C   LIG A   1      -6.305  -3.198 124.467  0.00  0.00    -0.000 C 
BRANCH  10  11
ATOM     11  C   LIG A   1      -6.299  -1.906 123.614  0.00  0.00    -0.000 C 
BRANCH  11  12
ATOM     12  C   LIG A   1      -6.550  -0.582 124.355  0.00  0.00    -0.000 C 
BRANCH  12  13
ATOM     13  C   LIG A   1      -7.625   0.310 123.695  0.00  0.00    -0.000 C 
BRANCH  13  14
ATOM     14  C   LIG A   1      -8.910   0.590 124.494  0.00  0.00    -0.000 C 
BRANCH  14  15
ATOM     15  C   LIG A   1      -8.756   1.189 125.909  0.00  0.00    -0.000 C 
BRANCH  15  16
ATOM     16  C   LIG A   1      -8.032   2.537 125.962  0.00  0.00    -0.000 C 
BRANCH  16  17
ATOM     17  C   LIG A   1      -6.685   2.607 126.663  0.00  0.00    -0.000 C 
BRANCH  17  18
ATOM     18  C   LIG A   1      -5.500   2.708 125.726  0.00  0.00    -0.003 C 
ATOM     19  C   LIG A   1      -4.258   2.084 126.345  0.00  0.00    +0.004 C 
ENDBRANCH  17  18
ENDBRANCH  16  17
ENDBRANCH  15  16
ENDBRANCH  14  15
ENDBRANCH  13  14
ENDBRANCH  12  13
ENDBRANCH  11  12
ENDBRANCH  10  11
ENDBRANCH   9  10
ENDBRANCH   8   9
ENDBRANCH   7   8
ENDBRANCH   6   7
ENDBRANCH   5   6
ENDBRANCH   4   5
ENDBRANCH   3   4
ENDBRANCH   1   3
BRANCH   1  20
ATOM     20  O   LIG A   1      -6.370  -2.292 131.358  0.00  0.00    -0.464 OA
BRANCH  20  21
ATOM     21  C   LIG A   1      -6.574  -0.859 131.456  0.00  0.00    +0.237 C 
BRANCH  21  22
ATOM     22  C   LIG A   1      -8.057  -0.613 131.711  0.00  0.00    +0.076 C 
BRANCH  22  26
ATOM     23  C   LIG A   1      -9.862   3.082 130.319  0.00  0.00    +0.120 A 
ATOM     24  C   LIG A   1      -8.923   2.384 129.535  0.00  0.00    +0.046 A 
ATOM     25  C   LIG A   1      -8.359   1.168 129.959  0.00  0.00    +0.007 A 
ATOM     26  C   LIG A   1      -8.694   0.644 131.204  0.00  0.00    -0.044 A 
ATOM     27  C   LIG A   1      -9.665   1.300 131.964  0.00  0.00    +0.007 A 
ATOM     28  C   LIG A   1     -10.208   2.528 131.547  0.00  0.00    +0.046 A 
BRANCH  23  29
ATOM     29  O   LIG A   1     -10.379   4.231 129.767  0.00  0.00    -0.492 OA
BRANCH  29  30
ATOM     30  C   LIG A   1     -10.820   5.336 130.575  0.00  0.00    +0.229 C 
BRANCH  30  31
ATOM     31  C   LIG A   1     -10.405   6.745 130.064  0.00  0.00    +0.041 C 
BRANCH  31  32
ATOM     32  C   LIG A   1     -11.438   7.850 129.727  0.00  0.00    +0.003 C 
BRANCH  32  34
ATOM     33  C   LIG A   1     -10.775   7.776 127.252  0.00  0.00    +0.004 C 
ATOM     34  C   LIG A   1     -11.906   7.973 128.273  0.00  0.00    -0.003 C 
ENDBRANCH  32  34
ENDBRANCH  31  32
ENDBRANCH  30  31
ENDBRANCH  29  30
ENDBRANCH  23  29
ENDBRANCH  22  26
ENDBRANCH  21  22
ENDBRANCH  20  21
ENDBRANCH   1  20
TORSDOF 25
ENDMDL
