MODEL 1
REMARK VINA RESULT:      -6.8      0.000      0.000
REMARK  Name = NuBBE_1267
REMARK  7 active torsions:
REMARK  status: ('A' for Active; 'I' for Inactive)
REMARK    1  A    between atoms: C_9  and  C_10
REMARK    2  A    between atoms: C_11  and  C_12
REMARK    3  A    between atoms: C_12  and  O_13
REMARK    4  A    between atoms: C_12  and  C_14
REMARK    5  A    between atoms: C_12  and  C_15
REMARK    6  A    between atoms: C_16  and  O_17
REMARK    7  A    between atoms: O_17  and  C_18
REMARK                            x       y       z     vdW  Elec       q    Type
REMARK                         _______ _______ _______ _____ _____    ______ ____
ROOT
ATOM      1  O   LIG A   1      -4.211   6.176 120.985  0.00  0.00    -0.245 OA
ATOM      2  C   LIG A   1      -4.852   5.208 121.384  0.00  0.00    +0.337 A 
ATOM      3  C   LIG A   1      -5.438   4.251 120.432  0.00  0.00    +0.092 A 
ATOM      4  C   LIG A   1      -6.138   3.183 120.828  0.00  0.00    +0.018 A 
ATOM      5  O   LIG A   1      -5.061   4.963 122.734  0.00  0.00    -0.422 OA
ATOM      6  C   LIG A   1      -5.798   3.841 123.165  0.00  0.00    +0.143 A 
ATOM      7  C   LIG A   1      -6.337   2.946 122.248  0.00  0.00    +0.018 A 
ATOM      8  C   LIG A   1      -7.039   1.836 122.720  0.00  0.00    +0.023 A 
ATOM      9  C   LIG A   1      -7.217   1.630 124.101  0.00  0.00    +0.017 A 
ATOM     10  C   LIG A   1      -6.663   2.560 125.015  0.00  0.00    +0.131 A 
ATOM     11  C   LIG A   1      -5.947   3.663 124.538  0.00  0.00    +0.093 A 
ENDROOT
BRANCH   9  12
ATOM     12  C   LIG A   1      -7.915   0.420 124.587  0.00  0.00    +0.010 C 
ATOM     13  C   LIG A   1      -7.839  -0.795 124.017  0.00  0.00    +0.007 C 
BRANCH  13  14
ATOM     14  C   LIG A   1      -8.548  -2.045 124.478  0.00  0.00    +0.079 C 
ATOM     15  C   LIG A   1      -9.214  -2.864 123.366  0.00  0.00    +0.045 C 
ATOM     16  C   LIG A   1      -7.583  -2.919 125.279  0.00  0.00    +0.045 C 
BRANCH  14  17
ATOM     17  O   LIG A   1      -9.583  -1.622 125.372  0.00  0.00    -0.385 OA
ATOM     18  H   LIG A   1      -9.842  -0.724 125.106  0.00  0.00    +0.211 HD
ENDBRANCH  14  17
ENDBRANCH  13  14
ENDBRANCH   9  12
BRANCH  10  19
ATOM     19  O   LIG A   1      -6.832   2.296 126.353  0.00  0.00    -0.494 OA
ATOM     20  C   LIG A   1      -7.611   3.235 127.087  0.00  0.00    +0.277 C 
ENDBRANCH  10  19
TORSDOF 4
ENDMDL
MODEL 2
REMARK VINA RESULT:      -6.8      2.751      4.794
REMARK  Name = NuBBE_1267
REMARK  7 active torsions:
REMARK  status: ('A' for Active; 'I' for Inactive)
REMARK    1  A    between atoms: C_9  and  C_10
REMARK    2  A    between atoms: C_11  and  C_12
REMARK    3  A    between atoms: C_12  and  O_13
REMARK    4  A    between atoms: C_12  and  C_14
REMARK    5  A    between atoms: C_12  and  C_15
REMARK    6  A    between atoms: C_16  and  O_17
REMARK    7  A    between atoms: O_17  and  C_18
REMARK                            x       y       z     vdW  Elec       q    Type
REMARK                         _______ _______ _______ _____ _____    ______ ____
ROOT
ATOM      1  O   LIG A   1      -9.306   4.234 118.922  0.00  0.00    -0.245 OA
ATOM      2  C   LIG A   1      -8.550   4.014 119.864  0.00  0.00    +0.337 A 
ATOM      3  C   LIG A   1      -7.103   4.252 119.739  0.00  0.00    +0.092 A 
ATOM      4  C   LIG A   1      -6.250   4.029 120.744  0.00  0.00    +0.018 A 
ATOM      5  O   LIG A   1      -9.007   3.532 121.084  0.00  0.00    -0.422 OA
ATOM      6  C   LIG A   1      -8.117   3.291 122.151  0.00  0.00    +0.143 A 
ATOM      7  C   LIG A   1      -6.755   3.530 122.012  0.00  0.00    +0.018 A 
ATOM      8  C   LIG A   1      -5.915   3.300 123.102  0.00  0.00    +0.023 A 
ATOM      9  C   LIG A   1      -6.431   2.817 124.321  0.00  0.00    +0.017 A 
ATOM     10  C   LIG A   1      -7.822   2.576 124.434  0.00  0.00    +0.131 A 
ATOM     11  C   LIG A   1      -8.663   2.821 123.343  0.00  0.00    +0.093 A 
ENDROOT
BRANCH   9  12
ATOM     12  C   LIG A   1      -5.536   2.631 125.483  0.00  0.00    +0.010 C 
ATOM     13  C   LIG A   1      -4.464   3.395 125.761  0.00  0.00    +0.007 C 
BRANCH  13  14
ATOM     14  C   LIG A   1      -3.524   3.224 126.930  0.00  0.00    +0.079 C 
ATOM     15  C   LIG A   1      -2.040   3.124 126.562  0.00  0.00    +0.045 C 
ATOM     16  C   LIG A   1      -3.748   4.349 127.939  0.00  0.00    +0.045 C 
BRANCH  14  17
ATOM     17  O   LIG A   1      -3.887   1.997 127.571  0.00  0.00    -0.385 OA
ATOM     18  H   LIG A   1      -4.817   1.822 127.349  0.00  0.00    +0.211 HD
ENDBRANCH  14  17
ENDBRANCH  13  14
ENDBRANCH   9  12
BRANCH  10  19
ATOM     19  O   LIG A   1      -8.282   2.139 125.653  0.00  0.00    -0.494 OA
ATOM     20  C   LIG A   1      -8.914   0.864 125.669  0.00  0.00    +0.277 C 
ENDBRANCH  10  19
TORSDOF 4
ENDMDL
MODEL 3
REMARK VINA RESULT:      -6.7      9.330     10.863
REMARK  Name = NuBBE_1267
REMARK  7 active torsions:
REMARK  status: ('A' for Active; 'I' for Inactive)
REMARK    1  A    between atoms: C_9  and  C_10
REMARK    2  A    between atoms: C_11  and  C_12
REMARK    3  A    between atoms: C_12  and  O_13
REMARK    4  A    between atoms: C_12  and  C_14
REMARK    5  A    between atoms: C_12  and  C_15
REMARK    6  A    between atoms: C_16  and  O_17
REMARK    7  A    between atoms: O_17  and  C_18
REMARK                            x       y       z     vdW  Elec       q    Type
REMARK                         _______ _______ _______ _____ _____    ______ ____
ROOT
ATOM      1  O   LIG A   1     -13.505   7.054 131.133  0.00  0.00    -0.245 OA
ATOM      2  C   LIG A   1     -12.282   7.007 131.043  0.00  0.00    +0.337 A 
ATOM      3  C   LIG A   1     -11.593   7.546 129.859  0.00  0.00    +0.092 A 
ATOM      4  C   LIG A   1     -10.264   7.516 129.728  0.00  0.00    +0.018 A 
ATOM      5  O   LIG A   1     -11.487   6.448 132.035  0.00  0.00    -0.422 OA
ATOM      6  C   LIG A   1     -10.083   6.410 131.908  0.00  0.00    +0.143 A 
ATOM      7  C   LIG A   1      -9.454   6.932 130.784  0.00  0.00    +0.018 A 
ATOM      8  C   LIG A   1      -8.061   6.893 130.712  0.00  0.00    +0.023 A 
ATOM      9  C   LIG A   1      -7.300   6.321 131.749  0.00  0.00    +0.017 A 
ATOM     10  C   LIG A   1      -7.966   5.791 132.881  0.00  0.00    +0.131 A 
ATOM     11  C   LIG A   1      -9.363   5.844 132.957  0.00  0.00    +0.093 A 
ENDROOT
BRANCH   9  12
ATOM     12  C   LIG A   1      -5.824   6.338 131.682  0.00  0.00    +0.010 C 
ATOM     13  C   LIG A   1      -5.097   7.127 130.871  0.00  0.00    +0.007 C 
BRANCH  13  14
ATOM     14  C   LIG A   1      -3.591   7.160 130.769  0.00  0.00    +0.079 C 
ATOM     15  C   LIG A   1      -2.890   8.081 131.773  0.00  0.00    +0.045 C 
ATOM     16  C   LIG A   1      -3.038   5.739 130.872  0.00  0.00    +0.045 C 
BRANCH  14  17
ATOM     17  O   LIG A   1      -3.281   7.644 129.458  0.00  0.00    -0.385 OA
ATOM     18  H   LIG A   1      -2.350   7.925 129.469  0.00  0.00    +0.211 HD
ENDBRANCH  14  17
ENDBRANCH  13  14
ENDBRANCH   9  12
BRANCH  10  19
ATOM     19  O   LIG A   1      -7.180   5.276 133.883  0.00  0.00    -0.494 OA
ATOM     20  C   LIG A   1      -7.865   4.664 134.971  0.00  0.00    +0.277 C 
ENDBRANCH  10  19
TORSDOF 4
ENDMDL
MODEL 4
REMARK VINA RESULT:      -6.6      9.431     10.136
REMARK  Name = NuBBE_1267
REMARK  7 active torsions:
REMARK  status: ('A' for Active; 'I' for Inactive)
REMARK    1  A    between atoms: C_9  and  C_10
REMARK    2  A    between atoms: C_11  and  C_12
REMARK    3  A    between atoms: C_12  and  O_13
REMARK    4  A    between atoms: C_12  and  C_14
REMARK    5  A    between atoms: C_12  and  C_15
REMARK    6  A    between atoms: C_16  and  O_17
REMARK    7  A    between atoms: O_17  and  C_18
REMARK                            x       y       z     vdW  Elec       q    Type
REMARK                         _______ _______ _______ _____ _____    ______ ____
ROOT
ATOM      1  O   LIG A   1      -2.329   6.310 132.588  0.00  0.00    -0.245 OA
ATOM      2  C   LIG A   1      -3.490   6.463 132.221  0.00  0.00    +0.337 A 
ATOM      3  C   LIG A   1      -3.802   7.266 131.028  0.00  0.00    +0.092 A 
ATOM      4  C   LIG A   1      -5.053   7.452 130.595  0.00  0.00    +0.018 A 
ATOM      5  O   LIG A   1      -4.563   5.900 132.900  0.00  0.00    -0.422 OA
ATOM      6  C   LIG A   1      -5.887   6.090 132.454  0.00  0.00    +0.143 A 
ATOM      7  C   LIG A   1      -6.157   6.846 131.320  0.00  0.00    +0.018 A 
ATOM      8  C   LIG A   1      -7.481   6.988 130.903  0.00  0.00    +0.023 A 
ATOM      9  C   LIG A   1      -8.532   6.389 131.624  0.00  0.00    +0.017 A 
ATOM     10  C   LIG A   1      -8.231   5.628 132.779  0.00  0.00    +0.131 A 
ATOM     11  C   LIG A   1      -6.900   5.477 133.187  0.00  0.00    +0.093 A 
ENDROOT
BRANCH   9  12
ATOM     12  C   LIG A   1      -9.923   6.502 131.137  0.00  0.00    +0.010 C 
ATOM     13  C   LIG A   1     -10.311   7.218 130.067  0.00  0.00    +0.007 C 
BRANCH  13  14
ATOM     14  C   LIG A   1     -11.722   7.365 129.552  0.00  0.00    +0.079 C 
ATOM     15  C   LIG A   1     -12.777   7.668 130.622  0.00  0.00    +0.045 C 
ATOM     16  C   LIG A   1     -11.761   8.425 128.451  0.00  0.00    +0.045 C 
BRANCH  14  17
ATOM     17  O   LIG A   1     -12.071   6.114 128.952  0.00  0.00    -0.385 OA
ATOM     18  H   LIG A   1     -11.310   5.829 128.419  0.00  0.00    +0.211 HD
ENDBRANCH  14  17
ENDBRANCH  13  14
ENDBRANCH   9  12
BRANCH  10  19
ATOM     19  O   LIG A   1      -9.286   5.035 133.429  0.00  0.00    -0.494 OA
ATOM     20  C   LIG A   1      -9.221   3.620 133.578  0.00  0.00    +0.277 C 
ENDBRANCH  10  19
TORSDOF 4
ENDMDL
MODEL 5
REMARK VINA RESULT:      -6.4      8.870      9.932
REMARK  Name = NuBBE_1267
REMARK  7 active torsions:
REMARK  status: ('A' for Active; 'I' for Inactive)
REMARK    1  A    between atoms: C_9  and  C_10
REMARK    2  A    between atoms: C_11  and  C_12
REMARK    3  A    between atoms: C_12  and  O_13
REMARK    4  A    between atoms: C_12  and  C_14
REMARK    5  A    between atoms: C_12  and  C_15
REMARK    6  A    between atoms: C_16  and  O_17
REMARK    7  A    between atoms: O_17  and  C_18
REMARK                            x       y       z     vdW  Elec       q    Type
REMARK                         _______ _______ _______ _____ _____    ______ ____
ROOT
ATOM      1  O   LIG A   1     -13.630   7.241 127.368  0.00  0.00    -0.245 OA
ATOM      2  C   LIG A   1     -12.606   7.215 128.044  0.00  0.00    +0.337 A 
ATOM      3  C   LIG A   1     -11.610   8.294 127.941  0.00  0.00    +0.092 A 
ATOM      4  C   LIG A   1     -10.486   8.303 128.663  0.00  0.00    +0.018 A 
ATOM      5  O   LIG A   1     -12.327   6.182 128.929  0.00  0.00    -0.422 OA
ATOM      6  C   LIG A   1     -11.143   6.180 129.695  0.00  0.00    +0.143 A 
ATOM      7  C   LIG A   1     -10.221   7.214 129.587  0.00  0.00    +0.018 A 
ATOM      8  C   LIG A   1      -9.075   7.181 130.382  0.00  0.00    +0.023 A 
ATOM      9  C   LIG A   1      -8.843   6.113 131.270  0.00  0.00    +0.017 A 
ATOM     10  C   LIG A   1      -9.796   5.069 131.357  0.00  0.00    +0.131 A 
ATOM     11  C   LIG A   1     -10.951   5.112 130.568  0.00  0.00    +0.093 A 
ENDROOT
BRANCH   9  12
ATOM     12  C   LIG A   1      -7.652   6.122 132.145  0.00  0.00    +0.010 C 
ATOM     13  C   LIG A   1      -6.411   5.771 131.764  0.00  0.00    +0.007 C 
BRANCH  13  14
ATOM     14  C   LIG A   1      -5.178   5.755 132.634  0.00  0.00    +0.079 C 
ATOM     15  C   LIG A   1      -4.109   6.791 132.268  0.00  0.00    +0.045 C 
ATOM     16  C   LIG A   1      -5.582   5.903 134.101  0.00  0.00    +0.045 C 
BRANCH  14  17
ATOM     17  O   LIG A   1      -4.586   4.461 132.483  0.00  0.00    -0.385 OA
ATOM     18  H   LIG A   1      -3.664   4.598 132.206  0.00  0.00    +0.211 HD
ENDBRANCH  14  17
ENDBRANCH  13  14
ENDBRANCH   9  12
BRANCH  10  19
ATOM     19  O   LIG A   1      -9.543   4.068 132.263  0.00  0.00    -0.494 OA
ATOM     20  C   LIG A   1      -9.587   2.736 131.761  0.00  0.00    +0.277 C 
ENDBRANCH  10  19
TORSDOF 4
ENDMDL
MODEL 6
REMARK VINA RESULT:      -6.1      5.680      9.430
REMARK  Name = NuBBE_1267
REMARK  7 active torsions:
REMARK  status: ('A' for Active; 'I' for Inactive)
REMARK    1  A    between atoms: C_9  and  C_10
REMARK    2  A    between atoms: C_11  and  C_12
REMARK    3  A    between atoms: C_12  and  O_13
REMARK    4  A    between atoms: C_12  and  C_14
REMARK    5  A    between atoms: C_12  and  C_15
REMARK    6  A    between atoms: C_16  and  O_17
REMARK    7  A    between atoms: O_17  and  C_18
REMARK                            x       y       z     vdW  Elec       q    Type
REMARK                         _______ _______ _______ _____ _____    ______ ____
ROOT
ATOM      1  O   LIG A   1      -5.062  -4.544 134.630  0.00  0.00    -0.245 OA
ATOM      2  C   LIG A   1      -5.439  -4.300 133.488  0.00  0.00    +0.337 A 
ATOM      3  C   LIG A   1      -5.241  -5.277 132.405  0.00  0.00    +0.092 A 
ATOM      4  C   LIG A   1      -5.642  -5.049 131.151  0.00  0.00    +0.018 A 
ATOM      5  O   LIG A   1      -6.063  -3.106 133.153  0.00  0.00    -0.422 OA
ATOM      6  C   LIG A   1      -6.490  -2.852 131.833  0.00  0.00    +0.143 A 
ATOM      7  C   LIG A   1      -6.299  -3.794 130.828  0.00  0.00    +0.018 A 
ATOM      8  C   LIG A   1      -6.759  -3.510 129.542  0.00  0.00    +0.023 A 
ATOM      9  C   LIG A   1      -7.392  -2.286 129.256  0.00  0.00    +0.017 A 
ATOM     10  C   LIG A   1      -7.570  -1.341 130.296  0.00  0.00    +0.131 A 
ATOM     11  C   LIG A   1      -7.120  -1.635 131.588  0.00  0.00    +0.093 A 
ENDROOT
BRANCH   9  12
ATOM     12  C   LIG A   1      -7.923  -2.024 127.901  0.00  0.00    +0.010 C 
ATOM     13  C   LIG A   1      -8.252  -2.971 127.005  0.00  0.00    +0.007 C 
BRANCH  13  14
ATOM     14  C   LIG A   1      -8.782  -2.738 125.611  0.00  0.00    +0.079 C 
ATOM     15  C   LIG A   1      -8.612  -1.310 125.080  0.00  0.00    +0.045 C 
ATOM     16  C   LIG A   1      -8.155  -3.744 124.646  0.00  0.00    +0.045 C 
BRANCH  14  17
ATOM     17  O   LIG A   1     -10.187  -3.010 125.657  0.00  0.00    -0.385 OA
ATOM     18  H   LIG A   1     -10.583  -2.369 126.271  0.00  0.00    +0.211 HD
ENDBRANCH  14  17
ENDBRANCH  13  14
ENDBRANCH   9  12
BRANCH  10  19
ATOM     19  O   LIG A   1      -8.225  -0.176 129.977  0.00  0.00    -0.494 OA
ATOM     20  C   LIG A   1      -8.684   0.610 131.071  0.00  0.00    +0.277 C 
ENDBRANCH  10  19
TORSDOF 4
ENDMDL
MODEL 7
REMARK VINA RESULT:      -6.0      7.523     10.103
REMARK  Name = NuBBE_1267
REMARK  7 active torsions:
REMARK  status: ('A' for Active; 'I' for Inactive)
REMARK    1  A    between atoms: C_9  and  C_10
REMARK    2  A    between atoms: C_11  and  C_12
REMARK    3  A    between atoms: C_12  and  O_13
REMARK    4  A    between atoms: C_12  and  C_14
REMARK    5  A    between atoms: C_12  and  C_15
REMARK    6  A    between atoms: C_16  and  O_17
REMARK    7  A    between atoms: O_17  and  C_18
REMARK                            x       y       z     vdW  Elec       q    Type
REMARK                         _______ _______ _______ _____ _____    ______ ____
ROOT
ATOM      1  O   LIG A   1      -1.350   8.727 135.374  0.00  0.00    -0.245 OA
ATOM      2  C   LIG A   1      -1.398   8.177 134.278  0.00  0.00    +0.337 A 
ATOM      3  C   LIG A   1      -0.179   7.635 133.656  0.00  0.00    +0.092 A 
ATOM      4  C   LIG A   1      -0.192   7.025 132.466  0.00  0.00    +0.018 A 
ATOM      5  O   LIG A   1      -2.583   8.037 133.569  0.00  0.00    -0.422 OA
ATOM      6  C   LIG A   1      -2.610   7.397 132.313  0.00  0.00    +0.143 A 
ATOM      7  C   LIG A   1      -1.447   6.886 131.748  0.00  0.00    +0.018 A 
ATOM      8  C   LIG A   1      -1.525   6.240 130.514  0.00  0.00    +0.023 A 
ATOM      9  C   LIG A   1      -2.754   6.119 129.839  0.00  0.00    +0.017 A 
ATOM     10  C   LIG A   1      -3.923   6.653 130.434  0.00  0.00    +0.131 A 
ATOM     11  C   LIG A   1      -3.844   7.288 131.678  0.00  0.00    +0.093 A 
ENDROOT
BRANCH   9  12
ATOM     12  C   LIG A   1      -2.829   5.383 128.559  0.00  0.00    +0.010 C 
ATOM     13  C   LIG A   1      -2.965   4.050 128.442  0.00  0.00    +0.007 C 
BRANCH  13  14
ATOM     14  C   LIG A   1      -3.030   3.267 127.153  0.00  0.00    +0.079 C 
ATOM     15  C   LIG A   1      -3.914   3.882 126.062  0.00  0.00    +0.045 C 
ATOM     16  C   LIG A   1      -1.616   3.030 126.623  0.00  0.00    +0.045 C 
BRANCH  14  17
ATOM     17  O   LIG A   1      -3.584   1.988 127.478  0.00  0.00    -0.385 OA
ATOM     18  H   LIG A   1      -4.537   2.034 127.295  0.00  0.00    +0.211 HD
ENDBRANCH  14  17
ENDBRANCH  13  14
ENDBRANCH   9  12
BRANCH  10  19
ATOM     19  O   LIG A   1      -5.105   6.479 129.754  0.00  0.00    -0.494 OA
ATOM     20  C   LIG A   1      -6.016   5.534 130.305  0.00  0.00    +0.277 C 
ENDBRANCH  10  19
TORSDOF 4
ENDMDL
MODEL 8
REMARK VINA RESULT:      -6.0      2.527      3.663
REMARK  Name = NuBBE_1267
REMARK  7 active torsions:
REMARK  status: ('A' for Active; 'I' for Inactive)
REMARK    1  A    between atoms: C_9  and  C_10
REMARK    2  A    between atoms: C_11  and  C_12
REMARK    3  A    between atoms: C_12  and  O_13
REMARK    4  A    between atoms: C_12  and  C_14
REMARK    5  A    between atoms: C_12  and  C_15
REMARK    6  A    between atoms: C_16  and  O_17
REMARK    7  A    between atoms: O_17  and  C_18
REMARK                            x       y       z     vdW  Elec       q    Type
REMARK                         _______ _______ _______ _____ _____    ______ ____
ROOT
ATOM      1  O   LIG A   1      -4.111   6.301 127.554  0.00  0.00    -0.245 OA
ATOM      2  C   LIG A   1      -4.502   5.233 127.093  0.00  0.00    +0.337 A 
ATOM      3  C   LIG A   1      -3.797   3.978 127.403  0.00  0.00    +0.092 A 
ATOM      4  C   LIG A   1      -4.194   2.795 126.923  0.00  0.00    +0.018 A 
ATOM      5  O   LIG A   1      -5.611   5.144 126.263  0.00  0.00    -0.422 OA
ATOM      6  C   LIG A   1      -6.040   3.902 125.750  0.00  0.00    +0.143 A 
ATOM      7  C   LIG A   1      -5.362   2.730 126.062  0.00  0.00    +0.018 A 
ATOM      8  C   LIG A   1      -5.836   1.521 125.551  0.00  0.00    +0.023 A 
ATOM      9  C   LIG A   1      -6.972   1.485 124.719  0.00  0.00    +0.017 A 
ATOM     10  C   LIG A   1      -7.640   2.695 124.412  0.00  0.00    +0.131 A 
ATOM     11  C   LIG A   1      -7.171   3.904 124.938  0.00  0.00    +0.093 A 
ENDROOT
BRANCH   9  12
ATOM     12  C   LIG A   1      -7.493   0.190 124.231  0.00  0.00    +0.010 C 
ATOM     13  C   LIG A   1      -8.062  -0.752 125.003  0.00  0.00    +0.007 C 
BRANCH  13  14
ATOM     14  C   LIG A   1      -8.591  -2.088 124.540  0.00  0.00    +0.079 C 
ATOM     15  C   LIG A   1      -9.027  -2.142 123.071  0.00  0.00    +0.045 C 
ATOM     16  C   LIG A   1      -7.560  -3.179 124.829  0.00  0.00    +0.045 C 
BRANCH  14  17
ATOM     17  O   LIG A   1      -9.746  -2.369 125.337  0.00  0.00    -0.385 OA
ATOM     18  H   LIG A   1     -10.216  -3.107 124.912  0.00  0.00    +0.211 HD
ENDBRANCH  14  17
ENDBRANCH  13  14
ENDBRANCH   9  12
BRANCH  10  19
ATOM     19  O   LIG A   1      -8.763   2.605 123.625  0.00  0.00    -0.494 OA
ATOM     20  C   LIG A   1      -8.612   2.989 122.263  0.00  0.00    +0.277 C 
ENDBRANCH  10  19
TORSDOF 4
ENDMDL
MODEL 9
REMARK VINA RESULT:      -5.8      4.332      7.774
REMARK  Name = NuBBE_1267
REMARK  7 active torsions:
REMARK  status: ('A' for Active; 'I' for Inactive)
REMARK    1  A    between atoms: C_9  and  C_10
REMARK    2  A    between atoms: C_11  and  C_12
REMARK    3  A    between atoms: C_12  and  O_13
REMARK    4  A    between atoms: C_12  and  C_14
REMARK    5  A    between atoms: C_12  and  C_15
REMARK    6  A    between atoms: C_16  and  O_17
REMARK    7  A    between atoms: O_17  and  C_18
REMARK                            x       y       z     vdW  Elec       q    Type
REMARK                         _______ _______ _______ _____ _____    ______ ____
ROOT
ATOM      1  O   LIG A   1      -7.537  -1.566 133.706  0.00  0.00    -0.245 OA
ATOM      2  C   LIG A   1      -7.565  -1.655 132.482  0.00  0.00    +0.337 A 
ATOM      3  C   LIG A   1      -7.444  -2.964 131.820  0.00  0.00    +0.092 A 
ATOM      4  C   LIG A   1      -7.474  -3.101 130.491  0.00  0.00    +0.018 A 
ATOM      5  O   LIG A   1      -7.706  -0.544 131.661  0.00  0.00    -0.422 OA
ATOM      6  C   LIG A   1      -7.738  -0.675 130.258  0.00  0.00    +0.143 A 
ATOM      7  C   LIG A   1      -7.630  -1.923 129.655  0.00  0.00    +0.018 A 
ATOM      8  C   LIG A   1      -7.690  -2.007 128.263  0.00  0.00    +0.023 A 
ATOM      9  C   LIG A   1      -7.842  -0.850 127.476  0.00  0.00    +0.017 A 
ATOM     10  C   LIG A   1      -7.945   0.410 128.115  0.00  0.00    +0.131 A 
ATOM     11  C   LIG A   1      -7.898   0.489 129.511  0.00  0.00    +0.093 A 
ENDROOT
BRANCH   9  12
ATOM     12  C   LIG A   1      -7.960  -0.962 126.007  0.00  0.00    +0.010 C 
ATOM     13  C   LIG A   1      -8.685  -1.892 125.360  0.00  0.00    +0.007 C 
BRANCH  13  14
ATOM     14  C   LIG A   1      -8.816  -2.043 123.864  0.00  0.00    +0.079 C 
ATOM     15  C   LIG A   1      -7.500  -1.953 123.083  0.00  0.00    +0.045 C 
ATOM     16  C   LIG A   1      -9.540  -3.349 123.539  0.00  0.00    +0.045 C 
BRANCH  14  17
ATOM     17  O   LIG A   1      -9.650  -0.970 123.416  0.00  0.00    -0.385 OA
ATOM     18  H   LIG A   1      -9.632  -0.285 124.106  0.00  0.00    +0.211 HD
ENDBRANCH  14  17
ENDBRANCH  13  14
ENDBRANCH   9  12
BRANCH  10  19
ATOM     19  O   LIG A   1      -8.127   1.506 127.307  0.00  0.00    -0.494 OA
ATOM     20  C   LIG A   1      -7.093   2.485 127.327  0.00  0.00    +0.277 C 
ENDBRANCH  10  19
TORSDOF 4
ENDMDL
