MODEL 1
REMARK VINA RESULT:      -6.2      0.000      0.000
REMARK  Name = NuBBE_598
REMARK  6 active torsions:
REMARK  status: ('A' for Active; 'I' for Inactive)
REMARK    1  A    between atoms: C_1  and  O_2
REMARK    2  A    between atoms: O_2  and  C_3
REMARK    3  A    between atoms: C_12  and  O_13
REMARK    4  A    between atoms: O_13  and  C_14
REMARK    5  A    between atoms: C_15  and  O_16
REMARK    6  A    between atoms: O_16  and  C_17
REMARK                            x       y       z     vdW  Elec       q    Type
REMARK                         _______ _______ _______ _____ _____    ______ ____
ROOT
ATOM      1  C   LIG A   1     -11.726   6.657 130.490  0.00  0.00    +0.142 A 
ATOM      2  C   LIG A   1     -11.992   6.812 129.117  0.00  0.00    +0.082 A 
ATOM      3  C   LIG A   1     -10.920   6.616 128.253  0.00  0.00    +0.231 A 
ATOM      4  O   LIG A   1     -11.321   6.801 126.964  0.00  0.00    -0.445 OA
ATOM      5  C   LIG A   1     -12.642   7.099 126.991  0.00  0.00    +0.198 A 
ATOM      6  C   LIG A   1     -13.106   7.108 128.285  0.00  0.00    +0.055 A 
ATOM      7  N   LIG A   1      -9.662   6.281 128.576  0.00  0.00    -0.212 NA
ATOM      8  C   LIG A   1      -9.435   6.120 129.885  0.00  0.00    +0.082 A 
ATOM      9  C   LIG A   1      -8.150   5.772 130.281  0.00  0.00    +0.078 A 
ATOM     10  C   LIG A   1      -7.793   5.590 131.627  0.00  0.00    +0.164 A 
ATOM     11  C   LIG A   1      -8.756   5.783 132.620  0.00  0.00    +0.162 A 
ATOM     12  C   LIG A   1     -10.053   6.121 132.240  0.00  0.00    +0.063 A 
ATOM     13  C   LIG A   1     -10.415   6.291 130.883  0.00  0.00    +0.046 A 
ENDROOT
BRANCH   1  15
ATOM     14  C   LIG A   1     -13.100   8.048 131.809  0.00  0.00    +0.277 C 
ATOM     15  O   LIG A   1     -12.690   6.724 131.483  0.00  0.00    -0.494 OA
ENDBRANCH   1  15
BRANCH  10  16
ATOM     16  O   LIG A   1      -6.470   5.274 131.812  0.00  0.00    -0.491 OA
ATOM     17  C   LIG A   1      -5.549   6.359 131.836  0.00  0.00    +0.277 C 
ENDBRANCH  10  16
BRANCH  11  18
ATOM     18  O   LIG A   1      -8.372   5.757 133.932  0.00  0.00    -0.491 OA
ATOM     19  C   LIG A   1      -8.364   4.479 134.555  0.00  0.00    +0.277 C 
ENDBRANCH  11  18
TORSDOF 3
ENDMDL
MODEL 2
REMARK VINA RESULT:      -6.1      1.774      6.256
REMARK  Name = NuBBE_598
REMARK  6 active torsions:
REMARK  status: ('A' for Active; 'I' for Inactive)
REMARK    1  A    between atoms: C_1  and  O_2
REMARK    2  A    between atoms: O_2  and  C_3
REMARK    3  A    between atoms: C_12  and  O_13
REMARK    4  A    between atoms: O_13  and  C_14
REMARK    5  A    between atoms: C_15  and  O_16
REMARK    6  A    between atoms: O_16  and  C_17
REMARK                            x       y       z     vdW  Elec       q    Type
REMARK                         _______ _______ _______ _____ _____    ______ ____
ROOT
ATOM      1  C   LIG A   1      -7.662   6.539 131.519  0.00  0.00    +0.142 A 
ATOM      2  C   LIG A   1      -7.555   5.800 132.712  0.00  0.00    +0.082 A 
ATOM      3  C   LIG A   1      -8.751   5.408 133.306  0.00  0.00    +0.231 A 
ATOM      4  O   LIG A   1      -8.497   4.708 134.447  0.00  0.00    -0.445 OA
ATOM      5  C   LIG A   1      -7.151   4.633 134.583  0.00  0.00    +0.198 A 
ATOM      6  C   LIG A   1      -6.526   5.276 133.540  0.00  0.00    +0.055 A 
ATOM      7  N   LIG A   1      -9.996   5.643 132.866  0.00  0.00    -0.212 NA
ATOM      8  C   LIG A   1     -10.074   6.330 131.720  0.00  0.00    +0.082 A 
ATOM      9  C   LIG A   1     -11.338   6.603 131.214  0.00  0.00    +0.078 A 
ATOM     10  C   LIG A   1     -11.542   7.328 130.028  0.00  0.00    +0.164 A 
ATOM     11  C   LIG A   1     -10.436   7.818 129.331  0.00  0.00    +0.162 A 
ATOM     12  C   LIG A   1      -9.160   7.544 129.818  0.00  0.00    +0.063 A 
ATOM     13  C   LIG A   1      -8.956   6.802 131.005  0.00  0.00    +0.046 A 
ENDROOT
BRANCH   1  15
ATOM     14  C   LIG A   1      -5.808   5.850 130.233  0.00  0.00    +0.277 C 
ATOM     15  O   LIG A   1      -6.581   6.931 130.747  0.00  0.00    -0.494 OA
ENDBRANCH   1  15
BRANCH  10  16
ATOM     16  O   LIG A   1     -12.865   7.513 129.712  0.00  0.00    -0.491 OA
ATOM     17  C   LIG A   1     -13.430   6.611 128.766  0.00  0.00    +0.277 C 
ENDBRANCH  10  16
BRANCH  11  18
ATOM     18  O   LIG A   1     -10.638   8.652 128.266  0.00  0.00    -0.491 OA
ATOM     19  C   LIG A   1     -10.741   8.025 126.994  0.00  0.00    +0.277 C 
ENDBRANCH  11  18
TORSDOF 3
ENDMDL
MODEL 3
REMARK VINA RESULT:      -5.9      9.054     10.714
REMARK  Name = NuBBE_598
REMARK  6 active torsions:
REMARK  status: ('A' for Active; 'I' for Inactive)
REMARK    1  A    between atoms: C_1  and  O_2
REMARK    2  A    between atoms: O_2  and  C_3
REMARK    3  A    between atoms: C_12  and  O_13
REMARK    4  A    between atoms: O_13  and  C_14
REMARK    5  A    between atoms: C_15  and  O_16
REMARK    6  A    between atoms: O_16  and  C_17
REMARK                            x       y       z     vdW  Elec       q    Type
REMARK                         _______ _______ _______ _____ _____    ______ ____
ROOT
ATOM      1  C   LIG A   1      -6.889  -0.843 124.543  0.00  0.00    +0.142 A 
ATOM      2  C   LIG A   1      -7.721  -1.977 124.531  0.00  0.00    +0.082 A 
ATOM      3  C   LIG A   1      -8.955  -1.833 123.905  0.00  0.00    +0.231 A 
ATOM      4  O   LIG A   1      -9.651  -3.002 123.973  0.00  0.00    -0.445 OA
ATOM      5  C   LIG A   1      -8.871  -3.899 124.622  0.00  0.00    +0.198 A 
ATOM      6  C   LIG A   1      -7.672  -3.326 124.976  0.00  0.00    +0.055 A 
ATOM      7  N   LIG A   1      -9.439  -0.739 123.298  0.00  0.00    -0.212 NA
ATOM      8  C   LIG A   1      -8.623   0.322 123.304  0.00  0.00    +0.082 A 
ATOM      9  C   LIG A   1      -9.070   1.485 122.689  0.00  0.00    +0.078 A 
ATOM     10  C   LIG A   1      -8.307   2.663 122.646  0.00  0.00    +0.164 A 
ATOM     11  C   LIG A   1      -7.054   2.686 123.261  0.00  0.00    +0.162 A 
ATOM     12  C   LIG A   1      -6.584   1.525 123.872  0.00  0.00    +0.063 A 
ATOM     13  C   LIG A   1      -7.349   0.335 123.903  0.00  0.00    +0.046 A 
ENDROOT
BRANCH   1  15
ATOM     14  C   LIG A   1      -5.515  -0.795 126.460  0.00  0.00    +0.277 C 
ATOM     15  O   LIG A   1      -5.595  -0.831 125.039  0.00  0.00    -0.494 OA
ENDBRANCH   1  15
BRANCH  10  16
ATOM     16  O   LIG A   1      -8.935   3.708 122.015  0.00  0.00    -0.491 OA
ATOM     17  C   LIG A   1      -8.826   3.761 120.597  0.00  0.00    +0.277 C 
ENDBRANCH  10  16
BRANCH  11  18
ATOM     18  O   LIG A   1      -6.380   3.872 123.353  0.00  0.00    -0.491 OA
ATOM     19  C   LIG A   1      -5.448   4.143 122.313  0.00  0.00    +0.277 C 
ENDBRANCH  11  18
TORSDOF 3
ENDMDL
MODEL 4
REMARK VINA RESULT:      -5.9      9.736     10.744
REMARK  Name = NuBBE_598
REMARK  6 active torsions:
REMARK  status: ('A' for Active; 'I' for Inactive)
REMARK    1  A    between atoms: C_1  and  O_2
REMARK    2  A    between atoms: O_2  and  C_3
REMARK    3  A    between atoms: C_12  and  O_13
REMARK    4  A    between atoms: O_13  and  C_14
REMARK    5  A    between atoms: C_15  and  O_16
REMARK    6  A    between atoms: O_16  and  C_17
REMARK                            x       y       z     vdW  Elec       q    Type
REMARK                         _______ _______ _______ _____ _____    ______ ____
ROOT
ATOM      1  C   LIG A   1      -6.480  -2.442 125.218  0.00  0.00    +0.142 A 
ATOM      2  C   LIG A   1      -7.712  -2.703 124.590  0.00  0.00    +0.082 A 
ATOM      3  C   LIG A   1      -8.800  -2.920 125.430  0.00  0.00    +0.231 A 
ATOM      4  O   LIG A   1      -9.918  -3.163 124.689  0.00  0.00    -0.445 OA
ATOM      5  C   LIG A   1      -9.562  -3.088 123.384  0.00  0.00    +0.198 A 
ATOM      6  C   LIG A   1      -8.223  -2.797 123.267  0.00  0.00    +0.055 A 
ATOM      7  N   LIG A   1      -8.814  -2.897 126.770  0.00  0.00    -0.212 NA
ATOM      8  C   LIG A   1      -7.636  -2.628 127.346  0.00  0.00    +0.082 A 
ATOM      9  C   LIG A   1      -7.588  -2.588 128.734  0.00  0.00    +0.078 A 
ATOM     10  C   LIG A   1      -6.406  -2.330 129.446  0.00  0.00    +0.164 A 
ATOM     11  C   LIG A   1      -5.217  -2.122 128.743  0.00  0.00    +0.162 A 
ATOM     12  C   LIG A   1      -5.249  -2.146 127.349  0.00  0.00    +0.063 A 
ATOM     13  C   LIG A   1      -6.444  -2.393 126.633  0.00  0.00    +0.046 A 
ENDROOT
BRANCH   1  15
ATOM     14  C   LIG A   1      -4.768  -3.179 123.772  0.00  0.00    +0.277 C 
ATOM     15  O   LIG A   1      -5.316  -2.114 124.542  0.00  0.00    -0.494 OA
ENDBRANCH   1  15
BRANCH  10  16
ATOM     16  O   LIG A   1      -6.562  -2.360 130.810  0.00  0.00    -0.491 OA
ATOM     17  C   LIG A   1      -6.405  -3.624 131.446  0.00  0.00    +0.277 C 
ENDBRANCH  10  16
BRANCH  11  18
ATOM     18  O   LIG A   1      -4.043  -2.025 129.436  0.00  0.00    -0.491 OA
ATOM     19  C   LIG A   1      -3.230  -3.191 129.453  0.00  0.00    +0.277 C 
ENDBRANCH  11  18
TORSDOF 3
ENDMDL
MODEL 5
REMARK VINA RESULT:      -5.8      7.667      9.738
REMARK  Name = NuBBE_598
REMARK  6 active torsions:
REMARK  status: ('A' for Active; 'I' for Inactive)
REMARK    1  A    between atoms: C_1  and  O_2
REMARK    2  A    between atoms: O_2  and  C_3
REMARK    3  A    between atoms: C_12  and  O_13
REMARK    4  A    between atoms: O_13  and  C_14
REMARK    5  A    between atoms: C_15  and  O_16
REMARK    6  A    between atoms: O_16  and  C_17
REMARK                            x       y       z     vdW  Elec       q    Type
REMARK                         _______ _______ _______ _____ _____    ______ ____
ROOT
ATOM      1  C   LIG A   1      -8.953  -1.218 124.855  0.00  0.00    +0.142 A 
ATOM      2  C   LIG A   1      -8.662  -1.922 126.038  0.00  0.00    +0.082 A 
ATOM      3  C   LIG A   1      -8.227  -1.161 127.119  0.00  0.00    +0.231 A 
ATOM      4  O   LIG A   1      -7.981  -1.970 128.187  0.00  0.00    -0.445 OA
ATOM      5  C   LIG A   1      -8.267  -3.239 127.808  0.00  0.00    +0.198 A 
ATOM      6  C   LIG A   1      -8.700  -3.265 126.503  0.00  0.00    +0.055 A 
ATOM      7  N   LIG A   1      -8.067   0.169 127.169  0.00  0.00    -0.212 NA
ATOM      8  C   LIG A   1      -8.368   0.820 126.039  0.00  0.00    +0.082 A 
ATOM      9  C   LIG A   1      -8.222   2.202 126.030  0.00  0.00    +0.078 A 
ATOM     10  C   LIG A   1      -8.495   2.987 124.898  0.00  0.00    +0.164 A 
ATOM     11  C   LIG A   1      -8.911   2.364 123.720  0.00  0.00    +0.162 A 
ATOM     12  C   LIG A   1      -9.074   0.980 123.715  0.00  0.00    +0.063 A 
ATOM     13  C   LIG A   1      -8.813   0.191 124.859  0.00  0.00    +0.046 A 
ENDROOT
BRANCH   1  15
ATOM     14  C   LIG A   1      -8.532  -2.510 122.926  0.00  0.00    +0.277 C 
ATOM     15  O   LIG A   1      -9.483  -1.799 123.713  0.00  0.00    -0.494 OA
ENDBRANCH   1  15
BRANCH  10  16
ATOM     16  O   LIG A   1      -8.264   4.327 125.085  0.00  0.00    -0.491 OA
ATOM     17  C   LIG A   1      -6.912   4.723 125.289  0.00  0.00    +0.277 C 
ENDBRANCH  10  16
BRANCH  11  18
ATOM     18  O   LIG A   1      -9.027   3.109 122.579  0.00  0.00    -0.491 OA
ATOM     19  C   LIG A   1      -7.838   3.273 121.817  0.00  0.00    +0.277 C 
ENDBRANCH  11  18
TORSDOF 3
ENDMDL
MODEL 6
REMARK VINA RESULT:      -5.8      2.072      3.812
REMARK  Name = NuBBE_598
REMARK  6 active torsions:
REMARK  status: ('A' for Active; 'I' for Inactive)
REMARK    1  A    between atoms: C_1  and  O_2
REMARK    2  A    between atoms: O_2  and  C_3
REMARK    3  A    between atoms: C_12  and  O_13
REMARK    4  A    between atoms: O_13  and  C_14
REMARK    5  A    between atoms: C_15  and  O_16
REMARK    6  A    between atoms: O_16  and  C_17
REMARK                            x       y       z     vdW  Elec       q    Type
REMARK                         _______ _______ _______ _____ _____    ______ ____
ROOT
ATOM      1  C   LIG A   1      -8.809   5.787 132.777  0.00  0.00    +0.142 A 
ATOM      2  C   LIG A   1      -9.866   6.212 131.953  0.00  0.00    +0.082 A 
ATOM      3  C   LIG A   1      -9.512   6.925 130.811  0.00  0.00    +0.231 A 
ATOM      4  O   LIG A   1     -10.631   7.273 130.115  0.00  0.00    -0.445 OA
ATOM      5  C   LIG A   1     -11.697   6.780 130.790  0.00  0.00    +0.198 A 
ATOM      6  C   LIG A   1     -11.284   6.110 131.918  0.00  0.00    +0.055 A 
ATOM      7  N   LIG A   1      -8.277   7.241 130.397  0.00  0.00    -0.212 NA
ATOM      8  C   LIG A   1      -7.285   6.809 131.186  0.00  0.00    +0.082 A 
ATOM      9  C   LIG A   1      -5.982   7.106 130.808  0.00  0.00    +0.078 A 
ATOM     10  C   LIG A   1      -4.864   6.718 131.564  0.00  0.00    +0.164 A 
ATOM     11  C   LIG A   1      -5.058   6.021 132.758  0.00  0.00    +0.162 A 
ATOM     12  C   LIG A   1      -6.358   5.704 133.147  0.00  0.00    +0.063 A 
ATOM     13  C   LIG A   1      -7.483   6.084 132.377  0.00  0.00    +0.046 A 
ENDROOT
BRANCH   1  15
ATOM     14  C   LIG A   1      -9.197   3.615 133.614  0.00  0.00    +0.277 C 
ATOM     15  O   LIG A   1      -8.968   4.991 133.901  0.00  0.00    -0.494 OA
ENDBRANCH   1  15
BRANCH  10  16
ATOM     16  O   LIG A   1      -3.666   7.130 131.035  0.00  0.00    -0.491 OA
ATOM     17  C   LIG A   1      -3.726   8.066 129.964  0.00  0.00    +0.277 C 
ENDBRANCH  10  16
BRANCH  11  18
ATOM     18  O   LIG A   1      -3.984   5.779 133.568  0.00  0.00    -0.491 OA
ATOM     19  C   LIG A   1      -3.409   4.481 133.472  0.00  0.00    +0.277 C 
ENDBRANCH  11  18
TORSDOF 3
ENDMDL
MODEL 7
REMARK VINA RESULT:      -5.7      2.336      3.913
REMARK  Name = NuBBE_598
REMARK  6 active torsions:
REMARK  status: ('A' for Active; 'I' for Inactive)
REMARK    1  A    between atoms: C_1  and  O_2
REMARK    2  A    between atoms: O_2  and  C_3
REMARK    3  A    between atoms: C_12  and  O_13
REMARK    4  A    between atoms: O_13  and  C_14
REMARK    5  A    between atoms: C_15  and  O_16
REMARK    6  A    between atoms: O_16  and  C_17
REMARK                            x       y       z     vdW  Elec       q    Type
REMARK                         _______ _______ _______ _____ _____    ______ ____
ROOT
ATOM      1  C   LIG A   1     -10.567   7.070 128.950  0.00  0.00    +0.142 A 
ATOM      2  C   LIG A   1     -11.586   7.791 129.599  0.00  0.00    +0.082 A 
ATOM      3  C   LIG A   1     -11.992   7.307 130.839  0.00  0.00    +0.231 A 
ATOM      4  O   LIG A   1     -12.981   8.096 131.346  0.00  0.00    -0.445 OA
ATOM      5  C   LIG A   1     -13.203   9.090 130.452  0.00  0.00    +0.198 A 
ATOM      6  C   LIG A   1     -12.366   8.957 129.368  0.00  0.00    +0.055 A 
ATOM      7  N   LIG A   1     -11.515   6.239 131.495  0.00  0.00    -0.212 NA
ATOM      8  C   LIG A   1     -10.532   5.580 130.868  0.00  0.00    +0.082 A 
ATOM      9  C   LIG A   1      -9.996   4.465 131.499  0.00  0.00    +0.078 A 
ATOM     10  C   LIG A   1      -8.974   3.688 130.931  0.00  0.00    +0.164 A 
ATOM     11  C   LIG A   1      -8.480   4.029 129.670  0.00  0.00    +0.162 A 
ATOM     12  C   LIG A   1      -8.998   5.152 129.027  0.00  0.00    +0.063 A 
ATOM     13  C   LIG A   1     -10.019   5.941 129.607  0.00  0.00    +0.046 A 
ENDROOT
BRANCH   1  15
ATOM     14  C   LIG A   1     -10.815   7.301 126.616  0.00  0.00    +0.277 C 
ATOM     15  O   LIG A   1      -9.978   7.458 127.757  0.00  0.00    -0.494 OA
ENDBRANCH   1  15
BRANCH  10  16
ATOM     16  O   LIG A   1      -8.600   2.615 131.700  0.00  0.00    -0.491 OA
ATOM     17  C   LIG A   1      -9.591   1.622 131.940  0.00  0.00    +0.277 C 
ENDBRANCH  10  16
BRANCH  11  18
ATOM     18  O   LIG A   1      -7.597   3.188 129.052  0.00  0.00    -0.491 OA
ATOM     19  C   LIG A   1      -6.632   3.805 128.209  0.00  0.00    +0.277 C 
ENDBRANCH  11  18
TORSDOF 3
ENDMDL
MODEL 8
REMARK VINA RESULT:      -5.6      8.203     10.016
REMARK  Name = NuBBE_598
REMARK  6 active torsions:
REMARK  status: ('A' for Active; 'I' for Inactive)
REMARK    1  A    between atoms: C_1  and  O_2
REMARK    2  A    between atoms: O_2  and  C_3
REMARK    3  A    between atoms: C_12  and  O_13
REMARK    4  A    between atoms: O_13  and  C_14
REMARK    5  A    between atoms: C_15  and  O_16
REMARK    6  A    between atoms: O_16  and  C_17
REMARK                            x       y       z     vdW  Elec       q    Type
REMARK                         _______ _______ _______ _____ _____    ______ ____
ROOT
ATOM      1  C   LIG A   1      -8.724  -1.585 125.182  0.00  0.00    +0.142 A 
ATOM      2  C   LIG A   1      -8.588  -2.325 126.371  0.00  0.00    +0.082 A 
ATOM      3  C   LIG A   1      -7.712  -1.810 127.322  0.00  0.00    +0.231 A 
ATOM      4  O   LIG A   1      -7.677  -2.626 128.413  0.00  0.00    -0.445 OA
ATOM      5  C   LIG A   1      -8.534  -3.650 128.178  0.00  0.00    +0.198 A 
ATOM      6  C   LIG A   1      -9.127  -3.508 126.946  0.00  0.00    +0.055 A 
ATOM      7  N   LIG A   1      -6.990  -0.683 127.242  0.00  0.00    -0.212 NA
ATOM      8  C   LIG A   1      -7.150   0.015 126.110  0.00  0.00    +0.082 A 
ATOM      9  C   LIG A   1      -6.429   1.194 125.970  0.00  0.00    +0.078 A 
ATOM     10  C   LIG A   1      -6.506   1.999 124.822  0.00  0.00    +0.164 A 
ATOM     11  C   LIG A   1      -7.322   1.599 123.762  0.00  0.00    +0.162 A 
ATOM     12  C   LIG A   1      -8.061   0.425 123.891  0.00  0.00    +0.063 A 
ATOM     13  C   LIG A   1      -7.994  -0.379 125.053  0.00  0.00    +0.046 A 
ENDROOT
BRANCH   1  15
ATOM     14  C   LIG A   1      -9.267  -3.057 123.420  0.00  0.00    +0.277 C 
ATOM     15  O   LIG A   1      -9.617  -1.898 124.169  0.00  0.00    -0.494 OA
ENDBRANCH   1  15
BRANCH  10  16
ATOM     16  O   LIG A   1      -5.698   3.108 124.868  0.00  0.00    -0.491 OA
ATOM     17  C   LIG A   1      -6.300   4.324 125.298  0.00  0.00    +0.277 C 
ENDBRANCH  10  16
BRANCH  11  18
ATOM     18  O   LIG A   1      -7.278   2.299 122.589  0.00  0.00    -0.491 OA
ATOM     19  C   LIG A   1      -8.443   3.047 122.264  0.00  0.00    +0.277 C 
ENDBRANCH  11  18
TORSDOF 3
ENDMDL
MODEL 9
REMARK VINA RESULT:      -5.5      8.266      9.639
REMARK  Name = NuBBE_598
REMARK  6 active torsions:
REMARK  status: ('A' for Active; 'I' for Inactive)
REMARK    1  A    between atoms: C_1  and  O_2
REMARK    2  A    between atoms: O_2  and  C_3
REMARK    3  A    between atoms: C_12  and  O_13
REMARK    4  A    between atoms: O_13  and  C_14
REMARK    5  A    between atoms: C_15  and  O_16
REMARK    6  A    between atoms: O_16  and  C_17
REMARK                            x       y       z     vdW  Elec       q    Type
REMARK                         _______ _______ _______ _____ _____    ______ ____
ROOT
ATOM      1  C   LIG A   1      -7.015  -1.476 125.595  0.00  0.00    +0.142 A 
ATOM      2  C   LIG A   1      -7.974  -2.072 124.756  0.00  0.00    +0.082 A 
ATOM      3  C   LIG A   1      -8.565  -1.244 123.806  0.00  0.00    +0.231 A 
ATOM      4  O   LIG A   1      -9.471  -1.950 123.073  0.00  0.00    -0.445 OA
ATOM      5  C   LIG A   1      -9.456  -3.225 123.531  0.00  0.00    +0.198 A 
ATOM      6  C   LIG A   1      -8.548  -3.357 124.555  0.00  0.00    +0.055 A 
ATOM      7  N   LIG A   1      -8.315   0.055 123.588  0.00  0.00    -0.212 NA
ATOM      8  C   LIG A   1      -7.385   0.596 124.384  0.00  0.00    +0.082 A 
ATOM      9  C   LIG A   1      -7.083   1.940 124.205  0.00  0.00    +0.078 A 
ATOM     10  C   LIG A   1      -6.135   2.618 124.990  0.00  0.00    +0.164 A 
ATOM     11  C   LIG A   1      -5.478   1.927 126.011  0.00  0.00    +0.162 A 
ATOM     12  C   LIG A   1      -5.760   0.575 126.197  0.00  0.00    +0.063 A 
ATOM     13  C   LIG A   1      -6.705  -0.109 125.396  0.00  0.00    +0.046 A 
ENDROOT
BRANCH   1  15
ATOM     14  C   LIG A   1      -6.939  -2.405 127.762  0.00  0.00    +0.277 C 
ATOM     15  O   LIG A   1      -6.263  -2.168 126.532  0.00  0.00    -0.494 OA
ENDBRANCH   1  15
BRANCH  10  16
ATOM     16  O   LIG A   1      -6.000   3.946 124.673  0.00  0.00    -0.491 OA
ATOM     17  C   LIG A   1      -5.625   4.251 123.334  0.00  0.00    +0.277 C 
ENDBRANCH  10  16
BRANCH  11  18
ATOM     18  O   LIG A   1      -4.673   2.622 126.871  0.00  0.00    -0.491 OA
ATOM     19  C   LIG A   1      -3.302   2.716 126.505  0.00  0.00    +0.277 C 
ENDBRANCH  11  18
TORSDOF 3
ENDMDL
