MODEL 1
REMARK VINA RESULT:      -9.4      0.000      0.000
REMARK  Name = NuBBE_1731
REMARK  7 active torsions:
REMARK  status: ('A' for Active; 'I' for Inactive)
REMARK    1  A    between atoms: C_1  and  C_2
REMARK    2  A    between atoms: C_5  and  C_6
REMARK    3  A    between atoms: C_11  and  C_12
REMARK    4  A    between atoms: C_11  and  C_13
REMARK    5  A    between atoms: C_22  and  C_23
REMARK    6  A    between atoms: C_26  and  C_28
REMARK    7  A    between atoms: C_28  and  C_29
REMARK                            x       y       z     vdW  Elec       q    Type
REMARK                         _______ _______ _______ _____ _____    ______ ____
ROOT
ATOM      1  C   LIG A   1      -4.973  -2.833 128.781  0.00  0.00    +0.012 C 
ATOM      2  C   LIG A   1      -5.824  -1.618 129.266  0.00  0.00    -0.023 C 
ATOM      3  C   LIG A   1      -6.992  -2.055 130.213  0.00  0.00    +0.002 C 
ATOM      4  C   LIG A   1      -6.577  -2.668 131.618  0.00  0.00    -0.025 C 
ATOM      5  C   LIG A   1      -5.959  -4.074 131.450  0.00  0.00    +0.012 C 
ATOM      6  C   LIG A   1      -5.625  -1.627 132.321  0.00  0.00    +0.008 C 
ATOM      7  C   LIG A   1      -4.422  -1.259 131.429  0.00  0.00    +0.005 C 
ATOM      8  C   LIG A   1      -4.864  -0.695 130.069  0.00  0.00    +0.008 C 
ATOM      9  C   LIG A   1      -5.252  -1.937 133.814  0.00  0.00    +0.027 C 
ATOM     10  C   LIG A   1      -4.284  -3.111 134.017  0.00  0.00    +0.019 C 
ATOM     11  C   LIG A   1      -4.594  -0.688 134.456  0.00  0.00    +0.019 C 
ATOM     12  C   LIG A   1      -6.543  -2.236 134.597  0.00  0.00    +0.139 C 
ATOM     13  O   LIG A   1      -6.707  -1.861 135.761  0.00  0.00    -0.297 OA
ATOM     14  C   LIG A   1      -7.564  -3.151 133.962  0.00  0.00    +0.075 C 
ATOM     15  C   LIG A   1      -7.848  -2.785 132.511  0.00  0.00    +0.015 C 
ATOM     16  C   LIG A   1      -8.126  -2.811 129.477  0.00  0.00    +0.005 C 
ATOM     17  C   LIG A   1      -8.001  -2.959 127.960  0.00  0.00    +0.005 C 
ATOM     18  C   LIG A   1      -7.449  -1.752 127.194  0.00  0.00    +0.002 C 
ATOM     19  C   LIG A   1      -6.478  -0.840 128.024  0.00  0.00    -0.023 C 
ATOM     20  C   LIG A   1      -7.304   0.414 128.445  0.00  0.00    +0.012 C 
ATOM     21  C   LIG A   1      -5.426  -0.336 126.999  0.00  0.00    +0.008 C 
ATOM     22  C   LIG A   1      -5.931  -0.773 125.633  0.00  0.00    +0.008 C 
ATOM     23  C   LIG A   1      -6.679  -2.094 125.882  0.00  0.00    +0.036 C 
ENDROOT
BRANCH  23  24
ATOM     24  C   LIG A   1      -7.528  -2.553 124.659  0.00  0.00    +0.114 C 
ATOM     25  C   LIG A   1      -7.952  -4.028 124.757  0.00  0.00    +0.056 C 
ATOM     26  O   LIG A   1      -8.722  -1.757 124.560  0.00  0.00    -0.458 OA
ATOM     27  C   LIG A   1      -9.030  -1.523 123.251  0.00  0.00    +0.308 C 
ATOM     28  O   LIG A   1     -10.045  -0.961 122.875  0.00  0.00    -0.251 OA
ATOM     29  C   LIG A   1      -7.970  -2.089 122.356  0.00  0.00    +0.124 C 
ATOM     30  C   LIG A   1      -6.826  -2.316 123.319  0.00  0.00    +0.059 C 
ENDBRANCH  23  24
TORSDOF 1
ENDMDL
MODEL 2
REMARK VINA RESULT:      -9.3      6.006      7.926
REMARK  Name = NuBBE_1731
REMARK  7 active torsions:
REMARK  status: ('A' for Active; 'I' for Inactive)
REMARK    1  A    between atoms: C_1  and  C_2
REMARK    2  A    between atoms: C_5  and  C_6
REMARK    3  A    between atoms: C_11  and  C_12
REMARK    4  A    between atoms: C_11  and  C_13
REMARK    5  A    between atoms: C_22  and  C_23
REMARK    6  A    between atoms: C_26  and  C_28
REMARK    7  A    between atoms: C_28  and  C_29
REMARK                            x       y       z     vdW  Elec       q    Type
REMARK                         _______ _______ _______ _____ _____    ______ ____
ROOT
ATOM      1  C   LIG A   1      -8.070   3.881 128.966  0.00  0.00    +0.012 C 
ATOM      2  C   LIG A   1      -7.857   3.742 130.504  0.00  0.00    -0.023 C 
ATOM      3  C   LIG A   1      -8.485   2.424 131.071  0.00  0.00    +0.002 C 
ATOM      4  C   LIG A   1      -7.833   1.059 130.587  0.00  0.00    -0.025 C 
ATOM      5  C   LIG A   1      -8.165   0.781 129.104  0.00  0.00    +0.012 C 
ATOM      6  C   LIG A   1      -6.290   1.140 130.897  0.00  0.00    +0.008 C 
ATOM      7  C   LIG A   1      -5.645   2.391 130.266  0.00  0.00    +0.005 C 
ATOM      8  C   LIG A   1      -6.320   3.689 130.738  0.00  0.00    +0.008 C 
ATOM      9  C   LIG A   1      -5.476  -0.184 130.685  0.00  0.00    +0.027 C 
ATOM     10  C   LIG A   1      -5.262  -0.594 129.220  0.00  0.00    +0.019 C 
ATOM     11  C   LIG A   1      -4.073  -0.042 131.327  0.00  0.00    +0.019 C 
ATOM     12  C   LIG A   1      -6.202  -1.335 131.405  0.00  0.00    +0.139 C 
ATOM     13  O   LIG A   1      -5.591  -2.231 131.992  0.00  0.00    -0.297 OA
ATOM     14  C   LIG A   1      -7.701  -1.441 131.245  0.00  0.00    +0.075 C 
ATOM     15  C   LIG A   1      -8.402  -0.105 131.452  0.00  0.00    +0.015 C 
ATOM     16  C   LIG A   1     -10.034   2.442 131.086  0.00  0.00    +0.005 C 
ATOM     17  C   LIG A   1     -10.725   3.730 130.634  0.00  0.00    +0.005 C 
ATOM     18  C   LIG A   1     -10.076   5.048 131.071  0.00  0.00    +0.002 C 
ATOM     19  C   LIG A   1      -8.524   4.970 131.293  0.00  0.00    -0.023 C 
ATOM     20  C   LIG A   1      -8.303   4.909 132.836  0.00  0.00    +0.012 C 
ATOM     21  C   LIG A   1      -7.983   6.352 130.837  0.00  0.00    +0.008 C 
ATOM     22  C   LIG A   1      -9.208   7.219 130.589  0.00  0.00    +0.008 C 
ATOM     23  C   LIG A   1     -10.298   6.249 130.102  0.00  0.00    +0.036 C 
ENDROOT
BRANCH  23  24
ATOM     24  C   LIG A   1     -11.718   6.890 130.078  0.00  0.00    +0.114 C 
ATOM     25  C   LIG A   1     -12.415   6.826 131.447  0.00  0.00    +0.056 C 
ATOM     26  O   LIG A   1     -11.628   8.273 129.693  0.00  0.00    -0.458 OA
ATOM     27  C   LIG A   1     -12.695   8.620 128.916  0.00  0.00    +0.308 C 
ATOM     28  O   LIG A   1     -12.925   9.755 128.533  0.00  0.00    -0.251 OA
ATOM     29  C   LIG A   1     -13.551   7.422 128.640  0.00  0.00    +0.124 C 
ATOM     30  C   LIG A   1     -12.634   6.279 129.013  0.00  0.00    +0.059 C 
ENDBRANCH  23  24
TORSDOF 1
ENDMDL
MODEL 3
REMARK VINA RESULT:      -9.2      2.906      4.525
REMARK  Name = NuBBE_1731
REMARK  7 active torsions:
REMARK  status: ('A' for Active; 'I' for Inactive)
REMARK    1  A    between atoms: C_1  and  C_2
REMARK    2  A    between atoms: C_5  and  C_6
REMARK    3  A    between atoms: C_11  and  C_12
REMARK    4  A    between atoms: C_11  and  C_13
REMARK    5  A    between atoms: C_22  and  C_23
REMARK    6  A    between atoms: C_26  and  C_28
REMARK    7  A    between atoms: C_28  and  C_29
REMARK                            x       y       z     vdW  Elec       q    Type
REMARK                         _______ _______ _______ _____ _____    ______ ____
ROOT
ATOM      1  C   LIG A   1      -8.207  -0.373 127.777  0.00  0.00    +0.012 C 
ATOM      2  C   LIG A   1      -7.017  -1.178 127.170  0.00  0.00    -0.023 C 
ATOM      3  C   LIG A   1      -5.653  -0.823 127.853  0.00  0.00    +0.002 C 
ATOM      4  C   LIG A   1      -5.497  -1.227 129.381  0.00  0.00    -0.025 C 
ATOM      5  C   LIG A   1      -6.377  -0.335 130.285  0.00  0.00    +0.012 C 
ATOM      6  C   LIG A   1      -5.813  -2.767 129.494  0.00  0.00    +0.008 C 
ATOM      7  C   LIG A   1      -7.195  -3.111 128.903  0.00  0.00    +0.005 C 
ATOM      8  C   LIG A   1      -7.317  -2.681 127.432  0.00  0.00    +0.008 C 
ATOM      9  C   LIG A   1      -5.523  -3.427 130.888  0.00  0.00    +0.027 C 
ATOM     10  C   LIG A   1      -6.497  -3.043 132.010  0.00  0.00    +0.019 C 
ATOM     11  C   LIG A   1      -5.571  -4.970 130.753  0.00  0.00    +0.019 C 
ATOM     12  C   LIG A   1      -4.100  -3.044 131.333  0.00  0.00    +0.139 C 
ATOM     13  O   LIG A   1      -3.361  -3.835 131.923  0.00  0.00    -0.297 OA
ATOM     14  C   LIG A   1      -3.670  -1.604 131.175  0.00  0.00    +0.075 C 
ATOM     15  C   LIG A   1      -4.007  -1.045 129.799  0.00  0.00    +0.015 C 
ATOM     16  C   LIG A   1      -5.139   0.593 127.493  0.00  0.00    +0.005 C 
ATOM     17  C   LIG A   1      -5.961   1.404 126.490  0.00  0.00    +0.005 C 
ATOM     18  C   LIG A   1      -6.560   0.633 125.309  0.00  0.00    +0.002 C 
ATOM     19  C   LIG A   1      -6.860  -0.881 125.600  0.00  0.00    -0.023 C 
ATOM     20  C   LIG A   1      -5.712  -1.695 124.928  0.00  0.00    +0.012 C 
ATOM     21  C   LIG A   1      -8.144  -1.199 124.789  0.00  0.00    +0.008 C 
ATOM     22  C   LIG A   1      -8.403   0.022 123.919  0.00  0.00    +0.008 C 
ATOM     23  C   LIG A   1      -7.888   1.218 124.739  0.00  0.00    +0.036 C 
ENDROOT
BRANCH  23  24
ATOM     24  C   LIG A   1      -7.786   2.530 123.904  0.00  0.00    +0.114 C 
ATOM     25  C   LIG A   1      -7.972   3.790 124.764  0.00  0.00    +0.056 C 
ATOM     26  O   LIG A   1      -6.498   2.612 123.271  0.00  0.00    -0.458 OA
ATOM     27  C   LIG A   1      -6.613   3.170 122.031  0.00  0.00    +0.308 C 
ATOM     28  O   LIG A   1      -5.666   3.452 121.315  0.00  0.00    -0.251 OA
ATOM     29  C   LIG A   1      -8.053   3.419 121.702  0.00  0.00    +0.124 C 
ATOM     30  C   LIG A   1      -8.767   2.569 122.729  0.00  0.00    +0.059 C 
ENDBRANCH  23  24
TORSDOF 1
ENDMDL
MODEL 4
REMARK VINA RESULT:      -9.0      4.564      6.864
REMARK  Name = NuBBE_1731
REMARK  7 active torsions:
REMARK  status: ('A' for Active; 'I' for Inactive)
REMARK    1  A    between atoms: C_1  and  C_2
REMARK    2  A    between atoms: C_5  and  C_6
REMARK    3  A    between atoms: C_11  and  C_12
REMARK    4  A    between atoms: C_11  and  C_13
REMARK    5  A    between atoms: C_22  and  C_23
REMARK    6  A    between atoms: C_26  and  C_28
REMARK    7  A    between atoms: C_28  and  C_29
REMARK                            x       y       z     vdW  Elec       q    Type
REMARK                         _______ _______ _______ _____ _____    ______ ____
ROOT
ATOM      1  C   LIG A   1      -5.969   2.130 129.386  0.00  0.00    +0.012 C 
ATOM      2  C   LIG A   1      -6.167   1.511 130.804  0.00  0.00    -0.023 C 
ATOM      3  C   LIG A   1      -7.213   0.345 130.799  0.00  0.00    +0.002 C 
ATOM      4  C   LIG A   1      -6.815  -0.963 129.990  0.00  0.00    -0.025 C 
ATOM      5  C   LIG A   1      -6.843  -0.704 128.467  0.00  0.00    +0.012 C 
ATOM      6  C   LIG A   1      -5.417  -1.445 130.535  0.00  0.00    +0.008 C 
ATOM      7  C   LIG A   1      -4.358  -0.327 130.460  0.00  0.00    +0.005 C 
ATOM      8  C   LIG A   1      -4.790   0.930 131.232  0.00  0.00    +0.008 C 
ATOM      9  C   LIG A   1      -4.923  -2.841 130.016  0.00  0.00    +0.027 C 
ATOM     10  C   LIG A   1      -4.474  -2.873 128.548  0.00  0.00    +0.019 C 
ATOM     11  C   LIG A   1      -3.720  -3.318 130.870  0.00  0.00    +0.019 C 
ATOM     12  C   LIG A   1      -6.056  -3.868 130.195  0.00  0.00    +0.139 C 
ATOM     13  O   LIG A   1      -5.837  -5.034 130.534  0.00  0.00    -0.297 OA
ATOM     14  C   LIG A   1      -7.453  -3.463 129.788  0.00  0.00    +0.075 C 
ATOM     15  C   LIG A   1      -7.838  -2.090 130.323  0.00  0.00    +0.015 C 
ATOM     16  C   LIG A   1      -8.668   0.830 130.589  0.00  0.00    +0.005 C 
ATOM     17  C   LIG A   1      -8.899   2.339 130.495  0.00  0.00    +0.005 C 
ATOM     18  C   LIG A   1      -8.073   3.221 131.437  0.00  0.00    +0.002 C 
ATOM     19  C   LIG A   1      -6.684   2.615 131.849  0.00  0.00    -0.023 C 
ATOM     20  C   LIG A   1      -6.856   2.064 133.297  0.00  0.00    +0.012 C 
ATOM     21  C   LIG A   1      -5.732   3.836 131.965  0.00  0.00    +0.008 C 
ATOM     22  C   LIG A   1      -6.615   5.068 131.841  0.00  0.00    +0.008 C 
ATOM     23  C   LIG A   1      -7.760   4.651 130.902  0.00  0.00    +0.036 C 
ENDROOT
BRANCH  23  24
ATOM     24  C   LIG A   1      -8.935   5.675 130.883  0.00  0.00    +0.114 C 
ATOM     25  C   LIG A   1      -8.449   7.125 130.718  0.00  0.00    +0.056 C 
ATOM     26  O   LIG A   1      -9.827   5.382 129.794  0.00  0.00    -0.458 OA
ATOM     27  C   LIG A   1     -11.119   5.621 130.162  0.00  0.00    +0.308 C 
ATOM     28  O   LIG A   1     -12.072   5.553 129.403  0.00  0.00    -0.251 OA
ATOM     29  C   LIG A   1     -11.188   6.014 131.605  0.00  0.00    +0.124 C 
ATOM     30  C   LIG A   1      -9.833   5.580 132.120  0.00  0.00    +0.059 C 
ENDBRANCH  23  24
TORSDOF 1
ENDMDL
MODEL 5
REMARK VINA RESULT:      -9.0      4.263      8.337
REMARK  Name = NuBBE_1731
REMARK  7 active torsions:
REMARK  status: ('A' for Active; 'I' for Inactive)
REMARK    1  A    between atoms: C_1  and  C_2
REMARK    2  A    between atoms: C_5  and  C_6
REMARK    3  A    between atoms: C_11  and  C_12
REMARK    4  A    between atoms: C_11  and  C_13
REMARK    5  A    between atoms: C_22  and  C_23
REMARK    6  A    between atoms: C_26  and  C_28
REMARK    7  A    between atoms: C_28  and  C_29
REMARK                            x       y       z     vdW  Elec       q    Type
REMARK                         _______ _______ _______ _____ _____    ______ ____
ROOT
ATOM      1  C   LIG A   1      -5.134   0.126 127.954  0.00  0.00    +0.012 C 
ATOM      2  C   LIG A   1      -6.541   0.762 127.728  0.00  0.00    -0.023 C 
ATOM      3  C   LIG A   1      -6.861   0.965 126.208  0.00  0.00    +0.002 C 
ATOM      4  C   LIG A   1      -7.019  -0.350 125.333  0.00  0.00    -0.025 C 
ATOM      5  C   LIG A   1      -5.656  -1.049 125.128  0.00  0.00    +0.012 C 
ATOM      6  C   LIG A   1      -8.105  -1.253 126.034  0.00  0.00    +0.008 C 
ATOM      7  C   LIG A   1      -7.750  -1.532 127.509  0.00  0.00    +0.005 C 
ATOM      8  C   LIG A   1      -7.579  -0.235 128.316  0.00  0.00    +0.008 C 
ATOM      9  C   LIG A   1      -8.569  -2.518 125.230  0.00  0.00    +0.027 C 
ATOM     10  C   LIG A   1      -7.539  -3.653 125.141  0.00  0.00    +0.019 C 
ATOM     11  C   LIG A   1      -9.844  -3.111 125.884  0.00  0.00    +0.019 C 
ATOM     12  C   LIG A   1      -8.938  -2.090 123.798  0.00  0.00    +0.139 C 
ATOM     13  O   LIG A   1      -9.889  -2.586 123.189  0.00  0.00    -0.297 OA
ATOM     14  C   LIG A   1      -8.004  -1.147 123.076  0.00  0.00    +0.075 C 
ATOM     15  C   LIG A   1      -7.595   0.039 123.939  0.00  0.00    +0.015 C 
ATOM     16  C   LIG A   1      -6.026   2.092 125.553  0.00  0.00    +0.005 C 
ATOM     17  C   LIG A   1      -5.085   2.887 126.460  0.00  0.00    +0.005 C 
ATOM     18  C   LIG A   1      -5.603   3.223 127.863  0.00  0.00    +0.002 C 
ATOM     19  C   LIG A   1      -6.645   2.198 128.437  0.00  0.00    -0.023 C 
ATOM     20  C   LIG A   1      -8.047   2.863 128.284  0.00  0.00    +0.012 C 
ATOM     21  C   LIG A   1      -6.359   2.146 129.962  0.00  0.00    +0.008 C 
ATOM     22  C   LIG A   1      -5.358   3.258 130.238  0.00  0.00    +0.008 C 
ATOM     23  C   LIG A   1      -4.505   3.359 128.961  0.00  0.00    +0.036 C 
ENDROOT
BRANCH  23  24
ATOM     24  C   LIG A   1      -3.616   4.638 128.922  0.00  0.00    +0.114 C 
ATOM     25  C   LIG A   1      -2.571   4.594 127.795  0.00  0.00    +0.056 C 
ATOM     26  O   LIG A   1      -4.436   5.802 128.720  0.00  0.00    -0.458 OA
ATOM     27  C   LIG A   1      -3.948   6.857 129.435  0.00  0.00    +0.308 C 
ATOM     28  O   LIG A   1      -4.388   7.993 129.369  0.00  0.00    -0.251 OA
ATOM     29  C   LIG A   1      -2.781   6.427 130.270  0.00  0.00    +0.124 C 
ATOM     30  C   LIG A   1      -2.914   4.920 130.254  0.00  0.00    +0.059 C 
ENDBRANCH  23  24
TORSDOF 1
ENDMDL
MODEL 6
REMARK VINA RESULT:      -8.9      5.004      7.322
REMARK  Name = NuBBE_1731
REMARK  7 active torsions:
REMARK  status: ('A' for Active; 'I' for Inactive)
REMARK    1  A    between atoms: C_1  and  C_2
REMARK    2  A    between atoms: C_5  and  C_6
REMARK    3  A    between atoms: C_11  and  C_12
REMARK    4  A    between atoms: C_11  and  C_13
REMARK    5  A    between atoms: C_22  and  C_23
REMARK    6  A    between atoms: C_26  and  C_28
REMARK    7  A    between atoms: C_28  and  C_29
REMARK                            x       y       z     vdW  Elec       q    Type
REMARK                         _______ _______ _______ _____ _____    ______ ____
ROOT
ATOM      1  C   LIG A   1      -6.404   2.916 131.613  0.00  0.00    +0.012 C 
ATOM      2  C   LIG A   1      -7.495   1.804 131.681  0.00  0.00    -0.023 C 
ATOM      3  C   LIG A   1      -7.609   1.005 130.338  0.00  0.00    +0.002 C 
ATOM      4  C   LIG A   1      -6.355   0.123 129.927  0.00  0.00    -0.025 C 
ATOM      5  C   LIG A   1      -5.167   1.012 129.495  0.00  0.00    +0.012 C 
ATOM      6  C   LIG A   1      -6.035  -0.832 131.139  0.00  0.00    +0.008 C 
ATOM      7  C   LIG A   1      -5.833  -0.044 132.450  0.00  0.00    +0.005 C 
ATOM      8  C   LIG A   1      -7.057   0.817 132.799  0.00  0.00    +0.008 C 
ATOM      9  C   LIG A   1      -4.954  -1.938 130.876  0.00  0.00    +0.027 C 
ATOM     10  C   LIG A   1      -3.509  -1.429 130.768  0.00  0.00    +0.019 C 
ATOM     11  C   LIG A   1      -4.983  -2.979 132.024  0.00  0.00    +0.019 C 
ATOM     12  C   LIG A   1      -5.303  -2.675 129.571  0.00  0.00    +0.139 C 
ATOM     13  O   LIG A   1      -5.136  -3.890 129.438  0.00  0.00    -0.297 OA
ATOM     14  C   LIG A   1      -5.715  -1.848 128.376  0.00  0.00    +0.075 C 
ATOM     15  C   LIG A   1      -6.753  -0.792 128.731  0.00  0.00    +0.015 C 
ATOM     16  C   LIG A   1      -8.236   1.830 129.187  0.00  0.00    +0.005 C 
ATOM     17  C   LIG A   1      -8.719   3.244 129.518  0.00  0.00    +0.005 C 
ATOM     18  C   LIG A   1      -9.404   3.436 130.875  0.00  0.00    +0.002 C 
ATOM     19  C   LIG A   1      -8.940   2.432 131.990  0.00  0.00    -0.023 C 
ATOM     20  C   LIG A   1     -10.066   1.361 132.115  0.00  0.00    +0.012 C 
ATOM     21  C   LIG A   1      -8.978   3.250 133.309  0.00  0.00    +0.008 C 
ATOM     22  C   LIG A   1      -9.646   4.572 132.962  0.00  0.00    +0.008 C 
ATOM     23  C   LIG A   1      -9.248   4.854 131.503  0.00  0.00    +0.036 C 
ENDROOT
BRANCH  23  24
ATOM     24  C   LIG A   1     -10.072   6.010 130.860  0.00  0.00    +0.114 C 
ATOM     25  C   LIG A   1      -9.187   7.182 130.406  0.00  0.00    +0.056 C 
ATOM     26  O   LIG A   1     -10.786   5.525 129.709  0.00  0.00    -0.458 OA
ATOM     27  C   LIG A   1     -12.010   6.125 129.623  0.00  0.00    +0.308 C 
ATOM     28  O   LIG A   1     -12.782   5.975 128.690  0.00  0.00    -0.251 OA
ATOM     29  C   LIG A   1     -12.242   7.012 130.808  0.00  0.00    +0.124 C 
ATOM     30  C   LIG A   1     -11.181   6.537 131.775  0.00  0.00    +0.059 C 
ENDBRANCH  23  24
TORSDOF 1
ENDMDL
MODEL 7
REMARK VINA RESULT:      -8.8      1.807      3.521
REMARK  Name = NuBBE_1731
REMARK  7 active torsions:
REMARK  status: ('A' for Active; 'I' for Inactive)
REMARK    1  A    between atoms: C_1  and  C_2
REMARK    2  A    between atoms: C_5  and  C_6
REMARK    3  A    between atoms: C_11  and  C_12
REMARK    4  A    between atoms: C_11  and  C_13
REMARK    5  A    between atoms: C_22  and  C_23
REMARK    6  A    between atoms: C_26  and  C_28
REMARK    7  A    between atoms: C_28  and  C_29
REMARK                            x       y       z     vdW  Elec       q    Type
REMARK                         _______ _______ _______ _____ _____    ______ ____
ROOT
ATOM      1  C   LIG A   1      -7.657  -0.684 130.590  0.00  0.00    +0.012 C 
ATOM      2  C   LIG A   1      -6.814  -1.961 130.895  0.00  0.00    -0.023 C 
ATOM      3  C   LIG A   1      -5.291  -1.637 131.066  0.00  0.00    +0.002 C 
ATOM      4  C   LIG A   1      -4.890  -0.747 132.318  0.00  0.00    -0.025 C 
ATOM      5  C   LIG A   1      -5.354   0.715 132.133  0.00  0.00    +0.012 C 
ATOM      6  C   LIG A   1      -5.476  -1.450 133.601  0.00  0.00    +0.008 C 
ATOM      7  C   LIG A   1      -6.994  -1.692 133.477  0.00  0.00    +0.005 C 
ATOM      8  C   LIG A   1      -7.345  -2.534 132.240  0.00  0.00    +0.008 C 
ATOM      9  C   LIG A   1      -5.027  -0.849 134.979  0.00  0.00    +0.027 C 
ATOM     10  C   LIG A   1      -5.636   0.516 135.328  0.00  0.00    +0.019 C 
ATOM     11  C   LIG A   1      -5.411  -1.823 136.122  0.00  0.00    +0.019 C 
ATOM     12  C   LIG A   1      -3.494  -0.708 134.985  0.00  0.00    +0.139 C 
ATOM     13  O   LIG A   1      -2.818  -0.930 135.993  0.00  0.00    -0.297 OA
ATOM     14  C   LIG A   1      -2.829  -0.131 133.758  0.00  0.00    +0.075 C 
ATOM     15  C   LIG A   1      -3.339  -0.762 132.469  0.00  0.00    +0.015 C 
ATOM     16  C   LIG A   1      -4.596  -1.252 129.737  0.00  0.00    +0.005 C 
ATOM     17  C   LIG A   1      -5.437  -1.311 128.461  0.00  0.00    +0.005 C 
ATOM     18  C   LIG A   1      -6.421  -2.480 128.340  0.00  0.00    +0.002 C 
ATOM     19  C   LIG A   1      -6.947  -3.036 129.711  0.00  0.00    -0.023 C 
ATOM     20  C   LIG A   1      -6.161  -4.355 129.981  0.00  0.00    +0.012 C 
ATOM     21  C   LIG A   1      -8.415  -3.460 129.435  0.00  0.00    +0.008 C 
ATOM     22  C   LIG A   1      -8.607  -3.348 127.930  0.00  0.00    +0.008 C 
ATOM     23  C   LIG A   1      -7.696  -2.188 127.492  0.00  0.00    +0.036 C 
ENDROOT
BRANCH  23  24
ATOM     24  C   LIG A   1      -7.518  -2.104 125.946  0.00  0.00    +0.114 C 
ATOM     25  C   LIG A   1      -7.579  -0.659 125.425  0.00  0.00    +0.056 C 
ATOM     26  O   LIG A   1      -6.247  -2.658 125.565  0.00  0.00    -0.458 OA
ATOM     27  C   LIG A   1      -6.357  -3.327 124.380  0.00  0.00    +0.308 C 
ATOM     28  O   LIG A   1      -5.413  -3.808 123.774  0.00  0.00    -0.251 OA
ATOM     29  C   LIG A   1      -7.782  -3.346 123.921  0.00  0.00    +0.124 C 
ATOM     30  C   LIG A   1      -8.529  -2.962 125.179  0.00  0.00    +0.059 C 
ENDBRANCH  23  24
TORSDOF 1
ENDMDL
MODEL 8
REMARK VINA RESULT:      -8.7      4.234      8.703
REMARK  Name = NuBBE_1731
REMARK  7 active torsions:
REMARK  status: ('A' for Active; 'I' for Inactive)
REMARK    1  A    between atoms: C_1  and  C_2
REMARK    2  A    between atoms: C_5  and  C_6
REMARK    3  A    between atoms: C_11  and  C_12
REMARK    4  A    between atoms: C_11  and  C_13
REMARK    5  A    between atoms: C_22  and  C_23
REMARK    6  A    between atoms: C_26  and  C_28
REMARK    7  A    between atoms: C_28  and  C_29
REMARK                            x       y       z     vdW  Elec       q    Type
REMARK                         _______ _______ _______ _____ _____    ______ ____
ROOT
ATOM      1  C   LIG A   1      -4.542   1.763 126.262  0.00  0.00    +0.012 C 
ATOM      2  C   LIG A   1      -5.707   1.140 127.091  0.00  0.00    -0.023 C 
ATOM      3  C   LIG A   1      -7.107   1.415 126.443  0.00  0.00    +0.002 C 
ATOM      4  C   LIG A   1      -7.385   0.732 125.037  0.00  0.00    -0.025 C 
ATOM      5  C   LIG A   1      -6.547   1.396 123.921  0.00  0.00    +0.012 C 
ATOM      6  C   LIG A   1      -7.122  -0.813 125.204  0.00  0.00    +0.008 C 
ATOM      7  C   LIG A   1      -5.711  -1.095 125.759  0.00  0.00    +0.005 C 
ATOM      8  C   LIG A   1      -5.471  -0.397 127.107  0.00  0.00    +0.008 C 
ATOM      9  C   LIG A   1      -7.532  -1.715 123.988  0.00  0.00    +0.027 C 
ATOM     10  C   LIG A   1      -6.630  -1.595 122.751  0.00  0.00    +0.019 C 
ATOM     11  C   LIG A   1      -7.519  -3.205 124.417  0.00  0.00    +0.019 C 
ATOM     12  C   LIG A   1      -8.971  -1.365 123.570  0.00  0.00    +0.139 C 
ATOM     13  O   LIG A   1      -9.774  -2.223 123.196  0.00  0.00    -0.297 OA
ATOM     14  C   LIG A   1      -9.347   0.095 123.473  0.00  0.00    +0.075 C 
ATOM     15  C   LIG A   1      -8.895   0.893 124.689  0.00  0.00    +0.015 C 
ATOM     16  C   LIG A   1      -7.552   2.894 126.553  0.00  0.00    +0.005 C 
ATOM     17  C   LIG A   1      -6.636   3.847 127.324  0.00  0.00    +0.005 C 
ATOM     18  C   LIG A   1      -5.976   3.292 128.591  0.00  0.00    +0.002 C 
ATOM     19  C   LIG A   1      -5.742   1.740 128.580  0.00  0.00    -0.023 C 
ATOM     20  C   LIG A   1      -6.860   1.119 129.472  0.00  0.00    +0.012 C 
ATOM     21  C   LIG A   1      -4.412   1.529 129.352  0.00  0.00    +0.008 C 
ATOM     22  C   LIG A   1      -4.055   2.882 129.948  0.00  0.00    +0.008 C 
ATOM     23  C   LIG A   1      -4.594   3.919 128.947  0.00  0.00    +0.036 C 
ENDROOT
BRANCH  23  24
ATOM     24  C   LIG A   1      -4.597   5.370 129.516  0.00  0.00    +0.114 C 
ATOM     25  C   LIG A   1      -3.787   6.344 128.645  0.00  0.00    +0.056 C 
ATOM     26  O   LIG A   1      -5.945   5.865 129.597  0.00  0.00    -0.458 OA
ATOM     27  C   LIG A   1      -6.100   6.638 130.711  0.00  0.00    +0.308 C 
ATOM     28  O   LIG A   1      -7.112   7.267 130.974  0.00  0.00    -0.251 OA
ATOM     29  C   LIG A   1      -4.845   6.633 131.530  0.00  0.00    +0.124 C 
ATOM     30  C   LIG A   1      -4.097   5.448 130.962  0.00  0.00    +0.059 C 
ENDBRANCH  23  24
TORSDOF 1
ENDMDL
MODEL 9
REMARK VINA RESULT:      -8.6      7.746     11.162
REMARK  Name = NuBBE_1731
REMARK  7 active torsions:
REMARK  status: ('A' for Active; 'I' for Inactive)
REMARK    1  A    between atoms: C_1  and  C_2
REMARK    2  A    between atoms: C_5  and  C_6
REMARK    3  A    between atoms: C_11  and  C_12
REMARK    4  A    between atoms: C_11  and  C_13
REMARK    5  A    between atoms: C_22  and  C_23
REMARK    6  A    between atoms: C_26  and  C_28
REMARK    7  A    between atoms: C_28  and  C_29
REMARK                            x       y       z     vdW  Elec       q    Type
REMARK                         _______ _______ _______ _____ _____    ______ ____
ROOT
ATOM      1  C   LIG A   1      -5.152   6.806 131.181  0.00  0.00    +0.012 C 
ATOM      2  C   LIG A   1      -4.762   5.355 131.603  0.00  0.00    -0.023 C 
ATOM      3  C   LIG A   1      -5.624   4.838 132.805  0.00  0.00    +0.002 C 
ATOM      4  C   LIG A   1      -7.173   4.628 132.529  0.00  0.00    -0.025 C 
ATOM      5  C   LIG A   1      -7.898   5.984 132.373  0.00  0.00    +0.012 C 
ATOM      6  C   LIG A   1      -7.304   3.680 131.277  0.00  0.00    +0.008 C 
ATOM      7  C   LIG A   1      -6.531   4.230 130.062  0.00  0.00    +0.005 C 
ATOM      8  C   LIG A   1      -5.041   4.444 130.375  0.00  0.00    +0.008 C 
ATOM      9  C   LIG A   1      -8.752   3.174 130.947  0.00  0.00    +0.027 C 
ATOM     10  C   LIG A   1      -9.701   4.234 130.369  0.00  0.00    +0.019 C 
ATOM     11  C   LIG A   1      -8.678   2.019 129.916  0.00  0.00    +0.019 C 
ATOM     12  C   LIG A   1      -9.387   2.609 132.232  0.00  0.00    +0.139 C 
ATOM     13  O   LIG A   1     -10.113   1.612 132.221  0.00  0.00    -0.297 OA
ATOM     14  C   LIG A   1      -9.233   3.403 133.508  0.00  0.00    +0.075 C 
ATOM     15  C   LIG A   1      -7.800   3.865 133.735  0.00  0.00    +0.015 C 
ATOM     16  C   LIG A   1      -5.284   5.534 134.146  0.00  0.00    +0.005 C 
ATOM     17  C   LIG A   1      -4.136   6.545 134.140  0.00  0.00    +0.005 C 
ATOM     18  C   LIG A   1      -2.913   6.193 133.287  0.00  0.00    +0.002 C 
ATOM     19  C   LIG A   1      -3.222   5.278 132.049  0.00  0.00    -0.023 C 
ATOM     20  C   LIG A   1      -2.761   3.840 132.439  0.00  0.00    +0.012 C 
ATOM     21  C   LIG A   1      -2.243   5.756 130.942  0.00  0.00    +0.008 C 
ATOM     22  C   LIG A   1      -1.294   6.734 131.617  0.00  0.00    +0.008 C 
ATOM     23  C   LIG A   1      -2.129   7.414 132.716  0.00  0.00    +0.036 C 
ENDROOT
BRANCH  23  24
ATOM     24  C   LIG A   1      -1.263   8.234 133.719  0.00  0.00    +0.114 C 
ATOM     25  C   LIG A   1      -0.769   7.384 134.901  0.00  0.00    +0.056 C 
ATOM     26  O   LIG A   1      -0.110   8.772 133.049  0.00  0.00    -0.458 OA
ATOM     27  C   LIG A   1       0.182  10.015 133.531  0.00  0.00    +0.308 C 
ATOM     28  O   LIG A   1       1.168  10.660 133.213  0.00  0.00    -0.251 OA
ATOM     29  C   LIG A   1      -0.852  10.446 134.525  0.00  0.00    +0.124 C 
ATOM     30  C   LIG A   1      -1.981   9.477 134.253  0.00  0.00    +0.059 C 
ENDBRANCH  23  24
TORSDOF 1
ENDMDL
