MODEL 1
REMARK VINA RESULT:      -7.3      0.000      0.000
REMARK  Name = NuBBE_423
REMARK  16 active torsions:
REMARK  status: ('A' for Active; 'I' for Inactive)
REMARK    1  A    between atoms: N_3  and  C_4
REMARK    2  A    between atoms: C_4  and  C_5
REMARK    3  A    between atoms: C_6  and  C_7
REMARK    4  A    between atoms: C_6  and  C_8
REMARK    5  A    between atoms: C_8  and  C_9
REMARK    6  A    between atoms: C_9  and  C_10
REMARK    7  A    between atoms: C_11  and  C_12
REMARK    8  A    between atoms: C_11  and  C_13
REMARK    9  A    between atoms: N_14  and  C_15
REMARK   10  A    between atoms: C_15  and  C_16
REMARK   11  A    between atoms: C_17  and  C_18
REMARK   12  A    between atoms: C_17  and  C_24
REMARK   13  A    between atoms: C_18  and  C_19
REMARK   14  A    between atoms: C_19  and  C_20
REMARK   15  A    between atoms: C_21  and  C_22
REMARK   16  A    between atoms: C_21  and  C_23
REMARK                            x       y       z     vdW  Elec       q    Type
REMARK                         _______ _______ _______ _____ _____    ______ ____
ROOT
ATOM      1  N   LIG A   1      -9.229   2.353 128.789  0.00  0.00    -0.130 NA
ATOM      2  C   LIG A   1      -8.420   1.974 127.853  0.00  0.00    +0.379 C 
ATOM      3  N   LIG A   1      -7.128   2.385 127.816  0.00  0.00    -0.273 N 
ATOM      4  N   LIG A   1      -8.829   0.947 127.071  0.00  0.00    -0.273 N 
ATOM      5  H   LIG A   1      -8.739   2.952 129.458  0.00  0.00    +0.306 HD
ATOM      6  H   LIG A   1      -6.785   2.777 128.687  0.00  0.00    +0.258 HD
ATOM      7  H   LIG A   1      -9.593   0.459 127.524  0.00  0.00    +0.258 HD
ENDROOT
BRANCH   3   8
ATOM      8  C   LIG A   1      -6.027   2.010 126.967  0.00  0.00    +0.223 C 
BRANCH   8   9
ATOM      9  C   LIG A   1      -5.788   3.243 126.359  0.00  0.00    +0.009 C 
ATOM     10  C   LIG A   1      -5.908   3.719 125.042  0.00  0.00    -0.073 C 
ATOM     11  C   LIG A   1      -5.815   5.178 125.158  0.00  0.00    +0.038 C 
BRANCH  10  12
ATOM     12  C   LIG A   1      -6.309   3.024 123.774  0.00  0.00    +0.034 C 
BRANCH  12  13
ATOM     13  C   LIG A   1      -5.951   3.706 122.409  0.00  0.00    +0.031 C 
BRANCH  13  14
ATOM     14  C   LIG A   1      -6.822   3.704 121.159  0.00  0.00    -0.028 C 
ATOM     15  C   LIG A   1      -6.614   4.325 119.989  0.00  0.00    -0.080 C 
ATOM     16  C   LIG A   1      -5.390   5.097 119.777  0.00  0.00    +0.038 C 
ATOM     17  C   LIG A   1      -7.574   4.408 118.827  0.00  0.00    +0.038 C 
ENDBRANCH  13  14
ENDBRANCH  12  13
ENDBRANCH  10  12
ENDBRANCH   8   9
ENDBRANCH   3   8
BRANCH   4  18
ATOM     18  C   LIG A   1      -7.955   0.042 126.391  0.00  0.00    +0.223 C 
BRANCH  18  19
ATOM     19  C   LIG A   1      -7.941  -1.347 127.053  0.00  0.00    +0.009 C 
ATOM     20  C   LIG A   1      -8.541  -2.558 126.785  0.00  0.00    -0.073 C 
ATOM     21  C   LIG A   1      -8.576  -3.581 127.866  0.00  0.00    +0.038 C 
BRANCH  20  22
ATOM     22  C   LIG A   1      -9.451  -2.989 125.625  0.00  0.00    +0.034 C 
BRANCH  22  23
ATOM     23  C   LIG A   1      -8.927  -3.168 124.216  0.00  0.00    +0.031 C 
BRANCH  23  24
ATOM     24  C   LIG A   1      -7.488  -3.644 124.287  0.00  0.00    -0.028 C 
ATOM     25  C   LIG A   1      -6.427  -3.002 123.776  0.00  0.00    -0.080 C 
ATOM     26  C   LIG A   1      -6.517  -1.660 123.126  0.00  0.00    +0.038 C 
ATOM     27  C   LIG A   1      -5.057  -3.620 123.828  0.00  0.00    +0.038 C 
ENDBRANCH  23  24
ENDBRANCH  22  23
ENDBRANCH  20  22
ENDBRANCH  18  19
ENDBRANCH   4  18
TORSDOF 10
ENDMDL
MODEL 2
REMARK VINA RESULT:      -7.3      3.069      4.730
REMARK  Name = NuBBE_423
REMARK  16 active torsions:
REMARK  status: ('A' for Active; 'I' for Inactive)
REMARK    1  A    between atoms: N_3  and  C_4
REMARK    2  A    between atoms: C_4  and  C_5
REMARK    3  A    between atoms: C_6  and  C_7
REMARK    4  A    between atoms: C_6  and  C_8
REMARK    5  A    between atoms: C_8  and  C_9
REMARK    6  A    between atoms: C_9  and  C_10
REMARK    7  A    between atoms: C_11  and  C_12
REMARK    8  A    between atoms: C_11  and  C_13
REMARK    9  A    between atoms: N_14  and  C_15
REMARK   10  A    between atoms: C_15  and  C_16
REMARK   11  A    between atoms: C_17  and  C_18
REMARK   12  A    between atoms: C_17  and  C_24
REMARK   13  A    between atoms: C_18  and  C_19
REMARK   14  A    between atoms: C_19  and  C_20
REMARK   15  A    between atoms: C_21  and  C_22
REMARK   16  A    between atoms: C_21  and  C_23
REMARK                            x       y       z     vdW  Elec       q    Type
REMARK                         _______ _______ _______ _____ _____    ______ ____
ROOT
ATOM      1  N   LIG A   1      -4.487  -3.755 123.286  0.00  0.00    -0.130 NA
ATOM      2  C   LIG A   1      -5.584  -3.148 123.607  0.00  0.00    +0.379 C 
ATOM      3  N   LIG A   1      -5.940  -1.969 123.039  0.00  0.00    -0.273 N 
ATOM      4  N   LIG A   1      -6.488  -3.858 124.323  0.00  0.00    -0.273 N 
ATOM      5  H   LIG A   1      -3.993  -3.231 122.560  0.00  0.00    +0.306 HD
ATOM      6  H   LIG A   1      -5.439  -1.743 122.186  0.00  0.00    +0.258 HD
ATOM      7  H   LIG A   1      -6.273  -4.846 124.257  0.00  0.00    +0.258 HD
ENDROOT
BRANCH   3   8
ATOM      8  C   LIG A   1      -7.142  -1.182 123.138  0.00  0.00    +0.223 C 
BRANCH   8   9
ATOM      9  C   LIG A   1      -6.697  -0.212 124.036  0.00  0.00    +0.009 C 
ATOM     10  C   LIG A   1      -7.221   1.012 124.485  0.00  0.00    -0.073 C 
ATOM     11  C   LIG A   1      -6.417   1.359 125.661  0.00  0.00    +0.038 C 
BRANCH  10  12
ATOM     12  C   LIG A   1      -8.472   1.750 124.105  0.00  0.00    +0.034 C 
BRANCH  12  13
ATOM     13  C   LIG A   1      -8.342   2.991 123.155  0.00  0.00    +0.031 C 
BRANCH  13  14
ATOM     14  C   LIG A   1      -7.320   3.152 122.037  0.00  0.00    -0.028 C 
ATOM     15  C   LIG A   1      -6.102   3.706 122.086  0.00  0.00    -0.080 C 
ATOM     16  C   LIG A   1      -5.578   4.214 123.354  0.00  0.00    +0.038 C 
ATOM     17  C   LIG A   1      -5.180   3.968 120.920  0.00  0.00    +0.038 C 
ENDBRANCH  13  14
ENDBRANCH  12  13
ENDBRANCH  10  12
ENDBRANCH   8   9
ENDBRANCH   3   8
BRANCH   4  18
ATOM     18  C   LIG A   1      -7.899  -3.624 124.314  0.00  0.00    +0.223 C 
BRANCH  18  19
ATOM     19  C   LIG A   1      -8.509  -3.748 125.722  0.00  0.00    +0.009 C 
ATOM     20  C   LIG A   1      -8.344  -3.081 126.916  0.00  0.00    -0.073 C 
ATOM     21  C   LIG A   1      -8.844  -3.727 128.160  0.00  0.00    +0.038 C 
BRANCH  20  22
ATOM     22  C   LIG A   1      -7.475  -1.864 127.270  0.00  0.00    +0.034 C 
BRANCH  22  23
ATOM     23  C   LIG A   1      -6.798  -1.723 128.616  0.00  0.00    +0.031 C 
BRANCH  23  24
ATOM     24  C   LIG A   1      -5.382  -2.256 128.508  0.00  0.00    -0.028 C 
ATOM     25  C   LIG A   1      -4.873  -3.272 129.222  0.00  0.00    -0.080 C 
ATOM     26  C   LIG A   1      -5.681  -4.084 130.181  0.00  0.00    +0.038 C 
ATOM     27  C   LIG A   1      -3.424  -3.651 129.094  0.00  0.00    +0.038 C 
ENDBRANCH  23  24
ENDBRANCH  22  23
ENDBRANCH  20  22
ENDBRANCH  18  19
ENDBRANCH   4  18
TORSDOF 10
ENDMDL
MODEL 3
REMARK VINA RESULT:      -7.0      3.570      6.370
REMARK  Name = NuBBE_423
REMARK  16 active torsions:
REMARK  status: ('A' for Active; 'I' for Inactive)
REMARK    1  A    between atoms: N_3  and  C_4
REMARK    2  A    between atoms: C_4  and  C_5
REMARK    3  A    between atoms: C_6  and  C_7
REMARK    4  A    between atoms: C_6  and  C_8
REMARK    5  A    between atoms: C_8  and  C_9
REMARK    6  A    between atoms: C_9  and  C_10
REMARK    7  A    between atoms: C_11  and  C_12
REMARK    8  A    between atoms: C_11  and  C_13
REMARK    9  A    between atoms: N_14  and  C_15
REMARK   10  A    between atoms: C_15  and  C_16
REMARK   11  A    between atoms: C_17  and  C_18
REMARK   12  A    between atoms: C_17  and  C_24
REMARK   13  A    between atoms: C_18  and  C_19
REMARK   14  A    between atoms: C_19  and  C_20
REMARK   15  A    between atoms: C_21  and  C_22
REMARK   16  A    between atoms: C_21  and  C_23
REMARK                            x       y       z     vdW  Elec       q    Type
REMARK                         _______ _______ _______ _____ _____    ______ ____
ROOT
ATOM      1  N   LIG A   1      -3.756   1.850 127.659  0.00  0.00    -0.130 NA
ATOM      2  C   LIG A   1      -4.865   1.605 127.037  0.00  0.00    +0.379 C 
ATOM      3  N   LIG A   1      -4.980   0.577 126.160  0.00  0.00    -0.273 N 
ATOM      4  N   LIG A   1      -5.972   2.238 127.493  0.00  0.00    -0.273 N 
ATOM      5  H   LIG A   1      -3.048   1.158 127.403  0.00  0.00    +0.306 HD
ATOM      6  H   LIG A   1      -4.245  -0.119 126.227  0.00  0.00    +0.258 HD
ATOM      7  H   LIG A   1      -5.801   2.593 128.427  0.00  0.00    +0.258 HD
ENDROOT
BRANCH   3   8
ATOM      8  C   LIG A   1      -6.116   0.041 125.456  0.00  0.00    +0.223 C 
BRANCH   8   9
ATOM      9  C   LIG A   1      -5.557  -1.159 125.015  0.00  0.00    +0.009 C 
ATOM     10  C   LIG A   1      -5.910  -2.091 124.025  0.00  0.00    -0.073 C 
ATOM     11  C   LIG A   1      -4.723  -2.937 123.864  0.00  0.00    +0.038 C 
BRANCH  10  12
ATOM     12  C   LIG A   1      -7.084  -2.143 123.091  0.00  0.00    +0.034 C 
BRANCH  12  13
ATOM     13  C   LIG A   1      -8.328  -2.999 123.510  0.00  0.00    +0.031 C 
BRANCH  13  14
ATOM     14  C   LIG A   1      -8.541  -3.653 124.869  0.00  0.00    -0.028 C 
ATOM     15  C   LIG A   1      -8.887  -3.081 126.031  0.00  0.00    -0.080 C 
ATOM     16  C   LIG A   1      -9.162  -1.646 126.089  0.00  0.00    +0.038 C 
ATOM     17  C   LIG A   1      -8.950  -3.749 127.384  0.00  0.00    +0.038 C 
ENDBRANCH  13  14
ENDBRANCH  12  13
ENDBRANCH  10  12
ENDBRANCH   8   9
ENDBRANCH   3   8
BRANCH   4  18
ATOM     18  C   LIG A   1      -7.308   1.744 127.355  0.00  0.00    +0.223 C 
BRANCH  18  19
ATOM     19  C   LIG A   1      -7.847   1.173 128.678  0.00  0.00    +0.009 C 
ATOM     20  C   LIG A   1      -7.426   0.203 129.562  0.00  0.00    -0.073 C 
ATOM     21  C   LIG A   1      -8.408  -0.326 130.549  0.00  0.00    +0.038 C 
BRANCH  20  22
ATOM     22  C   LIG A   1      -6.160  -0.668 129.564  0.00  0.00    +0.034 C 
BRANCH  22  23
ATOM     23  C   LIG A   1      -6.052  -1.930 128.736  0.00  0.00    +0.031 C 
BRANCH  23  24
ATOM     24  C   LIG A   1      -6.193  -3.129 129.654  0.00  0.00    -0.028 C 
ATOM     25  C   LIG A   1      -5.193  -3.933 130.048  0.00  0.00    -0.080 C 
ATOM     26  C   LIG A   1      -3.762  -3.697 129.689  0.00  0.00    +0.038 C 
ATOM     27  C   LIG A   1      -5.470  -5.150 130.887  0.00  0.00    +0.038 C 
ENDBRANCH  23  24
ENDBRANCH  22  23
ENDBRANCH  20  22
ENDBRANCH  18  19
ENDBRANCH   4  18
TORSDOF 10
ENDMDL
MODEL 4
REMARK VINA RESULT:      -6.9      3.648      6.593
REMARK  Name = NuBBE_423
REMARK  16 active torsions:
REMARK  status: ('A' for Active; 'I' for Inactive)
REMARK    1  A    between atoms: N_3  and  C_4
REMARK    2  A    between atoms: C_4  and  C_5
REMARK    3  A    between atoms: C_6  and  C_7
REMARK    4  A    between atoms: C_6  and  C_8
REMARK    5  A    between atoms: C_8  and  C_9
REMARK    6  A    between atoms: C_9  and  C_10
REMARK    7  A    between atoms: C_11  and  C_12
REMARK    8  A    between atoms: C_11  and  C_13
REMARK    9  A    between atoms: N_14  and  C_15
REMARK   10  A    between atoms: C_15  and  C_16
REMARK   11  A    between atoms: C_17  and  C_18
REMARK   12  A    between atoms: C_17  and  C_24
REMARK   13  A    between atoms: C_18  and  C_19
REMARK   14  A    between atoms: C_19  and  C_20
REMARK   15  A    between atoms: C_21  and  C_22
REMARK   16  A    between atoms: C_21  and  C_23
REMARK                            x       y       z     vdW  Elec       q    Type
REMARK                         _______ _______ _______ _____ _____    ______ ____
ROOT
ATOM      1  N   LIG A   1      -4.664   1.405 126.582  0.00  0.00    -0.130 NA
ATOM      2  C   LIG A   1      -5.633   0.802 127.193  0.00  0.00    +0.379 C 
ATOM      3  N   LIG A   1      -5.993   1.130 128.459  0.00  0.00    -0.273 N 
ATOM      4  N   LIG A   1      -6.445   0.028 126.434  0.00  0.00    -0.273 N 
ATOM      5  H   LIG A   1      -4.270   2.135 127.180  0.00  0.00    +0.306 HD
ATOM      6  H   LIG A   1      -5.639   2.025 128.780  0.00  0.00    +0.258 HD
ATOM      7  H   LIG A   1      -6.323   0.265 125.456  0.00  0.00    +0.258 HD
ENDROOT
BRANCH   3   8
ATOM      8  C   LIG A   1      -7.091   0.700 129.284  0.00  0.00    +0.223 C 
BRANCH   8   9
ATOM      9  C   LIG A   1      -6.372   0.252 130.393  0.00  0.00    +0.009 C 
ATOM     10  C   LIG A   1      -6.397  -0.926 131.158  0.00  0.00    -0.073 C 
ATOM     11  C   LIG A   1      -5.169  -0.883 131.957  0.00  0.00    +0.038 C 
BRANCH  10  12
ATOM     12  C   LIG A   1      -7.272  -2.143 131.070  0.00  0.00    +0.034 C 
BRANCH  12  13
ATOM     13  C   LIG A   1      -6.648  -3.467 130.508  0.00  0.00    +0.031 C 
BRANCH  13  14
ATOM     14  C   LIG A   1      -5.160  -3.746 130.336  0.00  0.00    -0.028 C 
ATOM     15  C   LIG A   1      -4.356  -3.415 129.317  0.00  0.00    -0.080 C 
ATOM     16  C   LIG A   1      -4.880  -2.642 128.191  0.00  0.00    +0.038 C 
ATOM     17  C   LIG A   1      -2.918  -3.835 129.127  0.00  0.00    +0.038 C 
ENDBRANCH  13  14
ENDBRANCH  12  13
ENDBRANCH  10  12
ENDBRANCH   8   9
ENDBRANCH   3   8
BRANCH   4  18
ATOM     18  C   LIG A   1      -7.811  -0.264 126.739  0.00  0.00    +0.223 C 
BRANCH  18  19
ATOM     19  C   LIG A   1      -7.990  -1.708 127.242  0.00  0.00    +0.009 C 
ATOM     20  C   LIG A   1      -8.661  -2.821 126.784  0.00  0.00    -0.073 C 
ATOM     21  C   LIG A   1      -8.902  -3.940 127.736  0.00  0.00    +0.038 C 
BRANCH  20  22
ATOM     22  C   LIG A   1      -9.476  -3.040 125.500  0.00  0.00    +0.034 C 
BRANCH  22  23
ATOM     23  C   LIG A   1      -8.819  -3.147 124.140  0.00  0.00    +0.031 C 
BRANCH  23  24
ATOM     24  C   LIG A   1      -7.405  -3.664 124.321  0.00  0.00    -0.028 C 
ATOM     25  C   LIG A   1      -6.287  -3.039 123.920  0.00  0.00    -0.080 C 
ATOM     26  C   LIG A   1      -6.287  -1.679 123.302  0.00  0.00    +0.038 C 
ATOM     27  C   LIG A   1      -4.943  -3.696 124.071  0.00  0.00    +0.038 C 
ENDBRANCH  23  24
ENDBRANCH  22  23
ENDBRANCH  20  22
ENDBRANCH  18  19
ENDBRANCH   4  18
TORSDOF 10
ENDMDL
MODEL 5
REMARK VINA RESULT:      -6.9      2.993      4.835
REMARK  Name = NuBBE_423
REMARK  16 active torsions:
REMARK  status: ('A' for Active; 'I' for Inactive)
REMARK    1  A    between atoms: N_3  and  C_4
REMARK    2  A    between atoms: C_4  and  C_5
REMARK    3  A    between atoms: C_6  and  C_7
REMARK    4  A    between atoms: C_6  and  C_8
REMARK    5  A    between atoms: C_8  and  C_9
REMARK    6  A    between atoms: C_9  and  C_10
REMARK    7  A    between atoms: C_11  and  C_12
REMARK    8  A    between atoms: C_11  and  C_13
REMARK    9  A    between atoms: N_14  and  C_15
REMARK   10  A    between atoms: C_15  and  C_16
REMARK   11  A    between atoms: C_17  and  C_18
REMARK   12  A    between atoms: C_17  and  C_24
REMARK   13  A    between atoms: C_18  and  C_19
REMARK   14  A    between atoms: C_19  and  C_20
REMARK   15  A    between atoms: C_21  and  C_22
REMARK   16  A    between atoms: C_21  and  C_23
REMARK                            x       y       z     vdW  Elec       q    Type
REMARK                         _______ _______ _______ _____ _____    ______ ____
ROOT
ATOM      1  N   LIG A   1      -6.116  -2.361 122.764  0.00  0.00    -0.130 NA
ATOM      2  C   LIG A   1      -6.214  -1.575 123.788  0.00  0.00    +0.379 C 
ATOM      3  N   LIG A   1      -6.711  -0.318 123.678  0.00  0.00    -0.273 N 
ATOM      4  N   LIG A   1      -6.060  -2.141 125.009  0.00  0.00    -0.273 N 
ATOM      5  H   LIG A   1      -6.480  -1.898 121.928  0.00  0.00    +0.306 HD
ATOM      6  H   LIG A   1      -7.227  -0.141 122.822  0.00  0.00    +0.258 HD
ATOM      7  H   LIG A   1      -6.164  -3.146 124.932  0.00  0.00    +0.258 HD
ENDROOT
BRANCH   3   8
ATOM      8  C   LIG A   1      -7.027   0.677 124.670  0.00  0.00    +0.223 C 
BRANCH   8   9
ATOM      9  C   LIG A   1      -7.819   1.522 123.890  0.00  0.00    +0.009 C 
ATOM     10  C   LIG A   1      -7.543   2.624 123.063  0.00  0.00    -0.073 C 
ATOM     11  C   LIG A   1      -8.773   2.832 122.292  0.00  0.00    +0.038 C 
BRANCH  10  12
ATOM     12  C   LIG A   1      -6.255   3.329 122.753  0.00  0.00    +0.034 C 
BRANCH  12  13
ATOM     13  C   LIG A   1      -5.704   3.260 121.287  0.00  0.00    +0.031 C 
BRANCH  13  14
ATOM     14  C   LIG A   1      -5.457   4.453 120.373  0.00  0.00    -0.028 C 
ATOM     15  C   LIG A   1      -6.231   4.931 119.388  0.00  0.00    -0.080 C 
ATOM     16  C   LIG A   1      -7.527   4.314 119.109  0.00  0.00    +0.038 C 
ATOM     17  C   LIG A   1      -5.879   6.032 118.417  0.00  0.00    +0.038 C 
ENDBRANCH  13  14
ENDBRANCH  12  13
ENDBRANCH  10  12
ENDBRANCH   8   9
ENDBRANCH   3   8
BRANCH   4  18
ATOM     18  C   LIG A   1      -6.639  -1.641 126.217  0.00  0.00    +0.223 C 
BRANCH  18  19
ATOM     19  C   LIG A   1      -7.760  -2.559 126.737  0.00  0.00    +0.009 C 
ATOM     20  C   LIG A   1      -8.217  -2.926 127.984  0.00  0.00    -0.073 C 
ATOM     21  C   LIG A   1      -9.092  -4.126 128.089  0.00  0.00    +0.038 C 
BRANCH  20  22
ATOM     22  C   LIG A   1      -7.772  -2.477 129.384  0.00  0.00    +0.034 C 
BRANCH  22  23
ATOM     23  C   LIG A   1      -6.318  -2.480 129.806  0.00  0.00    +0.031 C 
BRANCH  23  24
ATOM     24  C   LIG A   1      -6.236  -2.861 131.272  0.00  0.00    -0.028 C 
ATOM     25  C   LIG A   1      -5.944  -4.081 131.747  0.00  0.00    -0.080 C 
ATOM     26  C   LIG A   1      -5.571  -5.233 130.872  0.00  0.00    +0.038 C 
ATOM     27  C   LIG A   1      -5.984  -4.360 133.224  0.00  0.00    +0.038 C 
ENDBRANCH  23  24
ENDBRANCH  22  23
ENDBRANCH  20  22
ENDBRANCH  18  19
ENDBRANCH   4  18
TORSDOF 10
ENDMDL
MODEL 6
REMARK VINA RESULT:      -6.9      2.682      7.290
REMARK  Name = NuBBE_423
REMARK  16 active torsions:
REMARK  status: ('A' for Active; 'I' for Inactive)
REMARK    1  A    between atoms: N_3  and  C_4
REMARK    2  A    between atoms: C_4  and  C_5
REMARK    3  A    between atoms: C_6  and  C_7
REMARK    4  A    between atoms: C_6  and  C_8
REMARK    5  A    between atoms: C_8  and  C_9
REMARK    6  A    between atoms: C_9  and  C_10
REMARK    7  A    between atoms: C_11  and  C_12
REMARK    8  A    between atoms: C_11  and  C_13
REMARK    9  A    between atoms: N_14  and  C_15
REMARK   10  A    between atoms: C_15  and  C_16
REMARK   11  A    between atoms: C_17  and  C_18
REMARK   12  A    between atoms: C_17  and  C_24
REMARK   13  A    between atoms: C_18  and  C_19
REMARK   14  A    between atoms: C_19  and  C_20
REMARK   15  A    between atoms: C_21  and  C_22
REMARK   16  A    between atoms: C_21  and  C_23
REMARK                            x       y       z     vdW  Elec       q    Type
REMARK                         _______ _______ _______ _____ _____    ______ ____
ROOT
ATOM      1  N   LIG A   1      -8.359   3.589 122.918  0.00  0.00    -0.130 NA
ATOM      2  C   LIG A   1      -9.009   2.564 123.367  0.00  0.00    +0.379 C 
ATOM      3  N   LIG A   1      -9.269   1.486 122.586  0.00  0.00    -0.273 N 
ATOM      4  N   LIG A   1      -9.181   2.489 124.708  0.00  0.00    -0.273 N 
ATOM      5  H   LIG A   1      -8.079   3.432 121.947  0.00  0.00    +0.306 HD
ATOM      6  H   LIG A   1      -8.708   1.431 121.742  0.00  0.00    +0.258 HD
ATOM      7  H   LIG A   1      -8.530   3.115 125.169  0.00  0.00    +0.258 HD
ENDROOT
BRANCH   3   8
ATOM      8  C   LIG A   1      -9.851   0.203 122.886  0.00  0.00    +0.223 C 
BRANCH   8   9
ATOM      9  C   LIG A   1      -8.699  -0.581 122.827  0.00  0.00    +0.009 C 
ATOM     10  C   LIG A   1      -8.416  -1.920 123.144  0.00  0.00    -0.073 C 
ATOM     11  C   LIG A   1      -7.108  -2.184 122.538  0.00  0.00    +0.038 C 
BRANCH  10  12
ATOM     12  C   LIG A   1      -9.281  -3.003 123.722  0.00  0.00    +0.034 C 
BRANCH  12  13
ATOM     13  C   LIG A   1      -9.438  -3.075 125.280  0.00  0.00    +0.031 C 
BRANCH  13  14
ATOM     14  C   LIG A   1      -8.385  -2.661 126.300  0.00  0.00    -0.028 C 
ATOM     15  C   LIG A   1      -8.236  -3.070 127.567  0.00  0.00    -0.080 C 
ATOM     16  C   LIG A   1      -9.134  -4.083 128.121  0.00  0.00    +0.038 C 
ATOM     17  C   LIG A   1      -7.261  -2.526 128.584  0.00  0.00    +0.038 C 
ENDBRANCH  13  14
ENDBRANCH  12  13
ENDBRANCH  10  12
ENDBRANCH   8   9
ENDBRANCH   3   8
BRANCH   4  18
ATOM     18  C   LIG A   1      -9.351   1.273 125.441  0.00  0.00    +0.223 C 
BRANCH  18  19
ATOM     19  C   LIG A   1      -8.026   0.780 126.049  0.00  0.00    +0.009 C 
ATOM     20  C   LIG A   1      -6.709   1.181 125.968  0.00  0.00    -0.073 C 
ATOM     21  C   LIG A   1      -5.654   0.229 126.409  0.00  0.00    +0.038 C 
BRANCH  20  22
ATOM     22  C   LIG A   1      -6.070   2.372 125.236  0.00  0.00    +0.034 C 
BRANCH  22  23
ATOM     23  C   LIG A   1      -5.464   3.541 125.982  0.00  0.00    +0.031 C 
BRANCH  23  24
ATOM     24  C   LIG A   1      -3.953   3.445 125.895  0.00  0.00    -0.028 C 
ATOM     25  C   LIG A   1      -3.133   3.099 126.900  0.00  0.00    -0.080 C 
ATOM     26  C   LIG A   1      -3.622   2.672 128.246  0.00  0.00    +0.038 C 
ATOM     27  C   LIG A   1      -1.641   3.129 126.719  0.00  0.00    +0.038 C 
ENDBRANCH  23  24
ENDBRANCH  22  23
ENDBRANCH  20  22
ENDBRANCH  18  19
ENDBRANCH   4  18
TORSDOF 10
ENDMDL
MODEL 7
REMARK VINA RESULT:      -6.9      3.305      7.746
REMARK  Name = NuBBE_423
REMARK  16 active torsions:
REMARK  status: ('A' for Active; 'I' for Inactive)
REMARK    1  A    between atoms: N_3  and  C_4
REMARK    2  A    between atoms: C_4  and  C_5
REMARK    3  A    between atoms: C_6  and  C_7
REMARK    4  A    between atoms: C_6  and  C_8
REMARK    5  A    between atoms: C_8  and  C_9
REMARK    6  A    between atoms: C_9  and  C_10
REMARK    7  A    between atoms: C_11  and  C_12
REMARK    8  A    between atoms: C_11  and  C_13
REMARK    9  A    between atoms: N_14  and  C_15
REMARK   10  A    between atoms: C_15  and  C_16
REMARK   11  A    between atoms: C_17  and  C_18
REMARK   12  A    between atoms: C_17  and  C_24
REMARK   13  A    between atoms: C_18  and  C_19
REMARK   14  A    between atoms: C_19  and  C_20
REMARK   15  A    between atoms: C_21  and  C_22
REMARK   16  A    between atoms: C_21  and  C_23
REMARK                            x       y       z     vdW  Elec       q    Type
REMARK                         _______ _______ _______ _____ _____    ______ ____
ROOT
ATOM      1  N   LIG A   1      -5.114   0.094 130.420  0.00  0.00    -0.130 NA
ATOM      2  C   LIG A   1      -5.197  -0.273 129.181  0.00  0.00    +0.379 C 
ATOM      3  N   LIG A   1      -5.893  -1.375 128.807  0.00  0.00    -0.273 N 
ATOM      4  N   LIG A   1      -4.796   0.626 128.251  0.00  0.00    -0.273 N 
ATOM      5  H   LIG A   1      -5.653  -0.542 131.012  0.00  0.00    +0.306 HD
ATOM      6  H   LIG A   1      -6.538  -1.724 129.508  0.00  0.00    +0.258 HD
ATOM      7  H   LIG A   1      -4.752   1.550 128.668  0.00  0.00    +0.258 HD
ENDROOT
BRANCH   3   8
ATOM      8  C   LIG A   1      -6.226  -1.903 127.510  0.00  0.00    +0.223 C 
BRANCH   8   9
ATOM      9  C   LIG A   1      -7.357  -2.644 127.857  0.00  0.00    +0.009 C 
ATOM     10  C   LIG A   1      -8.555  -2.959 127.195  0.00  0.00    -0.073 C 
ATOM     11  C   LIG A   1      -9.154  -4.036 127.990  0.00  0.00    +0.038 C 
BRANCH  10  12
ATOM     12  C   LIG A   1      -9.074  -2.555 125.845  0.00  0.00    +0.034 C 
BRANCH  12  13
ATOM     13  C   LIG A   1      -8.550  -3.329 124.587  0.00  0.00    +0.031 C 
BRANCH  13  14
ATOM     14  C   LIG A   1      -7.145  -3.888 124.408  0.00  0.00    -0.028 C 
ATOM     15  C   LIG A   1      -6.024  -3.245 124.054  0.00  0.00    -0.080 C 
ATOM     16  C   LIG A   1      -6.047  -1.800 123.830  0.00  0.00    +0.038 C 
ATOM     17  C   LIG A   1      -4.681  -3.868 123.754  0.00  0.00    +0.038 C 
ENDBRANCH  13  14
ENDBRANCH  12  13
ENDBRANCH  10  12
ENDBRANCH   8   9
ENDBRANCH   3   8
BRANCH   4  18
ATOM     18  C   LIG A   1      -5.281   0.678 126.906  0.00  0.00    +0.223 C 
BRANCH  18  19
ATOM     19  C   LIG A   1      -5.718   2.099 126.509  0.00  0.00    +0.009 C 
ATOM     20  C   LIG A   1      -5.060   3.249 126.127  0.00  0.00    -0.073 C 
ATOM     21  C   LIG A   1      -5.804   4.537 126.177  0.00  0.00    +0.038 C 
BRANCH  20  22
ATOM     22  C   LIG A   1      -3.564   3.515 125.897  0.00  0.00    +0.034 C 
BRANCH  22  23
ATOM     23  C   LIG A   1      -2.530   3.280 126.977  0.00  0.00    +0.031 C 
BRANCH  23  24
ATOM     24  C   LIG A   1      -2.370   4.555 127.784  0.00  0.00    -0.028 C 
ATOM     25  C   LIG A   1      -2.915   4.792 128.987  0.00  0.00    -0.080 C 
ATOM     26  C   LIG A   1      -3.704   3.774 129.743  0.00  0.00    +0.038 C 
ATOM     27  C   LIG A   1      -2.761   6.133 129.650  0.00  0.00    +0.038 C 
ENDBRANCH  23  24
ENDBRANCH  22  23
ENDBRANCH  20  22
ENDBRANCH  18  19
ENDBRANCH   4  18
TORSDOF 10
ENDMDL
MODEL 8
REMARK VINA RESULT:      -6.9      3.890      8.244
REMARK  Name = NuBBE_423
REMARK  16 active torsions:
REMARK  status: ('A' for Active; 'I' for Inactive)
REMARK    1  A    between atoms: N_3  and  C_4
REMARK    2  A    between atoms: C_4  and  C_5
REMARK    3  A    between atoms: C_6  and  C_7
REMARK    4  A    between atoms: C_6  and  C_8
REMARK    5  A    between atoms: C_8  and  C_9
REMARK    6  A    between atoms: C_9  and  C_10
REMARK    7  A    between atoms: C_11  and  C_12
REMARK    8  A    between atoms: C_11  and  C_13
REMARK    9  A    between atoms: N_14  and  C_15
REMARK   10  A    between atoms: C_15  and  C_16
REMARK   11  A    between atoms: C_17  and  C_18
REMARK   12  A    between atoms: C_17  and  C_24
REMARK   13  A    between atoms: C_18  and  C_19
REMARK   14  A    between atoms: C_19  and  C_20
REMARK   15  A    between atoms: C_21  and  C_22
REMARK   16  A    between atoms: C_21  and  C_23
REMARK                            x       y       z     vdW  Elec       q    Type
REMARK                         _______ _______ _______ _____ _____    ______ ____
ROOT
ATOM      1  N   LIG A   1      -4.913   0.855 126.102  0.00  0.00    -0.130 NA
ATOM      2  C   LIG A   1      -5.443   0.111 127.020  0.00  0.00    +0.379 C 
ATOM      3  N   LIG A   1      -4.863  -0.045 128.236  0.00  0.00    -0.273 N 
ATOM      4  N   LIG A   1      -6.722  -0.284 126.821  0.00  0.00    -0.273 N 
ATOM      5  H   LIG A   1      -4.055   1.289 126.452  0.00  0.00    +0.306 HD
ATOM      6  H   LIG A   1      -4.155   0.648 128.458  0.00  0.00    +0.258 HD
ATOM      7  H   LIG A   1      -7.151   0.297 126.110  0.00  0.00    +0.258 HD
ENDROOT
BRANCH   3   8
ATOM      8  C   LIG A   1      -5.313  -0.704 129.435  0.00  0.00    +0.223 C 
BRANCH   8   9
ATOM      9  C   LIG A   1      -4.407  -1.765 129.457  0.00  0.00    +0.009 C 
ATOM     10  C   LIG A   1      -4.524  -3.140 129.722  0.00  0.00    -0.073 C 
ATOM     11  C   LIG A   1      -3.265  -3.724 129.250  0.00  0.00    +0.038 C 
BRANCH  10  12
ATOM     12  C   LIG A   1      -5.706  -3.969 130.133  0.00  0.00    +0.034 C 
BRANCH  12  13
ATOM     13  C   LIG A   1      -6.070  -4.039 131.656  0.00  0.00    +0.031 C 
BRANCH  13  14
ATOM     14  C   LIG A   1      -5.561  -5.081 132.644  0.00  0.00    -0.028 C 
ATOM     15  C   LIG A   1      -4.366  -5.154 133.245  0.00  0.00    -0.080 C 
ATOM     16  C   LIG A   1      -3.364  -4.114 133.014  0.00  0.00    +0.038 C 
ATOM     17  C   LIG A   1      -3.857  -6.282 134.110  0.00  0.00    +0.038 C 
ENDBRANCH  13  14
ENDBRANCH  12  13
ENDBRANCH  10  12
ENDBRANCH   8   9
ENDBRANCH   3   8
BRANCH   4  18
ATOM     18  C   LIG A   1      -7.646  -0.608 127.864  0.00  0.00    +0.223 C 
BRANCH  18  19
ATOM     19  C   LIG A   1      -7.903  -2.123 127.952  0.00  0.00    +0.009 C 
ATOM     20  C   LIG A   1      -8.632  -3.030 127.215  0.00  0.00    -0.073 C 
ATOM     21  C   LIG A   1      -8.934  -4.354 127.825  0.00  0.00    +0.038 C 
BRANCH  20  22
ATOM     22  C   LIG A   1      -9.455  -2.845 125.931  0.00  0.00    +0.034 C 
BRANCH  22  23
ATOM     23  C   LIG A   1      -8.803  -2.684 124.574  0.00  0.00    +0.031 C 
BRANCH  23  24
ATOM     24  C   LIG A   1      -7.525  -3.500 124.547  0.00  0.00    -0.028 C 
ATOM     25  C   LIG A   1      -6.348  -3.092 124.049  0.00  0.00    -0.080 C 
ATOM     26  C   LIG A   1      -6.117  -1.715 123.516  0.00  0.00    +0.038 C 
ATOM     27  C   LIG A   1      -5.171  -4.026 123.993  0.00  0.00    +0.038 C 
ENDBRANCH  23  24
ENDBRANCH  22  23
ENDBRANCH  20  22
ENDBRANCH  18  19
ENDBRANCH   4  18
TORSDOF 10
ENDMDL
MODEL 9
REMARK VINA RESULT:      -6.8      2.847      7.188
REMARK  Name = NuBBE_423
REMARK  16 active torsions:
REMARK  status: ('A' for Active; 'I' for Inactive)
REMARK    1  A    between atoms: N_3  and  C_4
REMARK    2  A    between atoms: C_4  and  C_5
REMARK    3  A    between atoms: C_6  and  C_7
REMARK    4  A    between atoms: C_6  and  C_8
REMARK    5  A    between atoms: C_8  and  C_9
REMARK    6  A    between atoms: C_9  and  C_10
REMARK    7  A    between atoms: C_11  and  C_12
REMARK    8  A    between atoms: C_11  and  C_13
REMARK    9  A    between atoms: N_14  and  C_15
REMARK   10  A    between atoms: C_15  and  C_16
REMARK   11  A    between atoms: C_17  and  C_18
REMARK   12  A    between atoms: C_17  and  C_24
REMARK   13  A    between atoms: C_18  and  C_19
REMARK   14  A    between atoms: C_19  and  C_20
REMARK   15  A    between atoms: C_21  and  C_22
REMARK   16  A    between atoms: C_21  and  C_23
REMARK                            x       y       z     vdW  Elec       q    Type
REMARK                         _______ _______ _______ _____ _____    ______ ____
ROOT
ATOM      1  N   LIG A   1      -6.943   2.165 122.995  0.00  0.00    -0.130 NA
ATOM      2  C   LIG A   1      -7.594   1.130 123.421  0.00  0.00    +0.379 C 
ATOM      3  N   LIG A   1      -7.367  -0.111 122.922  0.00  0.00    -0.273 N 
ATOM      4  N   LIG A   1      -8.308   1.285 124.561  0.00  0.00    -0.273 N 
ATOM      5  H   LIG A   1      -6.261   1.886 122.286  0.00  0.00    +0.306 HD
ATOM      6  H   LIG A   1      -6.499  -0.206 122.406  0.00  0.00    +0.258 HD
ATOM      7  H   LIG A   1      -7.995   2.117 125.047  0.00  0.00    +0.258 HD
ENDROOT
BRANCH   3   8
ATOM      8  C   LIG A   1      -7.863  -1.405 123.313  0.00  0.00    +0.223 C 
BRANCH   8   9
ATOM      9  C   LIG A   1      -6.667  -2.123 123.267  0.00  0.00    +0.009 C 
ATOM     10  C   LIG A   1      -5.563  -2.231 124.130  0.00  0.00    -0.073 C 
ATOM     11  C   LIG A   1      -4.817  -3.395 123.643  0.00  0.00    +0.038 C 
BRANCH  10  12
ATOM     12  C   LIG A   1      -5.257  -1.550 125.432  0.00  0.00    +0.034 C 
BRANCH  12  13
ATOM     13  C   LIG A   1      -5.898  -2.129 126.740  0.00  0.00    +0.031 C 
BRANCH  13  14
ATOM     14  C   LIG A   1      -7.245  -2.833 126.834  0.00  0.00    -0.028 C 
ATOM     15  C   LIG A   1      -7.957  -3.144 127.926  0.00  0.00    -0.080 C 
ATOM     16  C   LIG A   1      -7.474  -2.754 129.251  0.00  0.00    +0.038 C 
ATOM     17  C   LIG A   1      -9.221  -3.967 127.977  0.00  0.00    +0.038 C 
ENDBRANCH  13  14
ENDBRANCH  12  13
ENDBRANCH  10  12
ENDBRANCH   8   9
ENDBRANCH   3   8
BRANCH   4  18
ATOM     18  C   LIG A   1      -8.626   0.230 125.473  0.00  0.00    +0.223 C 
BRANCH  18  19
ATOM     19  C   LIG A   1      -8.499   0.682 126.938  0.00  0.00    +0.009 C 
ATOM     20  C   LIG A   1      -7.467   1.138 127.730  0.00  0.00    -0.073 C 
ATOM     21  C   LIG A   1      -7.654   1.129 129.207  0.00  0.00    +0.038 C 
BRANCH  20  22
ATOM     22  C   LIG A   1      -5.996   1.424 127.389  0.00  0.00    +0.034 C 
BRANCH  22  23
ATOM     23  C   LIG A   1      -5.567   2.694 126.686  0.00  0.00    +0.031 C 
BRANCH  23  24
ATOM     24  C   LIG A   1      -4.091   2.590 126.351  0.00  0.00    -0.028 C 
ATOM     25  C   LIG A   1      -3.085   3.081 127.091  0.00  0.00    -0.080 C 
ATOM     26  C   LIG A   1      -3.289   3.739 128.417  0.00  0.00    +0.038 C 
ATOM     27  C   LIG A   1      -1.663   2.998 126.607  0.00  0.00    +0.038 C 
ENDBRANCH  23  24
ENDBRANCH  22  23
ENDBRANCH  20  22
ENDBRANCH  18  19
ENDBRANCH   4  18
TORSDOF 10
ENDMDL
