MODEL 1
REMARK VINA RESULT:      -7.6      0.000      0.000
REMARK  Name = NuBBE_973
REMARK  9 active torsions:
REMARK  status: ('A' for Active; 'I' for Inactive)
REMARK    1  A    between atoms: C_2  and  C_19
REMARK    2  A    between atoms: N_3  and  C_4
REMARK    3  A    between atoms: C_4  and  C_5
REMARK    4  A    between atoms: C_5  and  C_6
REMARK    5  A    between atoms: C_9  and  O_10
REMARK    6  A    between atoms: O_10  and  C_11
REMARK    7  A    between atoms: C_11  and  C_12
REMARK    8  A    between atoms: C_12  and  C_13
REMARK    9  A    between atoms: C_13  and  C_14
REMARK                            x       y       z     vdW  Elec       q    Type
REMARK                         _______ _______ _______ _____ _____    ______ ____
ROOT
ATOM      1  C   LIG A   1      -8.539   4.681 134.345  0.00  0.00    +0.054 C 
ENDROOT
BRANCH   1   2
ATOM      2  C   LIG A   1      -8.727   5.516 133.104  0.00  0.00    -0.046 A 
ATOM      3  C   LIG A   1     -10.005   5.771 132.591  0.00  0.00    +0.007 A 
ATOM      4  C   LIG A   1     -10.158   6.496 131.406  0.00  0.00    +0.046 A 
ATOM      5  C   LIG A   1      -9.039   6.949 130.704  0.00  0.00    +0.120 A 
ATOM      6  C   LIG A   1      -7.769   6.745 131.240  0.00  0.00    +0.046 A 
ATOM      7  C   LIG A   1      -7.613   6.023 132.426  0.00  0.00    +0.007 A 
BRANCH   5   8
ATOM      8  O   LIG A   1      -9.299   7.601 129.529  0.00  0.00    -0.491 OA
BRANCH   8   9
ATOM      9  C   LIG A   1     -10.550   7.301 128.896  0.00  0.00    +0.236 C 
BRANCH   9  10
ATOM     10  C   LIG A   1     -11.079   8.575 128.254  0.00  0.00    +0.115 C 
BRANCH  10  11
ATOM     11  C   LIG A   1     -12.571   8.733 128.453  0.00  0.00    +0.134 C 
ATOM     12  C   LIG A   1     -13.439   7.626 127.912  0.00  0.00    +0.086 C 
ATOM     13  O   LIG A   1     -13.063   9.696 129.039  0.00  0.00    -0.298 OA
ENDBRANCH  10  11
ENDBRANCH   9  10
ENDBRANCH   8   9
ENDBRANCH   5   8
ENDBRANCH   1   2
BRANCH   1  14
ATOM     14  C   LIG A   1      -7.535   5.312 135.309  0.00  0.00    +0.109 C 
BRANCH  14  17
ATOM     15  O   LIG A   1      -7.039   6.028 138.012  0.00  0.00    -0.270 OA
ATOM     16  C   LIG A   1      -7.806   6.700 137.342  0.00  0.00    +0.244 C 
ATOM     17  N   LIG A   1      -8.107   6.439 136.017  0.00  0.00    -0.311 N 
ATOM     18  H   LIG A   1      -8.593   7.138 135.473  0.00  0.00    +0.149 HD
BRANCH  16  19
ATOM     19  C   LIG A   1      -8.478   7.898 137.919  0.00  0.00    +0.037 A 
ATOM     20  C   LIG A   1      -7.851   8.614 138.946  0.00  0.00    +0.013 A 
ATOM     21  C   LIG A   1      -8.484   9.730 139.501  0.00  0.00    +0.001 A 
ATOM     22  C   LIG A   1      -9.739  10.127 139.035  0.00  0.00    +0.000 A 
ATOM     23  C   LIG A   1     -10.366   9.413 138.016  0.00  0.00    +0.001 A 
ATOM     24  C   LIG A   1      -9.741   8.297 137.463  0.00  0.00    +0.013 A 
ENDBRANCH  16  19
ENDBRANCH  14  17
ENDBRANCH   1  14
TORSDOF 8
ENDMDL
MODEL 2
REMARK VINA RESULT:      -7.2      4.352      7.833
REMARK  Name = NuBBE_973
REMARK  9 active torsions:
REMARK  status: ('A' for Active; 'I' for Inactive)
REMARK    1  A    between atoms: C_2  and  C_19
REMARK    2  A    between atoms: N_3  and  C_4
REMARK    3  A    between atoms: C_4  and  C_5
REMARK    4  A    between atoms: C_5  and  C_6
REMARK    5  A    between atoms: C_9  and  O_10
REMARK    6  A    between atoms: O_10  and  C_11
REMARK    7  A    between atoms: C_11  and  C_12
REMARK    8  A    between atoms: C_12  and  C_13
REMARK    9  A    between atoms: C_13  and  C_14
REMARK                            x       y       z     vdW  Elec       q    Type
REMARK                         _______ _______ _______ _____ _____    ______ ____
ROOT
ATOM      1  C   LIG A   1      -6.204   6.152 132.303  0.00  0.00    +0.054 C 
ENDROOT
BRANCH   1   2
ATOM      2  C   LIG A   1      -7.665   6.241 131.942  0.00  0.00    -0.046 A 
ATOM      3  C   LIG A   1      -8.082   6.882 130.768  0.00  0.00    +0.007 A 
ATOM      4  C   LIG A   1      -9.444   7.010 130.480  0.00  0.00    +0.046 A 
ATOM      5  C   LIG A   1     -10.404   6.527 131.371  0.00  0.00    +0.120 A 
ATOM      6  C   LIG A   1      -9.992   5.841 132.512  0.00  0.00    +0.046 A 
ATOM      7  C   LIG A   1      -8.632   5.709 132.802  0.00  0.00    +0.007 A 
BRANCH   5   8
ATOM      8  O   LIG A   1     -11.707   6.751 131.018  0.00  0.00    -0.491 OA
BRANCH   8   9
ATOM      9  C   LIG A   1     -12.104   6.294 129.718  0.00  0.00    +0.236 C 
BRANCH   9  10
ATOM     10  C   LIG A   1     -13.207   7.208 129.206  0.00  0.00    +0.115 C 
BRANCH  10  11
ATOM     11  C   LIG A   1     -12.653   8.478 128.598  0.00  0.00    +0.134 C 
ATOM     12  C   LIG A   1     -11.468   8.319 127.680  0.00  0.00    +0.086 C 
ATOM     13  O   LIG A   1     -13.141   9.586 128.816  0.00  0.00    -0.298 OA
ENDBRANCH  10  11
ENDBRANCH   9  10
ENDBRANCH   8   9
ENDBRANCH   5   8
ENDBRANCH   1   2
BRANCH   1  14
ATOM     14  C   LIG A   1      -5.320   6.860 131.275  0.00  0.00    +0.109 C 
BRANCH  14  17
ATOM     15  O   LIG A   1      -4.048   7.579 128.840  0.00  0.00    -0.270 OA
ATOM     16  C   LIG A   1      -4.258   6.403 129.086  0.00  0.00    +0.244 C 
ATOM     17  N   LIG A   1      -4.862   5.950 130.245  0.00  0.00    -0.311 N 
ATOM     18  H   LIG A   1      -4.832   4.965 130.467  0.00  0.00    +0.149 HD
BRANCH  16  19
ATOM     19  C   LIG A   1      -3.846   5.337 128.129  0.00  0.00    +0.037 A 
ATOM     20  C   LIG A   1      -2.588   4.737 128.262  0.00  0.00    +0.013 A 
ATOM     21  C   LIG A   1      -2.192   3.747 127.358  0.00  0.00    +0.001 A 
ATOM     22  C   LIG A   1      -3.046   3.360 126.324  0.00  0.00    +0.000 A 
ATOM     23  C   LIG A   1      -4.297   3.958 126.188  0.00  0.00    +0.001 A 
ATOM     24  C   LIG A   1      -4.695   4.949 127.084  0.00  0.00    +0.013 A 
ENDBRANCH  16  19
ENDBRANCH  14  17
ENDBRANCH   1  14
TORSDOF 8
ENDMDL
MODEL 3
REMARK VINA RESULT:      -7.2      4.267      7.888
REMARK  Name = NuBBE_973
REMARK  9 active torsions:
REMARK  status: ('A' for Active; 'I' for Inactive)
REMARK    1  A    between atoms: C_2  and  C_19
REMARK    2  A    between atoms: N_3  and  C_4
REMARK    3  A    between atoms: C_4  and  C_5
REMARK    4  A    between atoms: C_5  and  C_6
REMARK    5  A    between atoms: C_9  and  O_10
REMARK    6  A    between atoms: O_10  and  C_11
REMARK    7  A    between atoms: C_11  and  C_12
REMARK    8  A    between atoms: C_12  and  C_13
REMARK    9  A    between atoms: C_13  and  C_14
REMARK                            x       y       z     vdW  Elec       q    Type
REMARK                         _______ _______ _______ _____ _____    ______ ____
ROOT
ATOM      1  C   LIG A   1      -9.138   5.880 132.818  0.00  0.00    +0.054 C 
ENDROOT
BRANCH   1   2
ATOM      2  C   LIG A   1      -7.702   6.078 132.403  0.00  0.00    -0.046 A 
ATOM      3  C   LIG A   1      -6.649   5.585 133.184  0.00  0.00    +0.007 A 
ATOM      4  C   LIG A   1      -5.323   5.830 132.816  0.00  0.00    +0.046 A 
ATOM      5  C   LIG A   1      -5.032   6.593 131.684  0.00  0.00    +0.120 A 
ATOM      6  C   LIG A   1      -6.076   7.039 130.875  0.00  0.00    +0.046 A 
ATOM      7  C   LIG A   1      -7.403   6.793 131.238  0.00  0.00    +0.007 A 
BRANCH   5   8
ATOM      8  O   LIG A   1      -3.704   6.818 131.444  0.00  0.00    -0.491 OA
BRANCH   8   9
ATOM      9  C   LIG A   1      -3.377   7.429 130.188  0.00  0.00    +0.236 C 
BRANCH   9  10
ATOM     10  C   LIG A   1      -2.481   6.474 129.412  0.00  0.00    +0.115 C 
BRANCH  10  11
ATOM     11  C   LIG A   1      -3.178   5.908 128.194  0.00  0.00    +0.134 C 
ATOM     12  C   LIG A   1      -2.608   4.632 127.630  0.00  0.00    +0.086 C 
ATOM     13  O   LIG A   1      -4.168   6.437 127.691  0.00  0.00    -0.298 OA
ENDBRANCH  10  11
ENDBRANCH   9  10
ENDBRANCH   8   9
ENDBRANCH   5   8
ENDBRANCH   1   2
BRANCH   1  14
ATOM     14  C   LIG A   1      -9.944   5.146 131.747  0.00  0.00    +0.109 C 
BRANCH  14  17
ATOM     15  O   LIG A   1     -10.061   5.625 128.950  0.00  0.00    -0.270 OA
ATOM     16  C   LIG A   1     -10.835   6.204 129.694  0.00  0.00    +0.244 C 
ATOM     17  N   LIG A   1     -10.865   6.034 131.066  0.00  0.00    -0.311 N 
ATOM     18  H   LIG A   1     -11.648   6.393 131.593  0.00  0.00    +0.149 HD
BRANCH  16  19
ATOM     19  C   LIG A   1     -11.849   7.152 129.152  0.00  0.00    +0.037 A 
ATOM     20  C   LIG A   1     -11.895   8.465 129.637  0.00  0.00    +0.013 A 
ATOM     21  C   LIG A   1     -12.854   9.355 129.143  0.00  0.00    +0.001 A 
ATOM     22  C   LIG A   1     -13.765   8.934 128.172  0.00  0.00    +0.000 A 
ATOM     23  C   LIG A   1     -13.723   7.626 127.692  0.00  0.00    +0.001 A 
ATOM     24  C   LIG A   1     -12.772   6.735 128.185  0.00  0.00    +0.013 A 
ENDBRANCH  16  19
ENDBRANCH  14  17
ENDBRANCH   1  14
TORSDOF 8
ENDMDL
MODEL 4
REMARK VINA RESULT:      -7.0      6.064      9.178
REMARK  Name = NuBBE_973
REMARK  9 active torsions:
REMARK  status: ('A' for Active; 'I' for Inactive)
REMARK    1  A    between atoms: C_2  and  C_19
REMARK    2  A    between atoms: N_3  and  C_4
REMARK    3  A    between atoms: C_4  and  C_5
REMARK    4  A    between atoms: C_5  and  C_6
REMARK    5  A    between atoms: C_9  and  O_10
REMARK    6  A    between atoms: O_10  and  C_11
REMARK    7  A    between atoms: C_11  and  C_12
REMARK    8  A    between atoms: C_12  and  C_13
REMARK    9  A    between atoms: C_13  and  C_14
REMARK                            x       y       z     vdW  Elec       q    Type
REMARK                         _______ _______ _______ _____ _____    ______ ____
ROOT
ATOM      1  C   LIG A   1      -9.438   3.784 130.267  0.00  0.00    +0.054 C 
ENDROOT
BRANCH   1   2
ATOM      2  C   LIG A   1      -9.002   2.357 130.487  0.00  0.00    -0.046 A 
ATOM      3  C   LIG A   1      -8.200   1.694 129.550  0.00  0.00    +0.007 A 
ATOM      4  C   LIG A   1      -7.856   0.353 129.740  0.00  0.00    +0.046 A 
ATOM      5  C   LIG A   1      -8.330  -0.349 130.850  0.00  0.00    +0.120 A 
ATOM      6  C   LIG A   1      -9.082   0.323 131.812  0.00  0.00    +0.046 A 
ATOM      7  C   LIG A   1      -9.426   1.664 131.626  0.00  0.00    +0.007 A 
BRANCH   5   8
ATOM      8  O   LIG A   1      -7.978  -1.670 130.913  0.00  0.00    -0.491 OA
BRANCH   8   9
ATOM      9  C   LIG A   1      -7.162  -2.164 129.842  0.00  0.00    +0.236 C 
BRANCH   9  10
ATOM     10  C   LIG A   1      -7.825  -3.408 129.270  0.00  0.00    +0.115 C 
BRANCH  10  11
ATOM     11  C   LIG A   1      -8.307  -3.192 127.852  0.00  0.00    +0.134 C 
ATOM     12  C   LIG A   1      -7.560  -2.163 127.041  0.00  0.00    +0.086 C 
ATOM     13  O   LIG A   1      -9.243  -3.825 127.365  0.00  0.00    -0.298 OA
ENDBRANCH  10  11
ENDBRANCH   9  10
ENDBRANCH   8   9
ENDBRANCH   5   8
ENDBRANCH   1   2
BRANCH   1  14
ATOM     14  C   LIG A   1     -10.896   4.002 130.671  0.00  0.00    +0.109 C 
BRANCH  14  17
ATOM     15  O   LIG A   1     -12.129   6.276 131.845  0.00  0.00    -0.270 OA
ATOM     16  C   LIG A   1     -12.073   6.181 130.630  0.00  0.00    +0.244 C 
ATOM     17  N   LIG A   1     -11.488   5.119 129.963  0.00  0.00    -0.311 N 
ATOM     18  H   LIG A   1     -11.307   5.196 128.972  0.00  0.00    +0.149 HD
BRANCH  16  19
ATOM     19  C   LIG A   1     -12.633   7.247 129.753  0.00  0.00    +0.037 A 
ATOM     20  C   LIG A   1     -12.494   8.590 130.123  0.00  0.00    +0.013 A 
ATOM     21  C   LIG A   1     -13.031   9.593 129.311  0.00  0.00    +0.001 A 
ATOM     22  C   LIG A   1     -13.707   9.257 128.137  0.00  0.00    +0.000 A 
ATOM     23  C   LIG A   1     -13.850   7.920 127.769  0.00  0.00    +0.001 A 
ATOM     24  C   LIG A   1     -13.321   6.917 128.578  0.00  0.00    +0.013 A 
ENDBRANCH  16  19
ENDBRANCH  14  17
ENDBRANCH   1  14
TORSDOF 8
ENDMDL
MODEL 5
REMARK VINA RESULT:      -7.0     11.443     14.605
REMARK  Name = NuBBE_973
REMARK  9 active torsions:
REMARK  status: ('A' for Active; 'I' for Inactive)
REMARK    1  A    between atoms: C_2  and  C_19
REMARK    2  A    between atoms: N_3  and  C_4
REMARK    3  A    between atoms: C_4  and  C_5
REMARK    4  A    between atoms: C_5  and  C_6
REMARK    5  A    between atoms: C_9  and  O_10
REMARK    6  A    between atoms: O_10  and  C_11
REMARK    7  A    between atoms: C_11  and  C_12
REMARK    8  A    between atoms: C_12  and  C_13
REMARK    9  A    between atoms: C_13  and  C_14
REMARK                            x       y       z     vdW  Elec       q    Type
REMARK                         _______ _______ _______ _____ _____    ______ ____
ROOT
ATOM      1  C   LIG A   1      -7.045  -0.137 123.353  0.00  0.00    +0.054 C 
ENDROOT
BRANCH   1   2
ATOM      2  C   LIG A   1      -7.264  -0.988 124.578  0.00  0.00    -0.046 A 
ATOM      3  C   LIG A   1      -8.555  -1.262 125.047  0.00  0.00    +0.007 A 
ATOM      4  C   LIG A   1      -8.739  -2.001 126.219  0.00  0.00    +0.046 A 
ATOM      5  C   LIG A   1      -7.639  -2.449 126.952  0.00  0.00    +0.120 A 
ATOM      6  C   LIG A   1      -6.354  -2.226 126.460  0.00  0.00    +0.046 A 
ATOM      7  C   LIG A   1      -6.167  -1.490 125.287  0.00  0.00    +0.007 A 
BRANCH   5   8
ATOM      8  O   LIG A   1      -7.929  -3.116 128.111  0.00  0.00    -0.491 OA
BRANCH   8   9
ATOM      9  C   LIG A   1      -7.890  -2.344 129.319  0.00  0.00    +0.236 C 
BRANCH   9  10
ATOM     10  C   LIG A   1      -7.414  -3.246 130.448  0.00  0.00    +0.115 C 
BRANCH  10  11
ATOM     11  C   LIG A   1      -5.960  -3.632 130.290  0.00  0.00    +0.134 C 
ATOM     12  C   LIG A   1      -5.567  -4.989 130.814  0.00  0.00    +0.086 C 
ATOM     13  O   LIG A   1      -5.133  -2.898 129.749  0.00  0.00    -0.298 OA
ENDBRANCH  10  11
ENDBRANCH   9  10
ENDBRANCH   8   9
ENDBRANCH   5   8
ENDBRANCH   1   2
BRANCH   1  14
ATOM     14  C   LIG A   1      -7.230   1.350 123.652  0.00  0.00    +0.109 C 
BRANCH  14  17
ATOM     15  O   LIG A   1      -5.704   3.728 123.359  0.00  0.00    -0.270 OA
ATOM     16  C   LIG A   1      -6.351   3.307 122.415  0.00  0.00    +0.244 C 
ATOM     17  N   LIG A   1      -7.118   2.156 122.453  0.00  0.00    -0.311 N 
ATOM     18  H   LIG A   1      -7.470   1.766 121.590  0.00  0.00    +0.149 HD
BRANCH  16  19
ATOM     19  C   LIG A   1      -6.344   4.018 121.105  0.00  0.00    +0.037 A 
ATOM     20  C   LIG A   1      -7.427   3.867 120.231  0.00  0.00    +0.013 A 
ATOM     21  C   LIG A   1      -7.418   4.521 118.995  0.00  0.00    +0.001 A 
ATOM     22  C   LIG A   1      -6.331   5.319 118.633  0.00  0.00    +0.000 A 
ATOM     23  C   LIG A   1      -5.251   5.467 119.500  0.00  0.00    +0.001 A 
ATOM     24  C   LIG A   1      -5.253   4.814 120.731  0.00  0.00    +0.013 A 
ENDBRANCH  16  19
ENDBRANCH  14  17
ENDBRANCH   1  14
TORSDOF 8
ENDMDL
MODEL 6
REMARK VINA RESULT:      -7.0      5.226      8.300
REMARK  Name = NuBBE_973
REMARK  9 active torsions:
REMARK  status: ('A' for Active; 'I' for Inactive)
REMARK    1  A    between atoms: C_2  and  C_19
REMARK    2  A    between atoms: N_3  and  C_4
REMARK    3  A    between atoms: C_4  and  C_5
REMARK    4  A    between atoms: C_5  and  C_6
REMARK    5  A    between atoms: C_9  and  O_10
REMARK    6  A    between atoms: O_10  and  C_11
REMARK    7  A    between atoms: C_11  and  C_12
REMARK    8  A    between atoms: C_12  and  C_13
REMARK    9  A    between atoms: C_13  and  C_14
REMARK                            x       y       z     vdW  Elec       q    Type
REMARK                         _______ _______ _______ _____ _____    ______ ____
ROOT
ATOM      1  C   LIG A   1      -9.074   4.214 133.739  0.00  0.00    +0.054 C 
ENDROOT
BRANCH   1   2
ATOM      2  C   LIG A   1      -8.807   2.875 133.099  0.00  0.00    -0.046 A 
ATOM      3  C   LIG A   1      -9.795   2.221 132.352  0.00  0.00    +0.007 A 
ATOM      4  C   LIG A   1      -9.551   0.953 131.818  0.00  0.00    +0.046 A 
ATOM      5  C   LIG A   1      -8.333   0.311 132.047  0.00  0.00    +0.120 A 
ATOM      6  C   LIG A   1      -7.328   0.981 132.743  0.00  0.00    +0.046 A 
ATOM      7  C   LIG A   1      -7.568   2.250 133.276  0.00  0.00    +0.007 A 
BRANCH   5   8
ATOM      8  O   LIG A   1      -8.218  -0.949 131.525  0.00  0.00    -0.491 OA
BRANCH   8   9
ATOM      9  C   LIG A   1      -7.819  -1.036 130.150  0.00  0.00    +0.236 C 
BRANCH   9  10
ATOM     10  C   LIG A   1      -7.691  -2.507 129.781  0.00  0.00    +0.115 C 
BRANCH  10  11
ATOM     11  C   LIG A   1      -7.988  -2.752 128.318  0.00  0.00    +0.134 C 
ATOM     12  C   LIG A   1      -8.876  -3.928 128.003  0.00  0.00    +0.086 C 
ATOM     13  O   LIG A   1      -7.552  -2.029 127.422  0.00  0.00    -0.298 OA
ENDBRANCH  10  11
ENDBRANCH   9  10
ENDBRANCH   8   9
ENDBRANCH   5   8
ENDBRANCH   1   2
BRANCH   1  14
ATOM     14  C   LIG A   1      -8.492   5.364 132.916  0.00  0.00    +0.109 C 
BRANCH  14  17
ATOM     15  O   LIG A   1      -8.180   6.450 130.310  0.00  0.00    -0.270 OA
ATOM     16  C   LIG A   1      -9.257   6.540 130.876  0.00  0.00    +0.244 C 
ATOM     17  N   LIG A   1      -9.513   6.038 132.139  0.00  0.00    -0.311 N 
ATOM     18  H   LIG A   1     -10.467   5.977 132.464  0.00  0.00    +0.149 HD
BRANCH  16  19
ATOM     19  C   LIG A   1     -10.415   7.203 130.212  0.00  0.00    +0.037 A 
ATOM     20  C   LIG A   1     -11.693   7.084 130.772  0.00  0.00    +0.013 A 
ATOM     21  C   LIG A   1     -12.785   7.693 130.146  0.00  0.00    +0.001 A 
ATOM     22  C   LIG A   1     -12.602   8.413 128.964  0.00  0.00    +0.000 A 
ATOM     23  C   LIG A   1     -11.331   8.530 128.404  0.00  0.00    +0.001 A 
ATOM     24  C   LIG A   1     -10.241   7.921 129.022  0.00  0.00    +0.013 A 
ENDBRANCH  16  19
ENDBRANCH  14  17
ENDBRANCH   1  14
TORSDOF 8
ENDMDL
MODEL 7
REMARK VINA RESULT:      -7.0     11.388     14.273
REMARK  Name = NuBBE_973
REMARK  9 active torsions:
REMARK  status: ('A' for Active; 'I' for Inactive)
REMARK    1  A    between atoms: C_2  and  C_19
REMARK    2  A    between atoms: N_3  and  C_4
REMARK    3  A    between atoms: C_4  and  C_5
REMARK    4  A    between atoms: C_5  and  C_6
REMARK    5  A    between atoms: C_9  and  O_10
REMARK    6  A    between atoms: O_10  and  C_11
REMARK    7  A    between atoms: C_11  and  C_12
REMARK    8  A    between atoms: C_12  and  C_13
REMARK    9  A    between atoms: C_13  and  C_14
REMARK                            x       y       z     vdW  Elec       q    Type
REMARK                         _______ _______ _______ _____ _____    ______ ____
ROOT
ATOM      1  C   LIG A   1      -8.743  -1.229 124.626  0.00  0.00    +0.054 C 
ENDROOT
BRANCH   1   2
ATOM      2  C   LIG A   1      -8.411  -1.918 125.926  0.00  0.00    -0.046 A 
ATOM      3  C   LIG A   1      -9.140  -3.034 126.358  0.00  0.00    +0.007 A 
ATOM      4  C   LIG A   1      -8.860  -3.623 127.594  0.00  0.00    +0.046 A 
ATOM      5  C   LIG A   1      -7.872  -3.091 128.425  0.00  0.00    +0.120 A 
ATOM      6  C   LIG A   1      -7.109  -2.015 127.974  0.00  0.00    +0.046 A 
ATOM      7  C   LIG A   1      -7.384  -1.425 126.738  0.00  0.00    +0.007 A 
BRANCH   5   8
ATOM      8  O   LIG A   1      -7.715  -3.711 129.634  0.00  0.00    -0.491 OA
BRANCH   8   9
ATOM      9  C   LIG A   1      -6.640  -3.239 130.459  0.00  0.00    +0.236 C 
BRANCH   9  10
ATOM     10  C   LIG A   1      -5.609  -4.351 130.583  0.00  0.00    +0.115 C 
BRANCH  10  11
ATOM     11  C   LIG A   1      -4.196  -3.834 130.424  0.00  0.00    +0.134 C 
ATOM     12  C   LIG A   1      -3.773  -3.462 129.026  0.00  0.00    +0.086 C 
ATOM     13  O   LIG A   1      -3.427  -3.700 131.376  0.00  0.00    -0.298 OA
ENDBRANCH  10  11
ENDBRANCH   9  10
ENDBRANCH   8   9
ENDBRANCH   5   8
ENDBRANCH   1   2
BRANCH   1  14
ATOM     14  C   LIG A   1      -9.174   0.221 124.845  0.00  0.00    +0.109 C 
BRANCH  14  17
ATOM     15  O   LIG A   1      -6.987   2.021 124.631  0.00  0.00    -0.270 OA
ATOM     16  C   LIG A   1      -7.767   1.906 123.700  0.00  0.00    +0.244 C 
ATOM     17  N   LIG A   1      -8.856   1.053 123.702  0.00  0.00    -0.311 N 
ATOM     18  H   LIG A   1      -9.342   0.868 122.836  0.00  0.00    +0.149 HD
BRANCH  16  19
ATOM     19  C   LIG A   1      -7.580   2.690 122.446  0.00  0.00    +0.037 A 
ATOM     20  C   LIG A   1      -8.702   3.137 121.738  0.00  0.00    +0.013 A 
ATOM     21  C   LIG A   1      -8.533   3.861 120.554  0.00  0.00    +0.001 A 
ATOM     22  C   LIG A   1      -7.249   4.134 120.077  0.00  0.00    +0.000 A 
ATOM     23  C   LIG A   1      -6.132   3.686 120.779  0.00  0.00    +0.001 A 
ATOM     24  C   LIG A   1      -6.296   2.961 121.957  0.00  0.00    +0.013 A 
ENDBRANCH  16  19
ENDBRANCH  14  17
ENDBRANCH   1  14
TORSDOF 8
ENDMDL
MODEL 8
REMARK VINA RESULT:      -6.9      9.344     13.564
REMARK  Name = NuBBE_973
REMARK  9 active torsions:
REMARK  status: ('A' for Active; 'I' for Inactive)
REMARK    1  A    between atoms: C_2  and  C_19
REMARK    2  A    between atoms: N_3  and  C_4
REMARK    3  A    between atoms: C_4  and  C_5
REMARK    4  A    between atoms: C_5  and  C_6
REMARK    5  A    between atoms: C_9  and  O_10
REMARK    6  A    between atoms: O_10  and  C_11
REMARK    7  A    between atoms: C_11  and  C_12
REMARK    8  A    between atoms: C_12  and  C_13
REMARK    9  A    between atoms: C_13  and  C_14
REMARK                            x       y       z     vdW  Elec       q    Type
REMARK                         _______ _______ _______ _____ _____    ______ ____
ROOT
ATOM      1  C   LIG A   1      -9.010   2.460 122.992  0.00  0.00    +0.054 C 
ENDROOT
BRANCH   1   2
ATOM      2  C   LIG A   1      -8.074   3.280 123.843  0.00  0.00    -0.046 A 
ATOM      3  C   LIG A   1      -6.787   3.606 123.393  0.00  0.00    +0.007 A 
ATOM      4  C   LIG A   1      -5.910   4.315 124.219  0.00  0.00    +0.046 A 
ATOM      5  C   LIG A   1      -6.294   4.681 125.510  0.00  0.00    +0.120 A 
ATOM      6  C   LIG A   1      -7.591   4.406 125.940  0.00  0.00    +0.046 A 
ATOM      7  C   LIG A   1      -8.471   3.700 125.117  0.00  0.00    +0.007 A 
BRANCH   5   8
ATOM      8  O   LIG A   1      -5.341   5.323 126.253  0.00  0.00    -0.491 OA
BRANCH   8   9
ATOM      9  C   LIG A   1      -4.970   4.702 127.491  0.00  0.00    +0.236 C 
BRANCH   9  10
ATOM     10  C   LIG A   1      -4.059   3.524 127.181  0.00  0.00    +0.115 C 
BRANCH  10  11
ATOM     11  C   LIG A   1      -2.596   3.912 127.230  0.00  0.00    +0.134 C 
ATOM     12  C   LIG A   1      -1.642   3.023 126.474  0.00  0.00    +0.086 C 
ATOM     13  O   LIG A   1      -2.194   4.905 127.835  0.00  0.00    -0.298 OA
ENDBRANCH  10  11
ENDBRANCH   9  10
ENDBRANCH   8   9
ENDBRANCH   5   8
ENDBRANCH   1   2
BRANCH   1  14
ATOM     14  C   LIG A   1      -9.560   1.253 123.753  0.00  0.00    +0.109 C 
BRANCH  14  17
ATOM     15  O   LIG A   1      -9.781  -1.388 122.733  0.00  0.00    -0.270 OA
ATOM     16  C   LIG A   1      -8.779  -1.061 123.347  0.00  0.00    +0.244 C 
ATOM     17  N   LIG A   1      -8.572   0.201 123.875  0.00  0.00    -0.311 N 
ATOM     18  H   LIG A   1      -7.650   0.457 124.200  0.00  0.00    +0.149 HD
BRANCH  16  19
ATOM     19  C   LIG A   1      -7.664  -2.026 123.559  0.00  0.00    +0.037 A 
ATOM     20  C   LIG A   1      -6.435  -1.814 122.922  0.00  0.00    +0.013 A 
ATOM     21  C   LIG A   1      -5.391  -2.724 123.107  0.00  0.00    +0.001 A 
ATOM     22  C   LIG A   1      -5.573  -3.844 123.921  0.00  0.00    +0.000 A 
ATOM     23  C   LIG A   1      -6.797  -4.059 124.553  0.00  0.00    +0.001 A 
ATOM     24  C   LIG A   1      -7.842  -3.156 124.368  0.00  0.00    +0.013 A 
ENDBRANCH  16  19
ENDBRANCH  14  17
ENDBRANCH   1  14
TORSDOF 8
ENDMDL
MODEL 9
REMARK VINA RESULT:      -6.9      2.428      8.118
REMARK  Name = NuBBE_973
REMARK  9 active torsions:
REMARK  status: ('A' for Active; 'I' for Inactive)
REMARK    1  A    between atoms: C_2  and  C_19
REMARK    2  A    between atoms: N_3  and  C_4
REMARK    3  A    between atoms: C_4  and  C_5
REMARK    4  A    between atoms: C_5  and  C_6
REMARK    5  A    between atoms: C_9  and  O_10
REMARK    6  A    between atoms: O_10  and  C_11
REMARK    7  A    between atoms: C_11  and  C_12
REMARK    8  A    between atoms: C_12  and  C_13
REMARK    9  A    between atoms: C_13  and  C_14
REMARK                            x       y       z     vdW  Elec       q    Type
REMARK                         _______ _______ _______ _____ _____    ______ ____
ROOT
ATOM      1  C   LIG A   1      -9.086   4.256 130.721  0.00  0.00    +0.054 C 
ENDROOT
BRANCH   1   2
ATOM      2  C   LIG A   1      -8.603   4.569 132.115  0.00  0.00    -0.046 A 
ATOM      3  C   LIG A   1      -7.566   5.485 132.332  0.00  0.00    +0.007 A 
ATOM      4  C   LIG A   1      -7.089   5.717 133.625  0.00  0.00    +0.046 A 
ATOM      5  C   LIG A   1      -7.620   5.019 134.711  0.00  0.00    +0.120 A 
ATOM      6  C   LIG A   1      -8.688   4.148 134.506  0.00  0.00    +0.046 A 
ATOM      7  C   LIG A   1      -9.169   3.916 133.215  0.00  0.00    +0.007 A 
BRANCH   5   8
ATOM      8  O   LIG A   1      -7.045   5.283 135.925  0.00  0.00    -0.491 OA
BRANCH   8   9
ATOM      9  C   LIG A   1      -7.191   6.620 136.423  0.00  0.00    +0.236 C 
BRANCH   9  10
ATOM     10  C   LIG A   1      -8.169   6.592 137.589  0.00  0.00    +0.115 C 
BRANCH  10  11
ATOM     11  C   LIG A   1      -8.554   7.985 138.039  0.00  0.00    +0.134 C 
ATOM     12  C   LIG A   1      -9.570   8.705 137.190  0.00  0.00    +0.086 C 
ATOM     13  O   LIG A   1      -8.086   8.508 139.049  0.00  0.00    -0.298 OA
ENDBRANCH  10  11
ENDBRANCH   9  10
ENDBRANCH   8   9
ENDBRANCH   5   8
ENDBRANCH   1   2
BRANCH   1  14
ATOM     14  C   LIG A   1     -10.602   4.067 130.673  0.00  0.00    +0.109 C 
BRANCH  14  17
ATOM     15  O   LIG A   1     -12.002   6.232 131.866  0.00  0.00    -0.270 OA
ATOM     16  C   LIG A   1     -11.921   6.163 130.650  0.00  0.00    +0.244 C 
ATOM     17  N   LIG A   1     -11.256   5.155 129.974  0.00  0.00    -0.311 N 
ATOM     18  H   LIG A   1     -11.065   5.262 128.988  0.00  0.00    +0.149 HD
BRANCH  16  19
ATOM     19  C   LIG A   1     -12.538   7.206 129.783  0.00  0.00    +0.037 A 
ATOM     20  C   LIG A   1     -13.143   6.832 128.577  0.00  0.00    +0.013 A 
ATOM     21  C   LIG A   1     -13.710   7.808 127.753  0.00  0.00    +0.001 A 
ATOM     22  C   LIG A   1     -13.670   9.152 128.129  0.00  0.00    +0.000 A 
ATOM     23  C   LIG A   1     -13.064   9.526 129.327  0.00  0.00    +0.001 A 
ATOM     24  C   LIG A   1     -12.494   8.557 130.150  0.00  0.00    +0.013 A 
ENDBRANCH  16  19
ENDBRANCH  14  17
ENDBRANCH   1  14
TORSDOF 8
ENDMDL
