MODEL 1
REMARK VINA RESULT:      -9.3      0.000      0.000
REMARK  Name = NuBBE_2327
REMARK  18 active torsions:
REMARK  status: ('A' for Active; 'I' for Inactive)
REMARK    1  A    between atoms: C_1  and  C_2
REMARK    2  A    between atoms: C_2  and  C_3
REMARK    3  A    between atoms: C_2  and  C_4
REMARK    4  A    between atoms: C_4  and  C_5
REMARK    5  A    between atoms: C_4  and  C_6
REMARK    6  A    between atoms: C_6  and  C_7
REMARK    7  A    between atoms: C_7  and  C_8
REMARK    8  A    between atoms: C_8  and  C_9
REMARK    9  A    between atoms: C_8  and  C_10
REMARK   10  A    between atoms: C_13  and  C_14
REMARK   11  A    between atoms: C_19  and  C_20
REMARK   12  A    between atoms: C_19  and  C_21
REMARK   13  A    between atoms: C_22  and  O_24
REMARK   14  A    between atoms: O_24  and  C_25
REMARK   15  A    between atoms: C_25  and  C_26
REMARK   16  A    between atoms: C_26  and  C_27
REMARK   17  A    between atoms: C_28  and  C_29
REMARK   18  A    between atoms: C_38  and  C_39
REMARK                            x       y       z     vdW  Elec       q    Type
REMARK                         _______ _______ _______ _____ _____    ______ ____
ROOT
ATOM      1  C   LIG A   1      -7.177  -2.241 127.191  0.00  0.00    -0.002 C 
ATOM      2  C   LIG A   1      -8.141  -3.266 127.806  0.00  0.00    +0.005 C 
ATOM      3  C   LIG A   1      -8.320  -2.903 129.275  0.00  0.00    +0.008 C 
ATOM      4  C   LIG A   1      -7.142  -1.971 129.696  0.00  0.00    -0.023 C 
ATOM      5  C   LIG A   1      -6.465  -2.643 130.926  0.00  0.00    +0.012 C 
ATOM      6  C   LIG A   1      -7.765  -0.577 130.107  0.00  0.00    +0.002 C 
ATOM      7  C   LIG A   1      -8.314  -0.536 131.545  0.00  0.00    +0.005 C 
ATOM      8  C   LIG A   1      -8.894   0.827 131.902  0.00  0.00    +0.005 C 
ATOM      9  C   LIG A   1      -7.777   1.884 131.912  0.00  0.00    +0.005 C 
ATOM     10  C   LIG A   1      -8.177   3.286 132.496  0.00  0.00    +0.005 C 
ATOM     11  C   LIG A   1      -7.144   3.712 133.576  0.00  0.00    +0.015 C 
ATOM     12  C   LIG A   1      -9.528   3.229 133.251  0.00  0.00    +0.015 C 
ATOM     13  C   LIG A   1      -8.228   4.349 131.352  0.00  0.00    +0.183 C 
ATOM     14  C   LIG A   1      -6.916   4.446 130.531  0.00  0.00    +0.046 C 
ATOM     15  C   LIG A   1      -6.110   3.148 130.495  0.00  0.00    +0.011 C 
ATOM     16  C   LIG A   1      -7.076   1.990 130.554  0.00  0.00    -0.019 C 
ATOM     17  C   LIG A   1      -6.880   0.644 129.837  0.00  0.00    -0.019 C 
ATOM     18  C   LIG A   1      -7.698   1.752 129.201  0.00  0.00    +0.015 C 
ATOM     19  C   LIG A   1      -5.485   0.321 129.401  0.00  0.00    +0.008 C 
ATOM     20  C   LIG A   1      -5.554  -0.526 128.156  0.00  0.00    +0.008 C 
ATOM     21  C   LIG A   1      -6.205  -1.914 128.391  0.00  0.00    -0.023 C 
ATOM     22  C   LIG A   1      -5.053  -2.944 128.496  0.00  0.00    +0.012 C 
ENDROOT
BRANCH   1  23
ATOM     23  C   LIG A   1      -6.568  -2.742 125.818  0.00  0.00    -0.010 C 
ATOM     24  C   LIG A   1      -5.813  -1.653 125.047  0.00  0.00    +0.008 C 
BRANCH  23  25
ATOM     25  C   LIG A   1      -7.663  -3.337 124.871  0.00  0.00    +0.004 C 
BRANCH  25  26
ATOM     26  C   LIG A   1      -8.982  -2.519 124.773  0.00  0.00    +0.004 C 
BRANCH  26  27
ATOM     27  C   LIG A   1      -9.135  -1.660 123.474  0.00  0.00    -0.011 C 
ATOM     28  C   LIG A   1      -8.156  -2.129 122.395  0.00  0.00    +0.007 C 
BRANCH  27  30
ATOM     29  C   LIG A   1      -9.933   0.739 122.902  0.00  0.00    +0.007 C 
ATOM     30  C   LIG A   1      -8.993  -0.122 123.753  0.00  0.00    -0.014 C 
ATOM     31  C   LIG A   1      -9.219   0.251 125.232  0.00  0.00    +0.007 C 
ENDBRANCH  27  30
ENDBRANCH  26  27
ENDBRANCH  25  26
ENDBRANCH  23  25
ENDBRANCH   1  23
BRANCH  13  32
ATOM     32  O   LIG A   1      -8.444   5.656 131.887  0.00  0.00    -0.458 OA
BRANCH  32  33
ATOM     33  C   LIG A   1      -8.892   6.632 131.073  0.00  0.00    +0.335 C 
ATOM     34  O   LIG A   1      -8.193   7.448 130.484  0.00  0.00    -0.245 OA
BRANCH  33  35
ATOM     35  C   LIG A   1     -10.372   6.504 130.937  0.00  0.00    +0.029 C 
ATOM     36  C   LIG A   1     -11.211   6.384 132.164  0.00  0.00    +0.051 C 
ATOM     37  C   LIG A   1     -10.858   6.489 129.675  0.00  0.00    -0.020 C 
ATOM     38  C   LIG A   1     -12.295   6.380 129.288  0.00  0.00    +0.035 C 
ENDBRANCH  33  35
ENDBRANCH  32  33
ENDBRANCH  13  32
TORSDOF 8
ENDMDL
MODEL 2
REMARK VINA RESULT:      -9.2      2.876      5.354
REMARK  Name = NuBBE_2327
REMARK  18 active torsions:
REMARK  status: ('A' for Active; 'I' for Inactive)
REMARK    1  A    between atoms: C_1  and  C_2
REMARK    2  A    between atoms: C_2  and  C_3
REMARK    3  A    between atoms: C_2  and  C_4
REMARK    4  A    between atoms: C_4  and  C_5
REMARK    5  A    between atoms: C_4  and  C_6
REMARK    6  A    between atoms: C_6  and  C_7
REMARK    7  A    between atoms: C_7  and  C_8
REMARK    8  A    between atoms: C_8  and  C_9
REMARK    9  A    between atoms: C_8  and  C_10
REMARK   10  A    between atoms: C_13  and  C_14
REMARK   11  A    between atoms: C_19  and  C_20
REMARK   12  A    between atoms: C_19  and  C_21
REMARK   13  A    between atoms: C_22  and  O_24
REMARK   14  A    between atoms: O_24  and  C_25
REMARK   15  A    between atoms: C_25  and  C_26
REMARK   16  A    between atoms: C_26  and  C_27
REMARK   17  A    between atoms: C_28  and  C_29
REMARK   18  A    between atoms: C_38  and  C_39
REMARK                            x       y       z     vdW  Elec       q    Type
REMARK                         _______ _______ _______ _____ _____    ______ ____
ROOT
ATOM      1  C   LIG A   1      -7.237  -1.785 130.645  0.00  0.00    -0.002 C 
ATOM      2  C   LIG A   1      -7.465  -2.178 132.112  0.00  0.00    +0.005 C 
ATOM      3  C   LIG A   1      -7.402  -0.903 132.943  0.00  0.00    +0.008 C 
ATOM      4  C   LIG A   1      -6.682   0.195 132.101  0.00  0.00    -0.023 C 
ATOM      5  C   LIG A   1      -5.490   0.703 132.963  0.00  0.00    +0.012 C 
ATOM      6  C   LIG A   1      -7.720   1.363 131.859  0.00  0.00    +0.002 C 
ATOM      7  C   LIG A   1      -7.843   2.345 133.038  0.00  0.00    +0.005 C 
ATOM      8  C   LIG A   1      -8.845   3.459 132.760  0.00  0.00    +0.005 C 
ATOM      9  C   LIG A   1      -8.338   4.341 131.606  0.00  0.00    +0.005 C 
ATOM     10  C   LIG A   1      -9.143   5.668 131.364  0.00  0.00    +0.005 C 
ATOM     11  C   LIG A   1      -8.160   6.870 131.316  0.00  0.00    +0.015 C 
ATOM     12  C   LIG A   1     -10.091   5.988 132.546  0.00  0.00    +0.015 C 
ATOM     13  C   LIG A   1      -9.943   5.573 130.025  0.00  0.00    +0.183 C 
ATOM     14  C   LIG A   1      -9.063   5.228 128.795  0.00  0.00    +0.046 C 
ATOM     15  C   LIG A   1      -7.812   4.419 129.136  0.00  0.00    +0.011 C 
ATOM     16  C   LIG A   1      -8.127   3.537 130.319  0.00  0.00    -0.019 C 
ATOM     17  C   LIG A   1      -7.556   2.126 130.542  0.00  0.00    -0.019 C 
ATOM     18  C   LIG A   1      -8.908   2.323 129.880  0.00  0.00    +0.015 C 
ATOM     19  C   LIG A   1      -6.324   1.779 129.767  0.00  0.00    +0.008 C 
ATOM     20  C   LIG A   1      -6.334   0.299 129.484  0.00  0.00    +0.008 C 
ATOM     21  C   LIG A   1      -6.232  -0.573 130.762  0.00  0.00    -0.023 C 
ATOM     22  C   LIG A   1      -4.763  -1.052 130.870  0.00  0.00    +0.012 C 
ENDROOT
BRANCH   1  23
ATOM     23  C   LIG A   1      -6.845  -3.029 129.747  0.00  0.00    -0.010 C 
ATOM     24  C   LIG A   1      -7.919  -3.407 128.719  0.00  0.00    +0.008 C 
BRANCH  23  25
ATOM     25  C   LIG A   1      -6.528  -4.298 130.607  0.00  0.00    +0.004 C 
BRANCH  25  26
ATOM     26  C   LIG A   1      -5.022  -4.549 130.903  0.00  0.00    +0.004 C 
BRANCH  26  27
ATOM     27  C   LIG A   1      -4.693  -4.950 132.379  0.00  0.00    -0.011 C 
ATOM     28  C   LIG A   1      -5.979  -5.137 133.189  0.00  0.00    +0.007 C 
BRANCH  27  30
ATOM     29  C   LIG A   1      -4.424  -2.973 134.034  0.00  0.00    +0.007 C 
ATOM     30  C   LIG A   1      -3.717  -3.935 133.072  0.00  0.00    -0.014 C 
ATOM     31  C   LIG A   1      -2.574  -4.624 133.846  0.00  0.00    +0.007 C 
ENDBRANCH  27  30
ENDBRANCH  26  27
ENDBRANCH  25  26
ENDBRANCH  23  25
ENDBRANCH   1  23
BRANCH  13  32
ATOM     32  O   LIG A   1     -10.561   6.823 129.717  0.00  0.00    -0.458 OA
BRANCH  32  33
ATOM     33  C   LIG A   1     -11.864   6.845 129.375  0.00  0.00    +0.335 C 
ATOM     34  O   LIG A   1     -12.431   6.020 128.668  0.00  0.00    -0.245 OA
BRANCH  33  35
ATOM     35  C   LIG A   1     -12.525   7.988 130.068  0.00  0.00    +0.029 C 
ATOM     36  C   LIG A   1     -12.963   7.830 131.485  0.00  0.00    +0.051 C 
ATOM     37  C   LIG A   1     -12.699   9.112 129.336  0.00  0.00    -0.020 C 
ATOM     38  C   LIG A   1     -13.323  10.382 129.810  0.00  0.00    +0.035 C 
ENDBRANCH  33  35
ENDBRANCH  32  33
ENDBRANCH  13  32
TORSDOF 8
ENDMDL
MODEL 3
REMARK VINA RESULT:      -9.2      5.783     10.481
REMARK  Name = NuBBE_2327
REMARK  18 active torsions:
REMARK  status: ('A' for Active; 'I' for Inactive)
REMARK    1  A    between atoms: C_1  and  C_2
REMARK    2  A    between atoms: C_2  and  C_3
REMARK    3  A    between atoms: C_2  and  C_4
REMARK    4  A    between atoms: C_4  and  C_5
REMARK    5  A    between atoms: C_4  and  C_6
REMARK    6  A    between atoms: C_6  and  C_7
REMARK    7  A    between atoms: C_7  and  C_8
REMARK    8  A    between atoms: C_8  and  C_9
REMARK    9  A    between atoms: C_8  and  C_10
REMARK   10  A    between atoms: C_13  and  C_14
REMARK   11  A    between atoms: C_19  and  C_20
REMARK   12  A    between atoms: C_19  and  C_21
REMARK   13  A    between atoms: C_22  and  O_24
REMARK   14  A    between atoms: O_24  and  C_25
REMARK   15  A    between atoms: C_25  and  C_26
REMARK   16  A    between atoms: C_26  and  C_27
REMARK   17  A    between atoms: C_28  and  C_29
REMARK   18  A    between atoms: C_38  and  C_39
REMARK                            x       y       z     vdW  Elec       q    Type
REMARK                         _______ _______ _______ _____ _____    ______ ____
ROOT
ATOM      1  C   LIG A   1      -2.001   7.738 132.954  0.00  0.00    -0.002 C 
ATOM      2  C   LIG A   1      -0.944   7.091 132.046  0.00  0.00    +0.005 C 
ATOM      3  C   LIG A   1      -1.573   5.852 131.422  0.00  0.00    +0.008 C 
ATOM      4  C   LIG A   1      -2.820   5.455 132.270  0.00  0.00    -0.023 C 
ATOM      5  C   LIG A   1      -2.612   3.972 132.696  0.00  0.00    +0.012 C 
ATOM      6  C   LIG A   1      -4.089   5.583 131.335  0.00  0.00    +0.002 C 
ATOM      7  C   LIG A   1      -4.320   4.366 130.423  0.00  0.00    +0.005 C 
ATOM      8  C   LIG A   1      -5.557   4.527 129.547  0.00  0.00    +0.005 C 
ATOM      9  C   LIG A   1      -6.818   4.563 130.427  0.00  0.00    +0.005 C 
ATOM     10  C   LIG A   1      -8.184   4.483 129.656  0.00  0.00    +0.005 C 
ATOM     11  C   LIG A   1      -9.065   3.363 130.275  0.00  0.00    +0.015 C 
ATOM     12  C   LIG A   1      -7.986   4.053 128.181  0.00  0.00    +0.015 C 
ATOM     13  C   LIG A   1      -8.926   5.856 129.736  0.00  0.00    +0.183 C 
ATOM     14  C   LIG A   1      -9.138   6.369 131.184  0.00  0.00    +0.046 C 
ATOM     15  C   LIG A   1      -8.086   5.874 132.176  0.00  0.00    +0.011 C 
ATOM     16  C   LIG A   1      -6.779   5.713 131.439  0.00  0.00    -0.019 C 
ATOM     17  C   LIG A   1      -5.390   5.977 132.042  0.00  0.00    -0.019 C 
ATOM     18  C   LIG A   1      -6.111   7.052 131.250  0.00  0.00    +0.015 C 
ATOM     19  C   LIG A   1      -5.308   5.997 133.536  0.00  0.00    +0.008 C 
ATOM     20  C   LIG A   1      -4.214   6.948 133.947  0.00  0.00    +0.008 C 
ATOM     21  C   LIG A   1      -2.801   6.491 133.500  0.00  0.00    -0.023 C 
ATOM     22  C   LIG A   1      -2.113   5.863 134.737  0.00  0.00    +0.012 C 
ENDROOT
BRANCH   1  23
ATOM     23  C   LIG A   1      -1.362   8.757 133.984  0.00  0.00    -0.010 C 
ATOM     24  C   LIG A   1      -2.283   9.932 134.336  0.00  0.00    +0.008 C 
BRANCH  23  25
ATOM     25  C   LIG A   1      -0.005   9.341 133.468  0.00  0.00    +0.004 C 
BRANCH  25  26
ATOM     26  C   LIG A   1       0.277  10.823 133.846  0.00  0.00    +0.004 C 
BRANCH  26  27
ATOM     27  C   LIG A   1       1.180  11.606 132.838  0.00  0.00    -0.011 C 
ATOM     28  C   LIG A   1       2.451  12.110 133.527  0.00  0.00    +0.007 C 
BRANCH  27  30
ATOM     29  C   LIG A   1       0.769  12.920 130.642  0.00  0.00    +0.007 C 
ATOM     30  C   LIG A   1       0.409  12.773 132.124  0.00  0.00    -0.014 C 
ATOM     31  C   LIG A   1      -1.123  12.641 132.229  0.00  0.00    +0.007 C 
ENDBRANCH  27  30
ENDBRANCH  26  27
ENDBRANCH  25  26
ENDBRANCH  23  25
ENDBRANCH   1  23
BRANCH  13  32
ATOM     32  O   LIG A   1     -10.233   5.757 129.168  0.00  0.00    -0.458 OA
BRANCH  32  33
ATOM     33  C   LIG A   1     -10.648   6.708 128.308  0.00  0.00    +0.335 C 
ATOM     34  O   LIG A   1     -10.191   6.909 127.189  0.00  0.00    -0.245 OA
BRANCH  33  35
ATOM     35  C   LIG A   1     -11.814   7.421 128.905  0.00  0.00    +0.029 C 
ATOM     36  C   LIG A   1     -12.686   6.706 129.882  0.00  0.00    +0.051 C 
ATOM     37  C   LIG A   1     -12.011   8.695 128.496  0.00  0.00    -0.020 C 
ATOM     38  C   LIG A   1     -13.097   9.608 128.956  0.00  0.00    +0.035 C 
ENDBRANCH  33  35
ENDBRANCH  32  33
ENDBRANCH  13  32
TORSDOF 8
ENDMDL
MODEL 4
REMARK VINA RESULT:      -9.1      4.657      6.924
REMARK  Name = NuBBE_2327
REMARK  18 active torsions:
REMARK  status: ('A' for Active; 'I' for Inactive)
REMARK    1  A    between atoms: C_1  and  C_2
REMARK    2  A    between atoms: C_2  and  C_3
REMARK    3  A    between atoms: C_2  and  C_4
REMARK    4  A    between atoms: C_4  and  C_5
REMARK    5  A    between atoms: C_4  and  C_6
REMARK    6  A    between atoms: C_6  and  C_7
REMARK    7  A    between atoms: C_7  and  C_8
REMARK    8  A    between atoms: C_8  and  C_9
REMARK    9  A    between atoms: C_8  and  C_10
REMARK   10  A    between atoms: C_13  and  C_14
REMARK   11  A    between atoms: C_19  and  C_20
REMARK   12  A    between atoms: C_19  and  C_21
REMARK   13  A    between atoms: C_22  and  O_24
REMARK   14  A    between atoms: O_24  and  C_25
REMARK   15  A    between atoms: C_25  and  C_26
REMARK   16  A    between atoms: C_26  and  C_27
REMARK   17  A    between atoms: C_28  and  C_29
REMARK   18  A    between atoms: C_38  and  C_39
REMARK                            x       y       z     vdW  Elec       q    Type
REMARK                         _______ _______ _______ _____ _____    ______ ____
ROOT
ATOM      1  C   LIG A   1      -7.540   1.016 125.048  0.00  0.00    -0.002 C 
ATOM      2  C   LIG A   1      -9.056   1.075 125.288  0.00  0.00    +0.005 C 
ATOM      3  C   LIG A   1      -9.436  -0.148 126.114  0.00  0.00    +0.008 C 
ATOM      4  C   LIG A   1      -8.287  -1.196 125.994  0.00  0.00    -0.023 C 
ATOM      5  C   LIG A   1      -8.941  -2.514 125.486  0.00  0.00    +0.012 C 
ATOM      6  C   LIG A   1      -7.685  -1.406 127.442  0.00  0.00    +0.002 C 
ATOM      7  C   LIG A   1      -8.489  -2.384 128.318  0.00  0.00    +0.005 C 
ATOM      8  C   LIG A   1      -7.869  -2.564 129.698  0.00  0.00    +0.005 C 
ATOM      9  C   LIG A   1      -6.494  -3.241 129.569  0.00  0.00    +0.005 C 
ATOM     10  C   LIG A   1      -5.841  -3.711 130.918  0.00  0.00    +0.005 C 
ATOM     11  C   LIG A   1      -5.411  -5.198 130.796  0.00  0.00    +0.015 C 
ATOM     12  C   LIG A   1      -6.859  -3.694 132.085  0.00  0.00    +0.015 C 
ATOM     13  C   LIG A   1      -4.603  -2.819 131.253  0.00  0.00    +0.183 C 
ATOM     14  C   LIG A   1      -3.547  -2.763 130.118  0.00  0.00    +0.046 C 
ATOM     15  C   LIG A   1      -4.128  -2.979 128.721  0.00  0.00    +0.011 C 
ATOM     16  C   LIG A   1      -5.532  -2.424 128.701  0.00  0.00    -0.019 C 
ATOM     17  C   LIG A   1      -6.193  -1.746 127.490  0.00  0.00    -0.019 C 
ATOM     18  C   LIG A   1      -5.503  -0.922 128.562  0.00  0.00    +0.015 C 
ATOM     19  C   LIG A   1      -5.569  -2.016 126.157  0.00  0.00    +0.008 C 
ATOM     20  C   LIG A   1      -5.774  -0.810 125.276  0.00  0.00    +0.008 C 
ATOM     21  C   LIG A   1      -7.263  -0.535 124.945  0.00  0.00    -0.023 C 
ATOM     22  C   LIG A   1      -7.518  -1.071 123.515  0.00  0.00    +0.012 C 
ENDROOT
BRANCH   1  23
ATOM     23  C   LIG A   1      -7.086   1.962 123.860  0.00  0.00    -0.010 C 
ATOM     24  C   LIG A   1      -6.013   2.980 124.263  0.00  0.00    +0.008 C 
BRANCH  23  25
ATOM     25  C   LIG A   1      -8.291   2.745 123.240  0.00  0.00    +0.004 C 
BRANCH  25  26
ATOM     26  C   LIG A   1      -8.483   2.575 121.706  0.00  0.00    +0.004 C 
BRANCH  26  27
ATOM     27  C   LIG A   1      -8.203   3.858 120.855  0.00  0.00    -0.011 C 
ATOM     28  C   LIG A   1      -9.331   4.097 119.848  0.00  0.00    +0.007 C 
BRANCH  27  30
ATOM     29  C   LIG A   1      -6.735   4.666 118.877  0.00  0.00    +0.007 C 
ATOM     30  C   LIG A   1      -6.801   3.816 120.151  0.00  0.00    -0.014 C 
ATOM     31  C   LIG A   1      -5.645   4.255 121.073  0.00  0.00    +0.007 C 
ENDBRANCH  27  30
ENDBRANCH  26  27
ENDBRANCH  25  26
ENDBRANCH  23  25
ENDBRANCH   1  23
BRANCH  13  32
ATOM     32  O   LIG A   1      -3.911  -3.324 132.396  0.00  0.00    -0.458 OA
BRANCH  32  33
ATOM     33  C   LIG A   1      -3.175  -2.480 133.145  0.00  0.00    +0.335 C 
ATOM     34  O   LIG A   1      -2.017  -2.665 133.500  0.00  0.00    -0.245 OA
BRANCH  33  35
ATOM     35  C   LIG A   1      -3.970  -1.243 133.398  0.00  0.00    +0.029 C 
ATOM     36  C   LIG A   1      -3.630   0.008 132.659  0.00  0.00    +0.051 C 
ATOM     37  C   LIG A   1      -4.958  -1.344 134.316  0.00  0.00    -0.020 C 
ATOM     38  C   LIG A   1      -5.887  -0.253 134.730  0.00  0.00    +0.035 C 
ENDBRANCH  33  35
ENDBRANCH  32  33
ENDBRANCH  13  32
TORSDOF 8
ENDMDL
MODEL 5
REMARK VINA RESULT:      -9.0      3.795      5.763
REMARK  Name = NuBBE_2327
REMARK  18 active torsions:
REMARK  status: ('A' for Active; 'I' for Inactive)
REMARK    1  A    between atoms: C_1  and  C_2
REMARK    2  A    between atoms: C_2  and  C_3
REMARK    3  A    between atoms: C_2  and  C_4
REMARK    4  A    between atoms: C_4  and  C_5
REMARK    5  A    between atoms: C_4  and  C_6
REMARK    6  A    between atoms: C_6  and  C_7
REMARK    7  A    between atoms: C_7  and  C_8
REMARK    8  A    between atoms: C_8  and  C_9
REMARK    9  A    between atoms: C_8  and  C_10
REMARK   10  A    between atoms: C_13  and  C_14
REMARK   11  A    between atoms: C_19  and  C_20
REMARK   12  A    between atoms: C_19  and  C_21
REMARK   13  A    between atoms: C_22  and  O_24
REMARK   14  A    between atoms: O_24  and  C_25
REMARK   15  A    between atoms: C_25  and  C_26
REMARK   16  A    between atoms: C_26  and  C_27
REMARK   17  A    between atoms: C_28  and  C_29
REMARK   18  A    between atoms: C_38  and  C_39
REMARK                            x       y       z     vdW  Elec       q    Type
REMARK                         _______ _______ _______ _____ _____    ______ ____
ROOT
ATOM      1  C   LIG A   1      -6.866  -0.567 127.673  0.00  0.00    -0.002 C 
ATOM      2  C   LIG A   1      -5.956  -0.977 126.506  0.00  0.00    +0.005 C 
ATOM      3  C   LIG A   1      -5.291   0.288 125.977  0.00  0.00    +0.008 C 
ATOM      4  C   LIG A   1      -6.112   1.517 126.475  0.00  0.00    -0.023 C 
ATOM      5  C   LIG A   1      -6.502   2.331 125.206  0.00  0.00    +0.012 C 
ATOM      6  C   LIG A   1      -5.164   2.375 127.405  0.00  0.00    +0.002 C 
ATOM      7  C   LIG A   1      -4.217   3.315 126.638  0.00  0.00    +0.005 C 
ATOM      8  C   LIG A   1      -3.330   4.128 127.573  0.00  0.00    +0.005 C 
ATOM      9  C   LIG A   1      -4.194   5.089 128.409  0.00  0.00    +0.005 C 
ATOM     10  C   LIG A   1      -3.403   6.160 129.242  0.00  0.00    +0.005 C 
ATOM     11  C   LIG A   1      -3.981   7.572 128.954  0.00  0.00    +0.015 C 
ATOM     12  C   LIG A   1      -1.921   6.248 128.803  0.00  0.00    +0.015 C 
ATOM     13  C   LIG A   1      -3.508   5.836 130.767  0.00  0.00    +0.183 C 
ATOM     14  C   LIG A   1      -4.967   5.705 131.278  0.00  0.00    +0.046 C 
ATOM     15  C   LIG A   1      -5.959   5.251 130.209  0.00  0.00    +0.011 C 
ATOM     16  C   LIG A   1      -5.235   4.341 129.247  0.00  0.00    -0.019 C 
ATOM     17  C   LIG A   1      -5.864   3.129 128.540  0.00  0.00    -0.019 C 
ATOM     18  C   LIG A   1      -5.091   2.959 129.835  0.00  0.00    +0.015 C 
ATOM     19  C   LIG A   1      -7.359   3.094 128.486  0.00  0.00    +0.008 C 
ATOM     20  C   LIG A   1      -7.809   1.656 128.495  0.00  0.00    +0.008 C 
ATOM     21  C   LIG A   1      -7.369   0.865 127.237  0.00  0.00    -0.023 C 
ATOM     22  C   LIG A   1      -8.598   0.781 126.299  0.00  0.00    +0.012 C 
ENDROOT
BRANCH   1  23
ATOM     23  C   LIG A   1      -7.930  -1.686 128.023  0.00  0.00    -0.010 C 
ATOM     24  C   LIG A   1      -7.761  -2.276 129.428  0.00  0.00    +0.008 C 
BRANCH  23  25
ATOM     25  C   LIG A   1      -7.903  -2.865 126.994  0.00  0.00    +0.004 C 
BRANCH  25  26
ATOM     26  C   LIG A   1      -9.002  -2.822 125.894  0.00  0.00    +0.004 C 
BRANCH  26  27
ATOM     27  C   LIG A   1      -8.478  -2.953 124.426  0.00  0.00    -0.011 C 
ATOM     28  C   LIG A   1      -7.236  -3.847 124.371  0.00  0.00    +0.007 C 
BRANCH  27  30
ATOM     29  C   LIG A   1      -6.908  -1.507 122.955  0.00  0.00    +0.007 C 
ATOM     30  C   LIG A   1      -8.213  -1.557 123.758  0.00  0.00    -0.014 C 
ATOM     31  C   LIG A   1      -9.357  -1.101 122.831  0.00  0.00    +0.007 C 
ENDBRANCH  27  30
ENDBRANCH  26  27
ENDBRANCH  25  26
ENDBRANCH  23  25
ENDBRANCH   1  23
BRANCH  13  32
ATOM     32  O   LIG A   1      -2.921   6.880 131.546  0.00  0.00    -0.458 OA
BRANCH  32  33
ATOM     33  C   LIG A   1      -1.862   6.597 132.330  0.00  0.00    +0.335 C 
ATOM     34  O   LIG A   1      -1.357   5.490 132.478  0.00  0.00    -0.245 OA
BRANCH  33  35
ATOM     35  C   LIG A   1      -1.349   7.867 132.922  0.00  0.00    +0.029 C 
ATOM     36  C   LIG A   1       0.031   7.904 133.489  0.00  0.00    +0.051 C 
ATOM     37  C   LIG A   1      -2.201   8.917 132.917  0.00  0.00    -0.020 C 
ATOM     38  C   LIG A   1      -1.914  10.284 133.441  0.00  0.00    +0.035 C 
ENDBRANCH  33  35
ENDBRANCH  32  33
ENDBRANCH  13  32
TORSDOF 8
ENDMDL
MODEL 6
REMARK VINA RESULT:      -8.9      1.768      2.813
REMARK  Name = NuBBE_2327
REMARK  18 active torsions:
REMARK  status: ('A' for Active; 'I' for Inactive)
REMARK    1  A    between atoms: C_1  and  C_2
REMARK    2  A    between atoms: C_2  and  C_3
REMARK    3  A    between atoms: C_2  and  C_4
REMARK    4  A    between atoms: C_4  and  C_5
REMARK    5  A    between atoms: C_4  and  C_6
REMARK    6  A    between atoms: C_6  and  C_7
REMARK    7  A    between atoms: C_7  and  C_8
REMARK    8  A    between atoms: C_8  and  C_9
REMARK    9  A    between atoms: C_8  and  C_10
REMARK   10  A    between atoms: C_13  and  C_14
REMARK   11  A    between atoms: C_19  and  C_20
REMARK   12  A    between atoms: C_19  and  C_21
REMARK   13  A    between atoms: C_22  and  O_24
REMARK   14  A    between atoms: O_24  and  C_25
REMARK   15  A    between atoms: C_25  and  C_26
REMARK   16  A    between atoms: C_26  and  C_27
REMARK   17  A    between atoms: C_28  and  C_29
REMARK   18  A    between atoms: C_38  and  C_39
REMARK                            x       y       z     vdW  Elec       q    Type
REMARK                         _______ _______ _______ _____ _____    ______ ____
ROOT
ATOM      1  C   LIG A   1      -7.587  -1.823 129.798  0.00  0.00    -0.002 C 
ATOM      2  C   LIG A   1      -7.836  -2.359 131.216  0.00  0.00    +0.005 C 
ATOM      3  C   LIG A   1      -7.723  -1.181 132.177  0.00  0.00    +0.008 C 
ATOM      4  C   LIG A   1      -6.956  -0.031 131.454  0.00  0.00    -0.023 C 
ATOM      5  C   LIG A   1      -5.747   0.334 132.364  0.00  0.00    +0.012 C 
ATOM      6  C   LIG A   1      -7.945   1.197 131.337  0.00  0.00    +0.002 C 
ATOM      7  C   LIG A   1      -8.031   2.054 132.613  0.00  0.00    +0.005 C 
ATOM      8  C   LIG A   1      -8.986   3.231 132.455  0.00  0.00    +0.005 C 
ATOM      9  C   LIG A   1      -8.439   4.208 131.399  0.00  0.00    +0.005 C 
ATOM     10  C   LIG A   1      -9.188   5.585 131.299  0.00  0.00    +0.005 C 
ATOM     11  C   LIG A   1      -8.156   6.744 131.377  0.00  0.00    +0.015 C 
ATOM     12  C   LIG A   1     -10.126   5.818 132.509  0.00  0.00    +0.015 C 
ATOM     13  C   LIG A   1      -9.986   5.664 129.958  0.00  0.00    +0.183 C 
ATOM     14  C   LIG A   1      -9.117   5.415 128.698  0.00  0.00    +0.046 C 
ATOM     15  C   LIG A   1      -7.901   4.524 128.951  0.00  0.00    +0.011 C 
ATOM     16  C   LIG A   1      -8.256   3.536 130.035  0.00  0.00    -0.019 C 
ATOM     17  C   LIG A   1      -7.745   2.088 130.107  0.00  0.00    -0.019 C 
ATOM     18  C   LIG A   1      -9.085   2.409 129.472  0.00  0.00    +0.015 C 
ATOM     19  C   LIG A   1      -6.526   1.773 129.299  0.00  0.00    +0.008 C 
ATOM     20  C   LIG A   1      -6.595   0.333 128.862  0.00  0.00    +0.008 C 
ATOM     21  C   LIG A   1      -6.533  -0.672 130.041  0.00  0.00    -0.023 C 
ATOM     22  C   LIG A   1      -5.086  -1.220 130.096  0.00  0.00    +0.012 C 
ENDROOT
BRANCH   1  23
ATOM     23  C   LIG A   1      -7.243  -2.981 128.773  0.00  0.00    -0.010 C 
ATOM     24  C   LIG A   1      -6.138  -2.610 127.777  0.00  0.00    +0.008 C 
BRANCH  23  25
ATOM     25  C   LIG A   1      -8.500  -3.437 127.959  0.00  0.00    +0.004 C 
BRANCH  25  26
ATOM     26  C   LIG A   1      -8.328  -3.456 126.414  0.00  0.00    +0.004 C 
BRANCH  26  27
ATOM     27  C   LIG A   1      -9.133  -2.358 125.642  0.00  0.00    -0.011 C 
ATOM     28  C   LIG A   1      -9.275  -2.729 124.163  0.00  0.00    +0.007 C 
BRANCH  27  30
ATOM     29  C   LIG A   1      -7.490  -0.568 124.739  0.00  0.00    +0.007 C 
ATOM     30  C   LIG A   1      -8.516  -0.926 125.821  0.00  0.00    -0.014 C 
ATOM     31  C   LIG A   1      -9.577   0.192 125.854  0.00  0.00    +0.007 C 
ENDBRANCH  27  30
ENDBRANCH  26  27
ENDBRANCH  25  26
ENDBRANCH  23  25
ENDBRANCH   1  23
BRANCH  13  32
ATOM     32  O   LIG A   1     -10.551   6.965 129.784  0.00  0.00    -0.458 OA
BRANCH  32  33
ATOM     33  C   LIG A   1     -11.796   7.078 129.279  0.00  0.00    +0.335 C 
ATOM     34  O   LIG A   1     -12.275   6.375 128.397  0.00  0.00    -0.245 OA
BRANCH  33  35
ATOM     35  C   LIG A   1     -12.525   8.141 130.029  0.00  0.00    +0.029 C 
ATOM     36  C   LIG A   1     -12.976   7.873 131.426  0.00  0.00    +0.051 C 
ATOM     37  C   LIG A   1     -12.744   9.299 129.365  0.00  0.00    -0.020 C 
ATOM     38  C   LIG A   1     -13.439  10.503 129.904  0.00  0.00    +0.035 C 
ENDBRANCH  33  35
ENDBRANCH  32  33
ENDBRANCH  13  32
TORSDOF 8
ENDMDL
MODEL 7
REMARK VINA RESULT:      -8.7      3.568      8.642
REMARK  Name = NuBBE_2327
REMARK  18 active torsions:
REMARK  status: ('A' for Active; 'I' for Inactive)
REMARK    1  A    between atoms: C_1  and  C_2
REMARK    2  A    between atoms: C_2  and  C_3
REMARK    3  A    between atoms: C_2  and  C_4
REMARK    4  A    between atoms: C_4  and  C_5
REMARK    5  A    between atoms: C_4  and  C_6
REMARK    6  A    between atoms: C_6  and  C_7
REMARK    7  A    between atoms: C_7  and  C_8
REMARK    8  A    between atoms: C_8  and  C_9
REMARK    9  A    between atoms: C_8  and  C_10
REMARK   10  A    between atoms: C_13  and  C_14
REMARK   11  A    between atoms: C_19  and  C_20
REMARK   12  A    between atoms: C_19  and  C_21
REMARK   13  A    between atoms: C_22  and  O_24
REMARK   14  A    between atoms: O_24  and  C_25
REMARK   15  A    between atoms: C_25  and  C_26
REMARK   16  A    between atoms: C_26  and  C_27
REMARK   17  A    between atoms: C_28  and  C_29
REMARK   18  A    between atoms: C_38  and  C_39
REMARK                            x       y       z     vdW  Elec       q    Type
REMARK                         _______ _______ _______ _____ _____    ______ ____
ROOT
ATOM      1  C   LIG A   1      -4.214   4.620 132.280  0.00  0.00    -0.002 C 
ATOM      2  C   LIG A   1      -2.799   4.318 132.798  0.00  0.00    +0.005 C 
ATOM      3  C   LIG A   1      -2.689   2.808 132.975  0.00  0.00    +0.008 C 
ATOM      4  C   LIG A   1      -4.131   2.215 133.028  0.00  0.00    -0.023 C 
ATOM      5  C   LIG A   1      -4.229   1.409 134.357  0.00  0.00    +0.012 C 
ATOM      6  C   LIG A   1      -4.291   1.248 131.788  0.00  0.00    +0.002 C 
ATOM      7  C   LIG A   1      -3.702  -0.157 132.009  0.00  0.00    +0.005 C 
ATOM      8  C   LIG A   1      -3.887  -1.058 130.795  0.00  0.00    +0.005 C 
ATOM      9  C   LIG A   1      -5.384  -1.326 130.565  0.00  0.00    +0.005 C 
ATOM     10  C   LIG A   1      -5.719  -2.430 129.499  0.00  0.00    +0.005 C 
ATOM     11  C   LIG A   1      -6.707  -3.460 130.112  0.00  0.00    +0.015 C 
ATOM     12  C   LIG A   1      -4.470  -3.264 129.124  0.00  0.00    +0.015 C 
ATOM     13  C   LIG A   1      -6.347  -1.773 128.228  0.00  0.00    +0.183 C 
ATOM     14  C   LIG A   1      -7.591  -0.897 128.527  0.00  0.00    +0.046 C 
ATOM     15  C   LIG A   1      -7.599  -0.291 129.929  0.00  0.00    +0.011 C 
ATOM     16  C   LIG A   1      -6.170  -0.031 130.340  0.00  0.00    -0.019 C 
ATOM     17  C   LIG A   1      -5.705   1.150 131.208  0.00  0.00    -0.019 C 
ATOM     18  C   LIG A   1      -5.656   1.231 129.693  0.00  0.00    +0.015 C 
ATOM     19  C   LIG A   1      -6.761   1.836 132.016  0.00  0.00    +0.008 C 
ATOM     20  C   LIG A   1      -6.386   3.288 132.166  0.00  0.00    +0.008 C 
ATOM     21  C   LIG A   1      -5.087   3.507 132.983  0.00  0.00    -0.023 C 
ATOM     22  C   LIG A   1      -5.512   3.927 134.411  0.00  0.00    +0.012 C 
ENDROOT
BRANCH   1  23
ATOM     23  C   LIG A   1      -4.607   6.143 132.468  0.00  0.00    -0.010 C 
ATOM     24  C   LIG A   1      -6.027   6.473 131.994  0.00  0.00    +0.008 C 
BRANCH  23  25
ATOM     25  C   LIG A   1      -3.613   7.101 131.731  0.00  0.00    +0.004 C 
BRANCH  25  26
ATOM     26  C   LIG A   1      -3.743   7.141 130.182  0.00  0.00    +0.004 C 
BRANCH  26  27
ATOM     27  C   LIG A   1      -2.737   6.227 129.406  0.00  0.00    -0.011 C 
ATOM     28  C   LIG A   1      -2.216   6.937 128.154  0.00  0.00    +0.007 C 
BRANCH  27  30
ATOM     29  C   LIG A   1      -4.839   4.878 128.713  0.00  0.00    +0.007 C 
ATOM     30  C   LIG A   1      -3.347   4.823 129.061  0.00  0.00    -0.014 C 
ATOM     31  C   LIG A   1      -2.617   4.112 127.904  0.00  0.00    +0.007 C 
ENDBRANCH  27  30
ENDBRANCH  26  27
ENDBRANCH  25  26
ENDBRANCH  23  25
ENDBRANCH   1  23
BRANCH  13  32
ATOM     32  O   LIG A   1      -6.793  -2.774 127.311  0.00  0.00    -0.458 OA
BRANCH  32  33
ATOM     33  C   LIG A   1      -6.856  -2.480 125.998  0.00  0.00    +0.335 C 
ATOM     34  O   LIG A   1      -5.950  -1.996 125.329  0.00  0.00    -0.245 OA
BRANCH  33  35
ATOM     35  C   LIG A   1      -8.180  -2.919 125.469  0.00  0.00    +0.029 C 
ATOM     36  C   LIG A   1      -9.245  -3.342 126.425  0.00  0.00    +0.051 C 
ATOM     37  C   LIG A   1      -8.318  -2.916 124.124  0.00  0.00    -0.020 C 
ATOM     38  C   LIG A   1      -9.544  -3.302 123.365  0.00  0.00    +0.035 C 
ENDBRANCH  33  35
ENDBRANCH  32  33
ENDBRANCH  13  32
TORSDOF 8
ENDMDL
MODEL 8
REMARK VINA RESULT:      -8.6      5.138      8.597
REMARK  Name = NuBBE_2327
REMARK  18 active torsions:
REMARK  status: ('A' for Active; 'I' for Inactive)
REMARK    1  A    between atoms: C_1  and  C_2
REMARK    2  A    between atoms: C_2  and  C_3
REMARK    3  A    between atoms: C_2  and  C_4
REMARK    4  A    between atoms: C_4  and  C_5
REMARK    5  A    between atoms: C_4  and  C_6
REMARK    6  A    between atoms: C_6  and  C_7
REMARK    7  A    between atoms: C_7  and  C_8
REMARK    8  A    between atoms: C_8  and  C_9
REMARK    9  A    between atoms: C_8  and  C_10
REMARK   10  A    between atoms: C_13  and  C_14
REMARK   11  A    between atoms: C_19  and  C_20
REMARK   12  A    between atoms: C_19  and  C_21
REMARK   13  A    between atoms: C_22  and  O_24
REMARK   14  A    between atoms: O_24  and  C_25
REMARK   15  A    between atoms: C_25  and  C_26
REMARK   16  A    between atoms: C_26  and  C_27
REMARK   17  A    between atoms: C_28  and  C_29
REMARK   18  A    between atoms: C_38  and  C_39
REMARK                            x       y       z     vdW  Elec       q    Type
REMARK                         _______ _______ _______ _____ _____    ______ ____
ROOT
ATOM      1  C   LIG A   1      -8.502   3.742 131.919  0.00  0.00    -0.002 C 
ATOM      2  C   LIG A   1      -9.253   3.700 133.259  0.00  0.00    +0.005 C 
ATOM      3  C   LIG A   1      -8.230   3.932 134.364  0.00  0.00    +0.008 C 
ATOM      4  C   LIG A   1      -6.809   3.653 133.783  0.00  0.00    -0.023 C 
ATOM      5  C   LIG A   1      -6.156   2.584 134.707  0.00  0.00    +0.012 C 
ATOM      6  C   LIG A   1      -5.995   5.007 133.852  0.00  0.00    +0.002 C 
ATOM      7  C   LIG A   1      -5.377   5.296 135.232  0.00  0.00    +0.005 C 
ATOM      8  C   LIG A   1      -4.594   6.604 135.251  0.00  0.00    +0.005 C 
ATOM      9  C   LIG A   1      -3.372   6.494 134.322  0.00  0.00    +0.005 C 
ATOM     10  C   LIG A   1      -2.339   7.673 134.421  0.00  0.00    +0.005 C 
ATOM     11  C   LIG A   1      -0.912   7.096 134.629  0.00  0.00    +0.015 C 
ATOM     12  C   LIG A   1      -2.589   8.552 135.672  0.00  0.00    +0.015 C 
ATOM     13  C   LIG A   1      -2.386   8.537 133.121  0.00  0.00    +0.183 C 
ATOM     14  C   LIG A   1      -2.170   7.720 131.820  0.00  0.00    +0.046 C 
ATOM     15  C   LIG A   1      -2.606   6.260 131.926  0.00  0.00    +0.011 C 
ATOM     16  C   LIG A   1      -3.776   6.183 132.878  0.00  0.00    -0.019 C 
ATOM     17  C   LIG A   1      -4.954   5.205 132.747  0.00  0.00    -0.019 C 
ATOM     18  C   LIG A   1      -5.046   6.613 132.188  0.00  0.00    +0.015 C 
ATOM     19  C   LIG A   1      -4.729   4.008 131.877  0.00  0.00    +0.008 C 
ATOM     20  C   LIG A   1      -6.043   3.610 131.255  0.00  0.00    +0.008 C 
ATOM     21  C   LIG A   1      -7.094   3.131 132.290  0.00  0.00    -0.023 C 
ATOM     22  C   LIG A   1      -7.108   1.583 132.241  0.00  0.00    +0.012 C 
ENDROOT
BRANCH   1  23
ATOM     23  C   LIG A   1      -9.341   3.092 130.744  0.00  0.00    -0.010 C 
ATOM     24  C   LIG A   1      -8.787   3.406 129.349  0.00  0.00    +0.008 C 
BRANCH  23  25
ATOM     25  C   LIG A   1     -10.843   3.533 130.780  0.00  0.00    +0.004 C 
BRANCH  25  26
ATOM     26  C   LIG A   1     -11.152   4.919 130.146  0.00  0.00    +0.004 C 
BRANCH  26  27
ATOM     27  C   LIG A   1     -10.916   6.147 131.085  0.00  0.00    -0.011 C 
ATOM     28  C   LIG A   1     -12.249   6.774 131.502  0.00  0.00    +0.007 C 
BRANCH  27  30
ATOM     29  C   LIG A   1      -8.470   6.922 130.718  0.00  0.00    +0.007 C 
ATOM     30  C   LIG A   1      -9.952   7.210 130.451  0.00  0.00    -0.014 C 
ATOM     31  C   LIG A   1     -10.136   7.365 128.928  0.00  0.00    +0.007 C 
ENDBRANCH  27  30
ENDBRANCH  26  27
ENDBRANCH  25  26
ENDBRANCH  23  25
ENDBRANCH   1  23
BRANCH  13  32
ATOM     32  O   LIG A   1      -1.351   9.522 133.132  0.00  0.00    -0.458 OA
BRANCH  32  33
ATOM     33  C   LIG A   1      -1.683  10.824 133.021  0.00  0.00    +0.335 C 
ATOM     34  O   LIG A   1      -2.780  11.306 133.277  0.00  0.00    -0.245 OA
BRANCH  33  35
ATOM     35  C   LIG A   1      -0.473  11.596 132.617  0.00  0.00    +0.029 C 
ATOM     36  C   LIG A   1      -0.623  12.765 131.703  0.00  0.00    +0.051 C 
ATOM     37  C   LIG A   1       0.708  11.160 133.111  0.00  0.00    -0.020 C 
ATOM     38  C   LIG A   1       2.046  11.770 132.858  0.00  0.00    +0.035 C 
ENDBRANCH  33  35
ENDBRANCH  32  33
ENDBRANCH  13  32
TORSDOF 8
ENDMDL
MODEL 9
REMARK VINA RESULT:      -8.5      3.950      8.738
REMARK  Name = NuBBE_2327
REMARK  18 active torsions:
REMARK  status: ('A' for Active; 'I' for Inactive)
REMARK    1  A    between atoms: C_1  and  C_2
REMARK    2  A    between atoms: C_2  and  C_3
REMARK    3  A    between atoms: C_2  and  C_4
REMARK    4  A    between atoms: C_4  and  C_5
REMARK    5  A    between atoms: C_4  and  C_6
REMARK    6  A    between atoms: C_6  and  C_7
REMARK    7  A    between atoms: C_7  and  C_8
REMARK    8  A    between atoms: C_8  and  C_9
REMARK    9  A    between atoms: C_8  and  C_10
REMARK   10  A    between atoms: C_13  and  C_14
REMARK   11  A    between atoms: C_19  and  C_20
REMARK   12  A    between atoms: C_19  and  C_21
REMARK   13  A    between atoms: C_22  and  O_24
REMARK   14  A    between atoms: O_24  and  C_25
REMARK   15  A    between atoms: C_25  and  C_26
REMARK   16  A    between atoms: C_26  and  C_27
REMARK   17  A    between atoms: C_28  and  C_29
REMARK   18  A    between atoms: C_38  and  C_39
REMARK                            x       y       z     vdW  Elec       q    Type
REMARK                         _______ _______ _______ _____ _____    ______ ____
ROOT
ATOM      1  C   LIG A   1      -8.263   3.950 131.290  0.00  0.00    -0.002 C 
ATOM      2  C   LIG A   1      -9.712   3.547 130.977  0.00  0.00    +0.005 C 
ATOM      3  C   LIG A   1      -9.665   2.234 130.204  0.00  0.00    +0.008 C 
ATOM      4  C   LIG A   1      -8.226   2.056 129.628  0.00  0.00    -0.023 C 
ATOM      5  C   LIG A   1      -8.386   1.856 128.093  0.00  0.00    +0.012 C 
ATOM      6  C   LIG A   1      -7.610   0.757 130.288  0.00  0.00    +0.002 C 
ATOM      7  C   LIG A   1      -8.045  -0.555 129.612  0.00  0.00    +0.005 C 
ATOM      8  C   LIG A   1      -7.421  -1.779 130.272  0.00  0.00    +0.005 C 
ATOM      9  C   LIG A   1      -5.896  -1.759 130.073  0.00  0.00    +0.005 C 
ATOM     10  C   LIG A   1      -5.141  -3.073 130.487  0.00  0.00    +0.005 C 
ATOM     11  C   LIG A   1      -4.229  -3.537 129.319  0.00  0.00    +0.015 C 
ATOM     12  C   LIG A   1      -6.121  -4.251 130.709  0.00  0.00    +0.015 C 
ATOM     13  C   LIG A   1      -4.285  -2.817 131.769  0.00  0.00    +0.183 C 
ATOM     14  C   LIG A   1      -3.296  -1.631 131.634  0.00  0.00    +0.046 C 
ATOM     15  C   LIG A   1      -3.748  -0.557 130.646  0.00  0.00    +0.011 C 
ATOM     16  C   LIG A   1      -5.257  -0.499 130.668  0.00  0.00    -0.019 C 
ATOM     17  C   LIG A   1      -6.091   0.779 130.487  0.00  0.00    -0.019 C 
ATOM     18  C   LIG A   1      -5.739   0.269 131.873  0.00  0.00    +0.015 C 
ATOM     19  C   LIG A   1      -5.394   1.943 129.857  0.00  0.00    +0.008 C 
ATOM     20  C   LIG A   1      -5.984   3.215 130.409  0.00  0.00    +0.008 C 
ATOM     21  C   LIG A   1      -7.474   3.419 130.029  0.00  0.00    -0.023 C 
ATOM     22  C   LIG A   1      -7.510   4.432 128.859  0.00  0.00    +0.012 C 
ENDROOT
BRANCH   1  23
ATOM     23  C   LIG A   1      -8.141   5.477 131.690  0.00  0.00    -0.010 C 
ATOM     24  C   LIG A   1      -7.594   5.699 133.106  0.00  0.00    +0.008 C 
BRANCH  23  25
ATOM     25  C   LIG A   1      -9.510   6.226 131.575  0.00  0.00    +0.004 C 
BRANCH  25  26
ATOM     26  C   LIG A   1      -9.684   7.117 130.312  0.00  0.00    +0.004 C 
BRANCH  26  27
ATOM     27  C   LIG A   1     -11.164   7.472 129.948  0.00  0.00    -0.011 C 
ATOM     28  C   LIG A   1     -12.138   6.786 130.910  0.00  0.00    +0.007 C 
BRANCH  27  30
ATOM     29  C   LIG A   1     -13.013   7.086 128.174  0.00  0.00    +0.007 C 
ATOM     30  C   LIG A   1     -11.507   7.148 128.451  0.00  0.00    -0.014 C 
ATOM     31  C   LIG A   1     -10.883   8.146 127.456  0.00  0.00    +0.007 C 
ENDBRANCH  27  30
ENDBRANCH  26  27
ENDBRANCH  25  26
ENDBRANCH  23  25
ENDBRANCH   1  23
BRANCH  13  32
ATOM     32  O   LIG A   1      -3.480  -3.957 132.073  0.00  0.00    -0.458 OA
BRANCH  32  33
ATOM     33  C   LIG A   1      -3.120  -4.186 133.351  0.00  0.00    +0.335 C 
ATOM     34  O   LIG A   1      -1.970  -4.236 133.772  0.00  0.00    -0.245 OA
BRANCH  33  35
ATOM     35  C   LIG A   1      -4.352  -4.282 134.188  0.00  0.00    +0.029 C 
ATOM     36  C   LIG A   1      -4.682  -3.175 135.132  0.00  0.00    +0.051 C 
ATOM     37  C   LIG A   1      -5.091  -5.404 134.037  0.00  0.00    -0.020 C 
ATOM     38  C   LIG A   1      -6.361  -5.722 134.753  0.00  0.00    +0.035 C 
ENDBRANCH  33  35
ENDBRANCH  32  33
ENDBRANCH  13  32
TORSDOF 8
ENDMDL
