MODEL 1
REMARK VINA RESULT:      -7.8      0.000      0.000
REMARK  Name = NuBBE_1363
REMARK  6 active torsions:
REMARK  status: ('A' for Active; 'I' for Inactive)
REMARK    1  A    between atoms: C_2  and  C_3
REMARK    2  A    between atoms: C_3  and  C_4
REMARK    3  A    between atoms: C_7  and  C_8
REMARK    4  A    between atoms: C_8  and  C_9
REMARK    5  A    between atoms: C_19  and  N_20
REMARK    6  A    between atoms: C_21  and  C_22
REMARK                            x       y       z     vdW  Elec       q    Type
REMARK                         _______ _______ _______ _____ _____    ______ ____
ROOT
ATOM      1  C   LIG A   1      -9.165  -2.802 125.919  0.00  0.00    +0.067 C 
ATOM      2  C   LIG A   1      -9.028  -3.700 124.648  0.00  0.00    +0.022 C 
ATOM      3  C   LIG A   1      -7.567  -3.935 124.337  0.00  0.00    +0.030 C 
ATOM      4  C   LIG A   1      -7.105  -2.483 124.043  0.00  0.00    +0.046 C 
ATOM      5  C   LIG A   1      -9.373  -2.894 123.398  0.00  0.00    +0.091 C 
ATOM      6  N   LIG A   1      -8.346  -1.814 123.423  0.00  0.00    -0.279 NA
ATOM      7  C   LIG A   1      -8.829  -0.894 124.487  0.00  0.00    +0.129 C 
ATOM      8  N   LIG A   1      -8.399  -1.515 125.753  0.00  0.00    -0.275 NA
ATOM      9  C   LIG A   1      -6.965  -1.761 125.421  0.00  0.00    +0.106 C 
ATOM     10  C   LIG A   1      -6.245  -0.411 125.471  0.00  0.00    -0.037 C 
ATOM     11  C   LIG A   1      -6.763   0.627 124.510  0.00  0.00    +0.036 C 
ATOM     12  C   LIG A   1      -8.272   0.530 124.343  0.00  0.00    +0.039 C 
ATOM     13  C   LIG A   1      -5.254  -0.207 126.360  0.00  0.00    +0.075 C 
ENDROOT
BRANCH  13  14
ATOM     14  N   LIG A   1      -4.555   0.966 126.491  0.00  0.00    -0.292 N 
ATOM     15  C   LIG A   1      -4.874   1.946 127.419  0.00  0.00    +0.214 C 
ATOM     16  C   LIG A   1      -3.947   3.132 127.337  0.00  0.00    +0.109 C 
ATOM     17  O   LIG A   1      -5.785   1.881 128.229  0.00  0.00    -0.276 OA
ATOM     18  H   LIG A   1      -3.774   1.140 125.872  0.00  0.00    +0.154 HD
ENDBRANCH  13  14
BRANCH   1  19
ATOM     19  C   LIG A   1      -8.787  -3.505 127.258  0.00  0.00    +0.045 C 
BRANCH  19  21
ATOM     20  C   LIG A   1      -7.950  -2.970 129.580  0.00  0.00    +0.004 C 
ATOM     21  C   LIG A   1      -8.254  -2.589 128.331  0.00  0.00    -0.033 C 
ENDBRANCH  19  21
ENDBRANCH   1  19
BRANCH   4  22
ATOM     22  C   LIG A   1      -5.844  -2.495 123.153  0.00  0.00    +0.051 C 
BRANCH  22  23
ATOM     23  C   LIG A   1      -4.666  -3.193 123.796  0.00  0.00    -0.033 C 
ATOM     24  C   LIG A   1      -4.236  -4.417 123.470  0.00  0.00    +0.004 C 
ENDBRANCH  22  23
ENDBRANCH   4  22
TORSDOF 5
ENDMDL
MODEL 2
REMARK VINA RESULT:      -7.6      2.418      4.782
REMARK  Name = NuBBE_1363
REMARK  6 active torsions:
REMARK  status: ('A' for Active; 'I' for Inactive)
REMARK    1  A    between atoms: C_2  and  C_3
REMARK    2  A    between atoms: C_3  and  C_4
REMARK    3  A    between atoms: C_7  and  C_8
REMARK    4  A    between atoms: C_8  and  C_9
REMARK    5  A    between atoms: C_19  and  N_20
REMARK    6  A    between atoms: C_21  and  C_22
REMARK                            x       y       z     vdW  Elec       q    Type
REMARK                         _______ _______ _______ _____ _____    ______ ____
ROOT
ATOM      1  C   LIG A   1      -6.744  -2.900 123.467  0.00  0.00    +0.067 C 
ATOM      2  C   LIG A   1      -7.540  -1.698 122.866  0.00  0.00    +0.022 C 
ATOM      3  C   LIG A   1      -7.292  -0.452 123.687  0.00  0.00    +0.030 C 
ATOM      4  C   LIG A   1      -7.892  -0.890 125.050  0.00  0.00    +0.046 C 
ATOM      5  C   LIG A   1      -9.028  -1.849 123.174  0.00  0.00    +0.091 C 
ATOM      6  N   LIG A   1      -9.047  -1.833 124.664  0.00  0.00    -0.279 NA
ATOM      7  C   LIG A   1      -8.549  -3.184 125.037  0.00  0.00    +0.129 C 
ATOM      8  N   LIG A   1      -7.082  -3.095 124.922  0.00  0.00    -0.275 NA
ATOM      9  C   LIG A   1      -6.857  -1.852 125.715  0.00  0.00    +0.106 C 
ATOM     10  C   LIG A   1      -7.037  -2.212 127.193  0.00  0.00    -0.037 C 
ATOM     11  C   LIG A   1      -8.396  -2.747 127.560  0.00  0.00    +0.036 C 
ATOM     12  C   LIG A   1      -8.976  -3.609 126.449  0.00  0.00    +0.039 C 
ATOM     13  C   LIG A   1      -6.006  -2.081 128.050  0.00  0.00    +0.075 C 
ENDROOT
BRANCH  13  14
ATOM     14  N   LIG A   1      -6.062  -2.385 129.386  0.00  0.00    -0.292 N 
ATOM     15  C   LIG A   1      -5.186  -3.263 130.006  0.00  0.00    +0.214 C 
ATOM     16  C   LIG A   1      -5.483  -3.419 131.477  0.00  0.00    +0.109 C 
ATOM     17  O   LIG A   1      -4.267  -3.849 129.458  0.00  0.00    -0.276 OA
ATOM     18  H   LIG A   1      -6.786  -1.963 129.952  0.00  0.00    +0.154 HD
ENDBRANCH  13  14
BRANCH   1  19
ATOM     19  C   LIG A   1      -5.201  -2.829 123.258  0.00  0.00    +0.045 C 
BRANCH  19  21
ATOM     20  C   LIG A   1      -4.179  -5.136 123.353  0.00  0.00    +0.004 C 
ATOM     21  C   LIG A   1      -4.418  -3.941 123.910  0.00  0.00    -0.033 C 
ENDBRANCH  19  21
ENDBRANCH   1  19
BRANCH   4  22
ATOM     22  C   LIG A   1      -8.295   0.349 125.877  0.00  0.00    +0.051 C 
BRANCH  22  23
ATOM     23  C   LIG A   1      -9.706   0.819 125.601  0.00  0.00    -0.033 C 
ATOM     24  C   LIG A   1     -10.078   1.521 124.525  0.00  0.00    +0.004 C 
ENDBRANCH  22  23
ENDBRANCH   4  22
TORSDOF 5
ENDMDL
MODEL 3
REMARK VINA RESULT:      -7.6      7.835     10.072
REMARK  Name = NuBBE_1363
REMARK  6 active torsions:
REMARK  status: ('A' for Active; 'I' for Inactive)
REMARK    1  A    between atoms: C_2  and  C_3
REMARK    2  A    between atoms: C_3  and  C_4
REMARK    3  A    between atoms: C_7  and  C_8
REMARK    4  A    between atoms: C_8  and  C_9
REMARK    5  A    between atoms: C_19  and  N_20
REMARK    6  A    between atoms: C_21  and  C_22
REMARK                            x       y       z     vdW  Elec       q    Type
REMARK                         _______ _______ _______ _____ _____    ______ ____
ROOT
ATOM      1  C   LIG A   1     -10.391   6.527 129.135  0.00  0.00    +0.067 C 
ATOM      2  C   LIG A   1     -11.372   6.032 130.246  0.00  0.00    +0.022 C 
ATOM      3  C   LIG A   1     -10.880   6.476 131.606  0.00  0.00    +0.030 C 
ATOM      4  C   LIG A   1      -9.529   5.716 131.678  0.00  0.00    +0.046 C 
ATOM      5  C   LIG A   1     -11.209   4.528 130.455  0.00  0.00    +0.091 C 
ATOM      6  N   LIG A   1      -9.787   4.419 130.887  0.00  0.00    -0.279 NA
ATOM      7  C   LIG A   1      -9.020   4.607 129.627  0.00  0.00    +0.129 C 
ATOM      8  N   LIG A   1      -8.985   6.066 129.416  0.00  0.00    -0.275 NA
ATOM      9  C   LIG A   1      -8.521   6.489 130.770  0.00  0.00    +0.106 C 
ATOM     10  C   LIG A   1      -7.032   6.148 130.873  0.00  0.00    -0.037 C 
ATOM     11  C   LIG A   1      -6.698   4.688 130.713  0.00  0.00    +0.036 C 
ATOM     12  C   LIG A   1      -7.606   4.015 129.694  0.00  0.00    +0.039 C 
ATOM     13  C   LIG A   1      -6.125   7.128 131.050  0.00  0.00    +0.075 C 
ENDROOT
BRANCH  13  14
ATOM     14  N   LIG A   1      -4.772   6.928 131.144  0.00  0.00    -0.292 N 
ATOM     15  C   LIG A   1      -3.914   6.988 130.056  0.00  0.00    +0.214 C 
ATOM     16  C   LIG A   1      -2.481   6.719 130.445  0.00  0.00    +0.109 C 
ATOM     17  O   LIG A   1      -4.245   7.238 128.909  0.00  0.00    -0.276 OA
ATOM     18  H   LIG A   1      -4.373   6.710 132.047  0.00  0.00    +0.154 HD
ENDBRANCH  13  14
BRANCH   1  19
ATOM     19  C   LIG A   1     -10.431   8.062 128.869  0.00  0.00    +0.045 C 
BRANCH  19  21
ATOM     20  C   LIG A   1     -12.674   9.202 129.091  0.00  0.00    +0.004 C 
ATOM     21  C   LIG A   1     -11.746   8.584 128.346  0.00  0.00    -0.033 C 
ENDBRANCH  19  21
ENDBRANCH   1  19
BRANCH   4  22
ATOM     22  C   LIG A   1      -9.106   5.523 133.149  0.00  0.00    +0.051 C 
BRANCH  22  23
ATOM     23  C   LIG A   1      -9.129   4.077 133.594  0.00  0.00    -0.033 C 
ATOM     24  C   LIG A   1      -8.048   3.367 133.934  0.00  0.00    +0.004 C 
ENDBRANCH  22  23
ENDBRANCH   4  22
TORSDOF 5
ENDMDL
MODEL 4
REMARK VINA RESULT:      -7.2      1.668      3.856
REMARK  Name = NuBBE_1363
REMARK  6 active torsions:
REMARK  status: ('A' for Active; 'I' for Inactive)
REMARK    1  A    between atoms: C_2  and  C_3
REMARK    2  A    between atoms: C_3  and  C_4
REMARK    3  A    between atoms: C_7  and  C_8
REMARK    4  A    between atoms: C_8  and  C_9
REMARK    5  A    between atoms: C_19  and  N_20
REMARK    6  A    between atoms: C_21  and  C_22
REMARK                            x       y       z     vdW  Elec       q    Type
REMARK                         _______ _______ _______ _____ _____    ______ ____
ROOT
ATOM      1  C   LIG A   1      -6.918  -2.666 124.369  0.00  0.00    +0.067 C 
ATOM      2  C   LIG A   1      -8.371  -2.894 123.845  0.00  0.00    +0.022 C 
ATOM      3  C   LIG A   1      -8.867  -1.652 123.138  0.00  0.00    +0.030 C 
ATOM      4  C   LIG A   1      -8.852  -0.636 124.311  0.00  0.00    +0.046 C 
ATOM      5  C   LIG A   1      -9.358  -2.869 125.009  0.00  0.00    +0.091 C 
ATOM      6  N   LIG A   1      -9.177  -1.492 125.550  0.00  0.00    -0.279 NA
ATOM      7  C   LIG A   1      -7.886  -1.569 126.284  0.00  0.00    +0.129 C 
ATOM      8  N   LIG A   1      -6.848  -1.442 125.243  0.00  0.00    -0.275 NA
ATOM      9  C   LIG A   1      -7.362  -0.229 124.544  0.00  0.00    +0.106 C 
ATOM     10  C   LIG A   1      -7.064   0.978 125.437  0.00  0.00    -0.037 C 
ATOM     11  C   LIG A   1      -7.700   0.937 126.802  0.00  0.00    +0.036 C 
ATOM     12  C   LIG A   1      -7.741  -0.480 127.356  0.00  0.00    +0.039 C 
ATOM     13  C   LIG A   1      -6.249   1.957 124.999  0.00  0.00    +0.075 C 
ENDROOT
BRANCH  13  14
ATOM     14  N   LIG A   1      -5.912   3.072 125.725  0.00  0.00    -0.292 N 
ATOM     15  C   LIG A   1      -4.704   3.212 126.391  0.00  0.00    +0.214 C 
ATOM     16  C   LIG A   1      -4.603   4.532 127.115  0.00  0.00    +0.109 C 
ATOM     17  O   LIG A   1      -3.803   2.389 126.401  0.00  0.00    -0.276 OA
ATOM     18  H   LIG A   1      -6.580   3.828 125.795  0.00  0.00    +0.154 HD
ENDBRANCH  13  14
BRANCH   1  19
ATOM     19  C   LIG A   1      -5.825  -2.621 123.259  0.00  0.00    +0.045 C 
BRANCH  19  21
ATOM     20  C   LIG A   1      -4.512  -4.752 123.598  0.00  0.00    +0.004 C 
ATOM     21  C   LIG A   1      -4.577  -3.413 123.561  0.00  0.00    -0.033 C 
ENDBRANCH  19  21
ENDBRANCH   1  19
BRANCH   4  22
ATOM     22  C   LIG A   1      -9.834   0.520 124.027  0.00  0.00    +0.051 C 
BRANCH  22  23
ATOM     23  C   LIG A   1      -9.624   1.163 122.675  0.00  0.00    -0.033 C 
ATOM     24  C   LIG A   1      -9.012   2.337 122.477  0.00  0.00    +0.004 C 
ENDBRANCH  22  23
ENDBRANCH   4  22
TORSDOF 5
ENDMDL
MODEL 5
REMARK VINA RESULT:      -6.8      6.320      9.406
REMARK  Name = NuBBE_1363
REMARK  6 active torsions:
REMARK  status: ('A' for Active; 'I' for Inactive)
REMARK    1  A    between atoms: C_2  and  C_3
REMARK    2  A    between atoms: C_3  and  C_4
REMARK    3  A    between atoms: C_7  and  C_8
REMARK    4  A    between atoms: C_8  and  C_9
REMARK    5  A    between atoms: C_19  and  N_20
REMARK    6  A    between atoms: C_21  and  C_22
REMARK                            x       y       z     vdW  Elec       q    Type
REMARK                         _______ _______ _______ _____ _____    ______ ____
ROOT
ATOM      1  C   LIG A   1     -10.911   5.848 130.255  0.00  0.00    +0.067 C 
ATOM      2  C   LIG A   1     -10.143   6.463 131.469  0.00  0.00    +0.022 C 
ATOM      3  C   LIG A   1      -8.751   6.876 131.044  0.00  0.00    +0.030 C 
ATOM      4  C   LIG A   1      -8.157   5.496 130.652  0.00  0.00    +0.046 C 
ATOM      5  C   LIG A   1      -9.737   5.361 132.444  0.00  0.00    +0.091 C 
ATOM      6  N   LIG A   1      -8.849   4.506 131.607  0.00  0.00    -0.279 NA
ATOM      7  C   LIG A   1      -9.797   3.765 130.732  0.00  0.00    +0.129 C 
ATOM      8  N   LIG A   1     -10.134   4.708 129.650  0.00  0.00    -0.275 NA
ATOM      9  C   LIG A   1      -8.756   5.122 129.258  0.00  0.00    +0.106 C 
ATOM     10  C   LIG A   1      -8.131   3.960 128.482  0.00  0.00    -0.037 C 
ATOM     11  C   LIG A   1      -8.018   2.666 129.246  0.00  0.00    +0.036 C 
ATOM     12  C   LIG A   1      -9.205   2.462 130.177  0.00  0.00    +0.039 C 
ATOM     13  C   LIG A   1      -7.766   4.125 127.196  0.00  0.00    +0.075 C 
ENDROOT
BRANCH  13  14
ATOM     14  N   LIG A   1      -7.209   3.146 126.413  0.00  0.00    -0.292 N 
ATOM     15  C   LIG A   1      -7.920   2.436 125.458  0.00  0.00    +0.214 C 
ATOM     16  C   LIG A   1      -7.062   1.415 124.752  0.00  0.00    +0.109 C 
ATOM     17  O   LIG A   1      -9.099   2.600 125.188  0.00  0.00    -0.276 OA
ATOM     18  H   LIG A   1      -6.233   2.914 126.543  0.00  0.00    +0.154 HD
ENDBRANCH  13  14
BRANCH   1  19
ATOM     19  C   LIG A   1     -11.334   6.876 129.163  0.00  0.00    +0.045 C 
BRANCH  19  21
ATOM     20  C   LIG A   1     -12.692   8.993 128.932  0.00  0.00    +0.004 C 
ATOM     21  C   LIG A   1     -12.009   8.120 129.686  0.00  0.00    -0.033 C 
ENDBRANCH  19  21
ENDBRANCH   1  19
BRANCH   4  22
ATOM     22  C   LIG A   1      -6.617   5.536 130.739  0.00  0.00    +0.051 C 
BRANCH  22  23
ATOM     23  C   LIG A   1      -6.071   6.911 131.054  0.00  0.00    -0.033 C 
ATOM     24  C   LIG A   1      -4.898   7.383 130.617  0.00  0.00    +0.004 C 
ENDBRANCH  22  23
ENDBRANCH   4  22
TORSDOF 5
ENDMDL
MODEL 6
REMARK VINA RESULT:      -6.8      3.251      5.238
REMARK  Name = NuBBE_1363
REMARK  6 active torsions:
REMARK  status: ('A' for Active; 'I' for Inactive)
REMARK    1  A    between atoms: C_2  and  C_3
REMARK    2  A    between atoms: C_3  and  C_4
REMARK    3  A    between atoms: C_7  and  C_8
REMARK    4  A    between atoms: C_8  and  C_9
REMARK    5  A    between atoms: C_19  and  N_20
REMARK    6  A    between atoms: C_21  and  C_22
REMARK                            x       y       z     vdW  Elec       q    Type
REMARK                         _______ _______ _______ _____ _____    ______ ____
ROOT
ATOM      1  C   LIG A   1      -7.804   0.928 124.721  0.00  0.00    +0.067 C 
ATOM      2  C   LIG A   1      -8.023   1.113 123.185  0.00  0.00    +0.022 C 
ATOM      3  C   LIG A   1      -6.766   1.658 122.545  0.00  0.00    +0.030 C 
ATOM      4  C   LIG A   1      -6.660   3.032 123.260  0.00  0.00    +0.046 C 
ATOM      5  C   LIG A   1      -8.920   2.321 122.926  0.00  0.00    +0.091 C 
ATOM      6  N   LIG A   1      -8.124   3.439 123.507  0.00  0.00    -0.279 NA
ATOM      7  C   LIG A   1      -8.302   3.272 124.974  0.00  0.00    +0.129 C 
ATOM      8  N   LIG A   1      -7.347   2.215 125.357  0.00  0.00    -0.275 NA
ATOM      9  C   LIG A   1      -6.121   2.755 124.700  0.00  0.00    +0.106 C 
ATOM     10  C   LIG A   1      -5.634   3.939 125.539  0.00  0.00    -0.037 C 
ATOM     11  C   LIG A   1      -6.616   5.074 125.674  0.00  0.00    +0.036 C 
ATOM     12  C   LIG A   1      -8.048   4.568 125.758  0.00  0.00    +0.039 C 
ATOM     13  C   LIG A   1      -4.424   3.898 126.128  0.00  0.00    +0.075 C 
ENDROOT
BRANCH  13  14
ATOM     14  N   LIG A   1      -3.902   4.900 126.907  0.00  0.00    -0.292 N 
ATOM     15  C   LIG A   1      -2.722   4.773 127.624  0.00  0.00    +0.214 C 
ATOM     16  C   LIG A   1      -2.391   6.024 128.399  0.00  0.00    +0.109 C 
ATOM     17  O   LIG A   1      -2.008   3.784 127.640  0.00  0.00    -0.276 OA
ATOM     18  H   LIG A   1      -4.406   5.774 126.978  0.00  0.00    +0.154 HD
ENDBRANCH  13  14
BRANCH   1  19
ATOM     19  C   LIG A   1      -6.858  -0.249 125.106  0.00  0.00    +0.045 C 
BRANCH  19  21
ATOM     20  C   LIG A   1      -5.850  -2.184 123.835  0.00  0.00    +0.004 C 
ATOM     21  C   LIG A   1      -6.909  -1.437 124.178  0.00  0.00    -0.033 C 
ENDBRANCH  19  21
ENDBRANCH   1  19
BRANCH   4  22
ATOM     22  C   LIG A   1      -5.833   4.014 122.405  0.00  0.00    +0.051 C 
BRANCH  22  23
ATOM     23  C   LIG A   1      -5.933   3.745 120.920  0.00  0.00    -0.033 C 
ATOM     24  C   LIG A   1      -5.851   4.681 119.968  0.00  0.00    +0.004 C 
ENDBRANCH  22  23
ENDBRANCH   4  22
TORSDOF 5
ENDMDL
MODEL 7
REMARK VINA RESULT:      -6.7      8.122     10.566
REMARK  Name = NuBBE_1363
REMARK  6 active torsions:
REMARK  status: ('A' for Active; 'I' for Inactive)
REMARK    1  A    between atoms: C_2  and  C_3
REMARK    2  A    between atoms: C_3  and  C_4
REMARK    3  A    between atoms: C_7  and  C_8
REMARK    4  A    between atoms: C_8  and  C_9
REMARK    5  A    between atoms: C_19  and  N_20
REMARK    6  A    between atoms: C_21  and  C_22
REMARK                            x       y       z     vdW  Elec       q    Type
REMARK                         _______ _______ _______ _____ _____    ______ ____
ROOT
ATOM      1  C   LIG A   1     -10.393   6.574 130.943  0.00  0.00    +0.067 C 
ATOM      2  C   LIG A   1     -10.412   5.358 129.963  0.00  0.00    +0.022 C 
ATOM      3  C   LIG A   1     -10.283   4.066 130.739  0.00  0.00    +0.030 C 
ATOM      4  C   LIG A   1      -8.874   4.254 131.363  0.00  0.00    +0.046 C 
ATOM      5  C   LIG A   1      -9.088   5.272 129.208  0.00  0.00    +0.091 C 
ATOM      6  N   LIG A   1      -8.105   5.075 130.311  0.00  0.00    -0.279 NA
ATOM      7  C   LIG A   1      -7.987   6.425 130.923  0.00  0.00    +0.129 C 
ATOM      8  N   LIG A   1      -9.160   6.545 131.809  0.00  0.00    -0.275 NA
ATOM      9  C   LIG A   1      -9.031   5.257 132.550  0.00  0.00    +0.106 C 
ATOM     10  C   LIG A   1      -7.871   5.409 133.537  0.00  0.00    -0.037 C 
ATOM     11  C   LIG A   1      -6.534   5.711 132.913  0.00  0.00    +0.036 C 
ATOM     12  C   LIG A   1      -6.676   6.617 131.699  0.00  0.00    +0.039 C 
ATOM     13  C   LIG A   1      -8.095   5.314 134.862  0.00  0.00    +0.075 C 
ENDROOT
BRANCH  13  14
ATOM     14  N   LIG A   1      -7.128   5.445 135.826  0.00  0.00    -0.292 N 
ATOM     15  C   LIG A   1      -7.287   6.218 136.966  0.00  0.00    +0.214 C 
ATOM     16  C   LIG A   1      -6.064   6.190 137.848  0.00  0.00    +0.109 C 
ATOM     17  O   LIG A   1      -8.290   6.851 137.257  0.00  0.00    -0.276 OA
ATOM     18  H   LIG A   1      -6.245   4.968 135.699  0.00  0.00    +0.154 HD
ENDBRANCH  13  14
BRANCH   1  19
ATOM     19  C   LIG A   1     -11.678   6.733 131.810  0.00  0.00    +0.045 C 
BRANCH  19  21
ATOM     20  C   LIG A   1     -12.771   8.350 130.207  0.00  0.00    +0.004 C 
ATOM     21  C   LIG A   1     -12.855   7.350 131.096  0.00  0.00    -0.033 C 
ENDBRANCH  19  21
ENDBRANCH   1  19
BRANCH   4  22
ATOM     22  C   LIG A   1      -8.260   2.882 131.712  0.00  0.00    +0.051 C 
BRANCH  22  23
ATOM     23  C   LIG A   1      -9.277   1.881 132.212  0.00  0.00    -0.033 C 
ATOM     24  C   LIG A   1      -9.364   0.611 131.798  0.00  0.00    +0.004 C 
ENDBRANCH  22  23
ENDBRANCH   4  22
TORSDOF 5
ENDMDL
MODEL 8
REMARK VINA RESULT:      -6.4      3.297      5.180
REMARK  Name = NuBBE_1363
REMARK  6 active torsions:
REMARK  status: ('A' for Active; 'I' for Inactive)
REMARK    1  A    between atoms: C_2  and  C_3
REMARK    2  A    between atoms: C_3  and  C_4
REMARK    3  A    between atoms: C_7  and  C_8
REMARK    4  A    between atoms: C_8  and  C_9
REMARK    5  A    between atoms: C_19  and  N_20
REMARK    6  A    between atoms: C_21  and  C_22
REMARK                            x       y       z     vdW  Elec       q    Type
REMARK                         _______ _______ _______ _____ _____    ______ ____
ROOT
ATOM      1  C   LIG A   1      -6.850   1.516 126.703  0.00  0.00    +0.067 C 
ATOM      2  C   LIG A   1      -6.863  -0.044 126.777  0.00  0.00    +0.022 C 
ATOM      3  C   LIG A   1      -6.240  -0.626 125.527  0.00  0.00    +0.030 C 
ATOM      4  C   LIG A   1      -7.235  -0.112 124.453  0.00  0.00    +0.046 C 
ATOM      5  C   LIG A   1      -8.280  -0.568 126.557  0.00  0.00    +0.091 C 
ATOM      6  N   LIG A   1      -8.590  -0.078 125.184  0.00  0.00    -0.279 NA
ATOM      7  C   LIG A   1      -8.858   1.372 125.379  0.00  0.00    +0.129 C 
ATOM      8  N   LIG A   1      -7.525   2.000 125.447  0.00  0.00    -0.275 NA
ATOM      9  C   LIG A   1      -6.918   1.401 124.224  0.00  0.00    +0.106 C 
ATOM     10  C   LIG A   1      -7.538   2.103 123.012  0.00  0.00    -0.037 C 
ATOM     11  C   LIG A   1      -9.033   1.969 122.890  0.00  0.00    +0.036 C 
ATOM     12  C   LIG A   1      -9.708   1.980 124.254  0.00  0.00    +0.039 C 
ATOM     13  C   LIG A   1      -6.760   2.812 122.172  0.00  0.00    +0.075 C 
ENDROOT
BRANCH  13  14
ATOM     14  N   LIG A   1      -7.218   3.484 121.068  0.00  0.00    -0.292 N 
ATOM     15  C   LIG A   1      -6.387   4.145 120.176  0.00  0.00    +0.214 C 
ATOM     16  C   LIG A   1      -7.158   4.806 119.061  0.00  0.00    +0.109 C 
ATOM     17  O   LIG A   1      -5.170   4.197 120.251  0.00  0.00    -0.276 OA
ATOM     18  H   LIG A   1      -8.214   3.517 120.895  0.00  0.00    +0.154 HD
ENDBRANCH  13  14
BRANCH   1  19
ATOM     19  C   LIG A   1      -5.442   2.164 126.863  0.00  0.00    +0.045 C 
BRANCH  19  21
ATOM     20  C   LIG A   1      -6.111   4.176 128.236  0.00  0.00    +0.004 C 
ATOM     21  C   LIG A   1      -5.309   3.124 128.020  0.00  0.00    -0.033 C 
ENDBRANCH  19  21
ENDBRANCH   1  19
BRANCH   4  22
ATOM     22  C   LIG A   1      -7.179  -1.013 123.201  0.00  0.00    +0.051 C 
BRANCH  22  23
ATOM     23  C   LIG A   1      -8.500  -1.677 122.883  0.00  0.00    -0.033 C 
ATOM     24  C   LIG A   1      -8.846  -2.910 123.271  0.00  0.00    +0.004 C 
ENDBRANCH  22  23
ENDBRANCH   4  22
TORSDOF 5
ENDMDL
MODEL 9
REMARK VINA RESULT:      -6.4      7.801     10.908
REMARK  Name = NuBBE_1363
REMARK  6 active torsions:
REMARK  status: ('A' for Active; 'I' for Inactive)
REMARK    1  A    between atoms: C_2  and  C_3
REMARK    2  A    between atoms: C_3  and  C_4
REMARK    3  A    between atoms: C_7  and  C_8
REMARK    4  A    between atoms: C_8  and  C_9
REMARK    5  A    between atoms: C_19  and  N_20
REMARK    6  A    between atoms: C_21  and  C_22
REMARK                            x       y       z     vdW  Elec       q    Type
REMARK                         _______ _______ _______ _____ _____    ______ ____
ROOT
ATOM      1  C   LIG A   1      -3.798   5.063 128.920  0.00  0.00    +0.067 C 
ATOM      2  C   LIG A   1      -3.014   6.385 128.639  0.00  0.00    +0.022 C 
ATOM      3  C   LIG A   1      -1.796   6.464 129.532  0.00  0.00    +0.030 C 
ATOM      4  C   LIG A   1      -2.474   6.506 130.928  0.00  0.00    +0.046 C 
ATOM      5  C   LIG A   1      -3.769   7.576 129.224  0.00  0.00    +0.091 C 
ATOM      6  N   LIG A   1      -3.799   7.252 130.678  0.00  0.00    -0.279 NA
ATOM      7  C   LIG A   1      -4.835   6.190 130.781  0.00  0.00    +0.129 C 
ATOM      8  N   LIG A   1      -4.148   4.947 130.380  0.00  0.00    -0.275 NA
ATOM      9  C   LIG A   1      -2.942   5.052 131.252  0.00  0.00    +0.106 C 
ATOM     10  C   LIG A   1      -3.379   4.725 132.682  0.00  0.00    -0.037 C 
ATOM     11  C   LIG A   1      -4.433   5.636 133.253  0.00  0.00    +0.036 C 
ATOM     12  C   LIG A   1      -5.431   6.071 132.191  0.00  0.00    +0.039 C 
ATOM     13  C   LIG A   1      -2.857   3.660 133.321  0.00  0.00    +0.075 C 
ENDROOT
BRANCH  13  14
ATOM     14  N   LIG A   1      -3.189   3.278 134.596  0.00  0.00    -0.292 N 
ATOM     15  C   LIG A   1      -4.114   2.284 134.878  0.00  0.00    +0.214 C 
ATOM     16  C   LIG A   1      -4.291   2.076 136.362  0.00  0.00    +0.109 C 
ATOM     17  O   LIG A   1      -4.721   1.628 134.048  0.00  0.00    -0.276 OA
ATOM     18  H   LIG A   1      -2.752   3.751 135.376  0.00  0.00    +0.154 HD
ENDBRANCH  13  14
BRANCH   1  19
ATOM     19  C   LIG A   1      -3.094   3.769 128.412  0.00  0.00    +0.045 C 
BRANCH  19  21
ATOM     20  C   LIG A   1      -1.585   3.018 126.531  0.00  0.00    +0.004 C 
ATOM     21  C   LIG A   1      -2.488   3.872 127.034  0.00  0.00    -0.033 C 
ENDBRANCH  19  21
ENDBRANCH   1  19
BRANCH   4  22
ATOM     22  C   LIG A   1      -1.530   7.160 131.959  0.00  0.00    +0.051 C 
BRANCH  22  23
ATOM     23  C   LIG A   1      -2.091   8.426 132.566  0.00  0.00    -0.033 C 
ATOM     24  C   LIG A   1      -2.168   8.672 133.879  0.00  0.00    +0.004 C 
ENDBRANCH  22  23
ENDBRANCH   4  22
TORSDOF 5
ENDMDL
