MODEL 1
REMARK VINA RESULT:     -10.2      0.000      0.000
REMARK  Name = NuBBE_387
REMARK  15 active torsions:
REMARK  status: ('A' for Active; 'I' for Inactive)
REMARK    1  A    between atoms: C_1  and  C_2
REMARK    2  A    between atoms: C_3  and  C_49
REMARK    3  A    between atoms: C_7  and  C_8
REMARK    4  A    between atoms: C_7  and  C_48
REMARK    5  A    between atoms: C_9  and  O_36
REMARK    6  A    between atoms: C_11  and  O_35
REMARK    7  A    between atoms: C_14  and  C_34
REMARK    8  A    between atoms: C_20  and  C_21
REMARK    9  A    between atoms: C_21  and  O_22
REMARK   10  A    between atoms: C_28  and  C_33
REMARK   11  A    between atoms: C_30  and  C_32
REMARK   12  A    between atoms: O_36  and  C_37
REMARK   13  A    between atoms: C_37  and  C_38
REMARK   14  A    between atoms: C_39  and  C_40
REMARK   15  A    between atoms: C_43  and  O_46
REMARK                            x       y       z     vdW  Elec       q    Type
REMARK                         _______ _______ _______ _____ _____    ______ ____
ROOT
ATOM      1  C   LIG A   1      -7.948  -1.185 132.181  0.00  0.00    +0.016 C 
ATOM      2  C   LIG A   1      -7.019  -2.427 131.992  0.00  0.00    -0.005 C 
ATOM      3  C   LIG A   1      -6.741  -2.753 130.415  0.00  0.00    -0.019 C 
ATOM      4  C   LIG A   1      -8.083  -2.961 129.654  0.00  0.00    +0.008 C 
ATOM      5  C   LIG A   1      -8.002  -2.837 128.133  0.00  0.00    +0.005 C 
ATOM      6  C   LIG A   1      -7.379  -1.479 127.784  0.00  0.00    +0.004 C 
ATOM      7  C   LIG A   1      -7.700  -0.874 126.386  0.00  0.00    +0.008 C 
ATOM      8  C   LIG A   1      -6.943  -1.536 125.226  0.00  0.00    +0.015 C 
ATOM      9  C   LIG A   1      -7.411   0.659 126.503  0.00  0.00    +0.211 C 
ATOM     10  C   LIG A   1      -6.205   1.059 127.391  0.00  0.00    +0.156 C 
ATOM     11  C   LIG A   1      -5.237  -0.071 127.742  0.00  0.00    +0.042 C 
ATOM     12  C   LIG A   1      -5.870  -1.426 128.219  0.00  0.00    -0.023 C 
ATOM     13  C   LIG A   1      -5.900  -1.553 129.811  0.00  0.00    +0.006 C 
ATOM     14  C   LIG A   1      -4.544  -1.483 130.533  0.00  0.00    +0.031 C 
ATOM     15  C   LIG A   1      -4.640  -1.659 132.030  0.00  0.00    -0.026 C 
ATOM     16  C   LIG A   1      -5.705  -2.097 132.742  0.00  0.00    -0.063 C 
ATOM     17  C   LIG A   1      -5.729  -2.151 134.312  0.00  0.00    +0.035 C 
ATOM     18  C   LIG A   1      -6.599  -3.321 134.912  0.00  0.00    +0.074 C 
ATOM     19  C   LIG A   1      -7.927  -3.510 134.145  0.00  0.00    +0.019 C 
ATOM     20  C   LIG A   1      -7.729  -3.642 132.643  0.00  0.00    +0.012 C 
ATOM     21  C   LIG A   1      -5.807  -4.651 134.904  0.00  0.00    +0.019 C 
ATOM     22  C   LIG A   1      -4.469  -4.561 135.631  0.00  0.00    +0.004 C 
ATOM     23  C   LIG A   1      -3.570  -3.446 135.091  0.00  0.00    -0.011 C 
ATOM     24  C   LIG A   1      -4.307  -2.084 135.001  0.00  0.00    -0.003 C 
ATOM     25  C   LIG A   1      -4.349  -1.426 136.395  0.00  0.00    +0.008 C 
ATOM     26  C   LIG A   1      -2.924  -3.878 133.771  0.00  0.00    +0.008 C 
ATOM     27  C   LIG A   1      -4.984  -2.527 127.572  0.00  0.00    +0.012 C 
ATOM     28  C   LIG A   1      -9.210  -1.028 126.054  0.00  0.00    +0.015 C 
ATOM     29  C   LIG A   1      -5.955  -4.100 130.301  0.00  0.00    +0.012 C 
ENDROOT
BRANCH  18  30
ATOM     30  C   LIG A   1      -7.068  -2.970 136.333  0.00  0.00    +0.311 C 
ATOM     31  O   LIG A   1      -7.479  -1.885 136.717  0.00  0.00    -0.250 OA
BRANCH  30  32
ATOM     32  O   LIG A   1      -7.088  -4.017 137.183  0.00  0.00    -0.480 OA
ATOM     33  H   LIG A   1      -8.041  -4.217 137.304  0.00  0.00    +0.295 HD
ENDBRANCH  30  32
ENDBRANCH  18  30
BRANCH  10  34
ATOM     34  O   LIG A   1      -6.658   1.641 128.618  0.00  0.00    -0.388 OA
ATOM     35  H   LIG A   1      -6.827   0.909 129.239  0.00  0.00    +0.210 HD
ENDBRANCH  10  34
BRANCH   9  36
ATOM     36  O   LIG A   1      -7.204   1.244 125.197  0.00  0.00    -0.455 OA
BRANCH  36  37
ATOM     37  C   LIG A   1      -7.994   2.307 124.897  0.00  0.00    +0.332 C 
ATOM     38  O   LIG A   1      -9.034   2.654 125.459  0.00  0.00    -0.246 OA
BRANCH  37  39
ATOM     39  C   LIG A   1      -7.316   3.044 123.820  0.00  0.00    +0.092 C 
ATOM     40  C   LIG A   1      -7.720   2.857 122.547  0.00  0.00    +0.015 C 
BRANCH  40  41
ATOM     41  C   LIG A   1      -7.155   3.568 121.396  0.00  0.00    -0.025 A 
ATOM     42  C   LIG A   1      -5.828   4.018 121.453  0.00  0.00    +0.011 A 
ATOM     43  C   LIG A   1      -5.280   4.753 120.396  0.00  0.00    +0.046 A 
ATOM     44  C   LIG A   1      -6.064   5.043 119.286  0.00  0.00    +0.117 A 
ATOM     45  C   LIG A   1      -7.380   4.607 119.213  0.00  0.00    +0.046 A 
ATOM     46  C   LIG A   1      -7.927   3.876 120.267  0.00  0.00    +0.011 A 
BRANCH  44  47
ATOM     47  O   LIG A   1      -5.580   5.768 118.239  0.00  0.00    -0.507 OA
ATOM     48  H   LIG A   1      -4.683   6.068 118.460  0.00  0.00    +0.292 HD
ENDBRANCH  44  47
ENDBRANCH  40  41
ENDBRANCH  37  39
ENDBRANCH  36  37
ENDBRANCH   9  36
TORSDOF 8
ENDMDL
MODEL 2
REMARK VINA RESULT:     -10.1      4.733      9.535
REMARK  Name = NuBBE_387
REMARK  15 active torsions:
REMARK  status: ('A' for Active; 'I' for Inactive)
REMARK    1  A    between atoms: C_1  and  C_2
REMARK    2  A    between atoms: C_3  and  C_49
REMARK    3  A    between atoms: C_7  and  C_8
REMARK    4  A    between atoms: C_7  and  C_48
REMARK    5  A    between atoms: C_9  and  O_36
REMARK    6  A    between atoms: C_11  and  O_35
REMARK    7  A    between atoms: C_14  and  C_34
REMARK    8  A    between atoms: C_20  and  C_21
REMARK    9  A    between atoms: C_21  and  O_22
REMARK   10  A    between atoms: C_28  and  C_33
REMARK   11  A    between atoms: C_30  and  C_32
REMARK   12  A    between atoms: O_36  and  C_37
REMARK   13  A    between atoms: C_37  and  C_38
REMARK   14  A    between atoms: C_39  and  C_40
REMARK   15  A    between atoms: C_43  and  O_46
REMARK                            x       y       z     vdW  Elec       q    Type
REMARK                         _______ _______ _______ _____ _____    ______ ____
ROOT
ATOM      1  C   LIG A   1      -8.694   1.842 126.538  0.00  0.00    +0.016 C 
ATOM      2  C   LIG A   1      -7.269   1.296 126.202  0.00  0.00    -0.005 C 
ATOM      3  C   LIG A   1      -6.125   1.919 127.188  0.00  0.00    -0.019 C 
ATOM      4  C   LIG A   1      -6.136   3.474 127.128  0.00  0.00    +0.008 C 
ATOM      5  C   LIG A   1      -5.444   4.183 128.292  0.00  0.00    +0.005 C 
ATOM      6  C   LIG A   1      -6.058   3.682 129.605  0.00  0.00    +0.004 C 
ATOM      7  C   LIG A   1      -5.960   4.611 130.850  0.00  0.00    +0.008 C 
ATOM      8  C   LIG A   1      -4.569   4.650 131.497  0.00  0.00    +0.015 C 
ATOM      9  C   LIG A   1      -7.075   4.130 131.836  0.00  0.00    +0.211 C 
ATOM     10  C   LIG A   1      -7.329   2.601 131.883  0.00  0.00    +0.156 C 
ATOM     11  C   LIG A   1      -6.241   1.729 131.257  0.00  0.00    +0.042 C 
ATOM     12  C   LIG A   1      -5.698   2.172 129.852  0.00  0.00    -0.023 C 
ATOM     13  C   LIG A   1      -6.402   1.384 128.655  0.00  0.00    +0.006 C 
ATOM     14  C   LIG A   1      -6.259  -0.148 128.660  0.00  0.00    +0.031 C 
ATOM     15  C   LIG A   1      -6.905  -0.824 127.475  0.00  0.00    -0.026 C 
ATOM     16  C   LIG A   1      -7.357  -0.244 126.339  0.00  0.00    -0.063 C 
ATOM     17  C   LIG A   1      -8.104  -1.035 125.205  0.00  0.00    +0.035 C 
ATOM     18  C   LIG A   1      -7.859  -0.476 123.750  0.00  0.00    +0.074 C 
ATOM     19  C   LIG A   1      -7.877   1.069 123.710  0.00  0.00    +0.019 C 
ATOM     20  C   LIG A   1      -6.951   1.698 124.739  0.00  0.00    +0.012 C 
ATOM     21  C   LIG A   1      -6.513  -0.990 123.187  0.00  0.00    +0.019 C 
ATOM     22  C   LIG A   1      -6.396  -2.511 123.195  0.00  0.00    +0.004 C 
ATOM     23  C   LIG A   1      -6.615  -3.118 124.583  0.00  0.00    -0.011 C 
ATOM     24  C   LIG A   1      -7.915  -2.604 125.254  0.00  0.00    -0.003 C 
ATOM     25  C   LIG A   1      -9.128  -3.368 124.686  0.00  0.00    +0.008 C 
ATOM     26  C   LIG A   1      -5.366  -2.929 125.449  0.00  0.00    +0.008 C 
ATOM     27  C   LIG A   1      -4.171   1.885 129.910  0.00  0.00    +0.012 C 
ATOM     28  C   LIG A   1      -6.294   6.080 130.467  0.00  0.00    +0.015 C 
ATOM     29  C   LIG A   1      -4.714   1.468 126.686  0.00  0.00    +0.012 C 
ENDROOT
BRANCH  18  30
ATOM     30  C   LIG A   1      -9.024  -0.859 122.824  0.00  0.00    +0.311 C 
ATOM     31  O   LIG A   1      -9.005  -1.698 121.936  0.00  0.00    -0.250 OA
BRANCH  30  32
ATOM     32  O   LIG A   1     -10.186  -0.238 123.113  0.00  0.00    -0.480 OA
ATOM     33  H   LIG A   1     -10.758  -0.945 123.481  0.00  0.00    +0.295 HD
ENDBRANCH  30  32
ENDBRANCH  18  30
BRANCH  10  34
ATOM     34  O   LIG A   1      -8.568   2.280 131.244  0.00  0.00    -0.388 OA
ATOM     35  H   LIG A   1      -8.562   1.321 131.071  0.00  0.00    +0.210 HD
ENDBRANCH  10  34
BRANCH   9  36
ATOM     36  O   LIG A   1      -6.792   4.567 133.184  0.00  0.00    -0.455 OA
BRANCH  36  37
ATOM     37  C   LIG A   1      -7.845   5.084 133.869  0.00  0.00    +0.332 C 
ATOM     38  O   LIG A   1      -8.118   4.929 135.060  0.00  0.00    -0.246 OA
BRANCH  37  39
ATOM     39  C   LIG A   1      -8.562   5.965 132.934  0.00  0.00    +0.092 C 
ATOM     40  C   LIG A   1      -9.751   5.563 132.442  0.00  0.00    +0.015 C 
BRANCH  40  41
ATOM     41  C   LIG A   1     -10.580   6.371 131.542  0.00  0.00    -0.025 A 
ATOM     42  C   LIG A   1      -9.997   6.946 130.404  0.00  0.00    +0.011 A 
ATOM     43  C   LIG A   1     -10.746   7.773 129.560  0.00  0.00    +0.046 A 
ATOM     44  C   LIG A   1     -12.078   8.029 129.861  0.00  0.00    +0.117 A 
ATOM     45  C   LIG A   1     -12.673   7.470 130.985  0.00  0.00    +0.046 A 
ATOM     46  C   LIG A   1     -11.925   6.648 131.827  0.00  0.00    +0.011 A 
BRANCH  44  47
ATOM     47  O   LIG A   1     -12.844   8.840 129.079  0.00  0.00    -0.507 OA
ATOM     48  H   LIG A   1     -12.862   9.726 129.477  0.00  0.00    +0.292 HD
ENDBRANCH  44  47
ENDBRANCH  40  41
ENDBRANCH  37  39
ENDBRANCH  36  37
ENDBRANCH   9  36
TORSDOF 8
ENDMDL
MODEL 3
REMARK VINA RESULT:      -9.8      9.441     11.441
REMARK  Name = NuBBE_387
REMARK  15 active torsions:
REMARK  status: ('A' for Active; 'I' for Inactive)
REMARK    1  A    between atoms: C_1  and  C_2
REMARK    2  A    between atoms: C_3  and  C_49
REMARK    3  A    between atoms: C_7  and  C_8
REMARK    4  A    between atoms: C_7  and  C_48
REMARK    5  A    between atoms: C_9  and  O_36
REMARK    6  A    between atoms: C_11  and  O_35
REMARK    7  A    between atoms: C_14  and  C_34
REMARK    8  A    between atoms: C_20  and  C_21
REMARK    9  A    between atoms: C_21  and  O_22
REMARK   10  A    between atoms: C_28  and  C_33
REMARK   11  A    between atoms: C_30  and  C_32
REMARK   12  A    between atoms: O_36  and  C_37
REMARK   13  A    between atoms: C_37  and  C_38
REMARK   14  A    between atoms: C_39  and  C_40
REMARK   15  A    between atoms: C_43  and  O_46
REMARK                            x       y       z     vdW  Elec       q    Type
REMARK                         _______ _______ _______ _____ _____    ______ ____
ROOT
ATOM      1  C   LIG A   1      -3.151   7.633 135.257  0.00  0.00    +0.016 C 
ATOM      2  C   LIG A   1      -1.846   7.848 134.424  0.00  0.00    -0.005 C 
ATOM      3  C   LIG A   1      -1.806   6.903 133.093  0.00  0.00    -0.019 C 
ATOM      4  C   LIG A   1      -1.958   5.402 133.479  0.00  0.00    +0.008 C 
ATOM      5  C   LIG A   1      -2.371   4.468 132.342  0.00  0.00    +0.005 C 
ATOM      6  C   LIG A   1      -3.661   5.005 131.711  0.00  0.00    +0.004 C 
ATOM      7  C   LIG A   1      -4.576   3.992 130.962  0.00  0.00    +0.008 C 
ATOM      8  C   LIG A   1      -4.053   3.578 129.578  0.00  0.00    +0.015 C 
ATOM      9  C   LIG A   1      -5.993   4.651 130.902  0.00  0.00    +0.211 C 
ATOM     10  C   LIG A   1      -6.020   6.190 130.708  0.00  0.00    +0.156 C 
ATOM     11  C   LIG A   1      -4.711   6.822 130.237  0.00  0.00    +0.042 C 
ATOM     12  C   LIG A   1      -3.399   6.365 130.968  0.00  0.00    -0.023 C 
ATOM     13  C   LIG A   1      -2.962   7.381 132.119  0.00  0.00    +0.006 C 
ATOM     14  C   LIG A   1      -2.681   8.831 131.689  0.00  0.00    +0.031 C 
ATOM     15  C   LIG A   1      -2.226   9.725 132.817  0.00  0.00    -0.026 C 
ATOM     16  C   LIG A   1      -1.818   9.351 134.053  0.00  0.00    -0.063 C 
ATOM     17  C   LIG A   1      -1.456  10.375 135.188  0.00  0.00    +0.035 C 
ATOM     18  C   LIG A   1      -0.333   9.881 136.179  0.00  0.00    +0.074 C 
ATOM     19  C   LIG A   1      -0.503   8.391 136.553  0.00  0.00    +0.019 C 
ATOM     20  C   LIG A   1      -0.647   7.489 135.338  0.00  0.00    +0.012 C 
ATOM     21  C   LIG A   1       1.071  10.100 135.567  0.00  0.00    +0.019 C 
ATOM     22  C   LIG A   1       1.331  11.545 135.154  0.00  0.00    +0.004 C 
ATOM     23  C   LIG A   1       0.279  12.086 134.183  0.00  0.00    -0.011 C 
ATOM     24  C   LIG A   1      -1.169  11.848 134.687  0.00  0.00    -0.003 C 
ATOM     25  C   LIG A   1      -1.533  12.916 135.737  0.00  0.00    +0.008 C 
ATOM     26  C   LIG A   1       0.529  11.544 132.772  0.00  0.00    +0.008 C 
ATOM     27  C   LIG A   1      -2.330   6.277 129.843  0.00  0.00    +0.012 C 
ATOM     28  C   LIG A   1      -4.719   2.676 131.774  0.00  0.00    +0.015 C 
ATOM     29  C   LIG A   1      -0.406   7.041 132.408  0.00  0.00    +0.012 C 
ENDROOT
BRANCH  18  30
ATOM     30  C   LIG A   1      -0.459  10.594 137.534  0.00  0.00    +0.311 C 
ATOM     31  O   LIG A   1       0.402  11.257 138.092  0.00  0.00    -0.250 OA
BRANCH  30  32
ATOM     32  O   LIG A   1      -1.689  10.520 138.085  0.00  0.00    -0.480 OA
ATOM     33  H   LIG A   1      -2.206   9.969 137.459  0.00  0.00    +0.295 HD
ENDBRANCH  30  32
ENDBRANCH  18  30
BRANCH  10  34
ATOM     34  O   LIG A   1      -6.407   6.840 131.923  0.00  0.00    -0.388 OA
ATOM     35  H   LIG A   1      -5.940   6.390 132.651  0.00  0.00    +0.210 HD
ENDBRANCH  10  34
BRANCH   9  36
ATOM     36  O   LIG A   1      -6.789   4.064 129.849  0.00  0.00    -0.455 OA
BRANCH  36  37
ATOM     37  C   LIG A   1      -8.059   3.724 130.191  0.00  0.00    +0.332 C 
ATOM     38  O   LIG A   1      -8.420   2.806 130.928  0.00  0.00    -0.246 OA
BRANCH  37  39
ATOM     39  C   LIG A   1      -8.941   4.737 129.591  0.00  0.00    +0.092 C 
ATOM     40  C   LIG A   1      -9.672   5.528 130.403  0.00  0.00    +0.015 C 
BRANCH  40  41
ATOM     41  C   LIG A   1     -10.549   6.601 129.926  0.00  0.00    -0.025 A 
ATOM     42  C   LIG A   1     -10.168   7.352 128.804  0.00  0.00    +0.011 A 
ATOM     43  C   LIG A   1     -10.953   8.422 128.362  0.00  0.00    +0.046 A 
ATOM     44  C   LIG A   1     -12.117   8.745 129.049  0.00  0.00    +0.117 A 
ATOM     45  C   LIG A   1     -12.510   8.015 130.163  0.00  0.00    +0.046 A 
ATOM     46  C   LIG A   1     -11.726   6.949 130.605  0.00  0.00    +0.011 A 
BRANCH  44  47
ATOM     47  O   LIG A   1     -12.906   9.787 128.667  0.00  0.00    -0.507 OA
ATOM     48  H   LIG A   1     -13.835   9.519 128.754  0.00  0.00    +0.292 HD
ENDBRANCH  44  47
ENDBRANCH  40  41
ENDBRANCH  37  39
ENDBRANCH  36  37
ENDBRANCH   9  36
TORSDOF 8
ENDMDL
MODEL 4
REMARK VINA RESULT:      -9.8      3.815      4.887
REMARK  Name = NuBBE_387
REMARK  15 active torsions:
REMARK  status: ('A' for Active; 'I' for Inactive)
REMARK    1  A    between atoms: C_1  and  C_2
REMARK    2  A    between atoms: C_3  and  C_49
REMARK    3  A    between atoms: C_7  and  C_8
REMARK    4  A    between atoms: C_7  and  C_48
REMARK    5  A    between atoms: C_9  and  O_36
REMARK    6  A    between atoms: C_11  and  O_35
REMARK    7  A    between atoms: C_14  and  C_34
REMARK    8  A    between atoms: C_20  and  C_21
REMARK    9  A    between atoms: C_21  and  O_22
REMARK   10  A    between atoms: C_28  and  C_33
REMARK   11  A    between atoms: C_30  and  C_32
REMARK   12  A    between atoms: O_36  and  C_37
REMARK   13  A    between atoms: C_37  and  C_38
REMARK   14  A    between atoms: C_39  and  C_40
REMARK   15  A    between atoms: C_43  and  O_46
REMARK                            x       y       z     vdW  Elec       q    Type
REMARK                         _______ _______ _______ _____ _____    ______ ____
ROOT
ATOM      1  C   LIG A   1      -8.256   3.745 131.051  0.00  0.00    +0.016 C 
ATOM      2  C   LIG A   1      -7.110   2.781 131.497  0.00  0.00    -0.005 C 
ATOM      3  C   LIG A   1      -6.791   1.643 130.368  0.00  0.00    -0.019 C 
ATOM      4  C   LIG A   1      -8.076   0.834 130.027  0.00  0.00    +0.008 C 
ATOM      5  C   LIG A   1      -8.035   0.058 128.711  0.00  0.00    +0.005 C 
ATOM      6  C   LIG A   1      -7.685   1.032 127.579  0.00  0.00    +0.004 C 
ATOM      7  C   LIG A   1      -8.129   0.654 126.135  0.00  0.00    +0.008 C 
ATOM      8  C   LIG A   1      -7.270  -0.438 125.481  0.00  0.00    +0.015 C 
ATOM      9  C   LIG A   1      -8.134   1.989 125.321  0.00  0.00    +0.211 C 
ATOM     10  C   LIG A   1      -7.017   3.006 125.673  0.00  0.00    +0.156 C 
ATOM     11  C   LIG A   1      -5.849   2.452 126.487  0.00  0.00    +0.042 C 
ATOM     12  C   LIG A   1      -6.209   1.553 127.723  0.00  0.00    -0.023 C 
ATOM     13  C   LIG A   1      -6.199   2.375 129.093  0.00  0.00    +0.006 C 
ATOM     14  C   LIG A   1      -4.873   3.053 129.480  0.00  0.00    +0.031 C 
ATOM     15  C   LIG A   1      -4.920   3.770 130.807  0.00  0.00    -0.026 C 
ATOM     16  C   LIG A   1      -5.875   3.677 131.762  0.00  0.00    -0.063 C 
ATOM     17  C   LIG A   1      -5.873   4.545 133.072  0.00  0.00    +0.035 C 
ATOM     18  C   LIG A   1      -6.500   3.831 134.330  0.00  0.00    +0.074 C 
ATOM     19  C   LIG A   1      -7.775   3.035 133.971  0.00  0.00    +0.019 C 
ATOM     20  C   LIG A   1      -7.570   2.084 132.803  0.00  0.00    +0.012 C 
ATOM     21  C   LIG A   1      -5.470   2.881 134.988  0.00  0.00    +0.019 C 
ATOM     22  C   LIG A   1      -4.166   3.576 135.370  0.00  0.00    +0.004 C 
ATOM     23  C   LIG A   1      -3.500   4.286 134.188  0.00  0.00    -0.011 C 
ATOM     24  C   LIG A   1      -4.483   5.212 133.425  0.00  0.00    -0.003 C 
ATOM     25  C   LIG A   1      -4.637   6.543 134.187  0.00  0.00    +0.008 C 
ATOM     26  C   LIG A   1      -2.797   3.268 133.285  0.00  0.00    +0.008 C 
ATOM     27  C   LIG A   1      -5.137   0.428 127.721  0.00  0.00    +0.012 C 
ATOM     28  C   LIG A   1      -9.584   0.112 126.132  0.00  0.00    +0.015 C 
ATOM     29  C   LIG A   1      -5.765   0.617 130.951  0.00  0.00    +0.012 C 
ENDROOT
BRANCH  18  30
ATOM     30  C   LIG A   1      -7.013   4.869 135.339  0.00  0.00    +0.311 C 
ATOM     31  O   LIG A   1      -6.555   5.096 136.449  0.00  0.00    -0.250 OA
BRANCH  30  32
ATOM     32  O   LIG A   1      -8.019   5.640 134.876  0.00  0.00    -0.480 OA
ATOM     33  H   LIG A   1      -8.577   5.816 135.663  0.00  0.00    +0.295 HD
ENDBRANCH  30  32
ENDBRANCH  18  30
BRANCH  10  34
ATOM     34  O   LIG A   1      -7.561   4.119 126.390  0.00  0.00    -0.388 OA
ATOM     35  H   LIG A   1      -8.139   3.757 127.087  0.00  0.00    +0.210 HD
ENDBRANCH  10  34
BRANCH   9  36
ATOM     36  O   LIG A   1      -8.055   1.727 123.903  0.00  0.00    -0.455 OA
BRANCH  36  37
ATOM     37  C   LIG A   1      -9.195   1.947 123.199  0.00  0.00    +0.332 C 
ATOM     38  O   LIG A   1     -10.334   1.567 123.473  0.00  0.00    -0.246 OA
BRANCH  37  39
ATOM     39  C   LIG A   1      -8.834   2.827 122.077  0.00  0.00    +0.092 C 
ATOM     40  C   LIG A   1      -7.533   3.108 121.862  0.00  0.00    +0.015 C 
BRANCH  40  41
ATOM     41  C   LIG A   1      -7.046   3.932 120.752  0.00  0.00    -0.025 A 
ATOM     42  C   LIG A   1      -7.863   4.118 119.627  0.00  0.00    +0.011 A 
ATOM     43  C   LIG A   1      -7.403   4.847 118.525  0.00  0.00    +0.046 A 
ATOM     44  C   LIG A   1      -6.121   5.385 118.548  0.00  0.00    +0.117 A 
ATOM     45  C   LIG A   1      -5.298   5.210 119.653  0.00  0.00    +0.046 A 
ATOM     46  C   LIG A   1      -5.756   4.481 120.749  0.00  0.00    +0.011 A 
BRANCH  44  47
ATOM     47  O   LIG A   1      -5.623   6.089 117.494  0.00  0.00    -0.507 OA
ATOM     48  H   LIG A   1      -4.961   6.717 117.827  0.00  0.00    +0.292 HD
ENDBRANCH  44  47
ENDBRANCH  40  41
ENDBRANCH  37  39
ENDBRANCH  36  37
ENDBRANCH   9  36
TORSDOF 8
ENDMDL
MODEL 5
REMARK VINA RESULT:      -9.7      6.671     10.968
REMARK  Name = NuBBE_387
REMARK  15 active torsions:
REMARK  status: ('A' for Active; 'I' for Inactive)
REMARK    1  A    between atoms: C_1  and  C_2
REMARK    2  A    between atoms: C_3  and  C_49
REMARK    3  A    between atoms: C_7  and  C_8
REMARK    4  A    between atoms: C_7  and  C_48
REMARK    5  A    between atoms: C_9  and  O_36
REMARK    6  A    between atoms: C_11  and  O_35
REMARK    7  A    between atoms: C_14  and  C_34
REMARK    8  A    between atoms: C_20  and  C_21
REMARK    9  A    between atoms: C_21  and  O_22
REMARK   10  A    between atoms: C_28  and  C_33
REMARK   11  A    between atoms: C_30  and  C_32
REMARK   12  A    between atoms: O_36  and  C_37
REMARK   13  A    between atoms: C_37  and  C_38
REMARK   14  A    between atoms: C_39  and  C_40
REMARK   15  A    between atoms: C_43  and  O_46
REMARK                            x       y       z     vdW  Elec       q    Type
REMARK                         _______ _______ _______ _____ _____    ______ ____
ROOT
ATOM      1  C   LIG A   1      -7.935   3.605 127.110  0.00  0.00    +0.016 C 
ATOM      2  C   LIG A   1      -6.820   3.020 126.185  0.00  0.00    -0.005 C 
ATOM      3  C   LIG A   1      -5.340   3.596 126.568  0.00  0.00    -0.019 C 
ATOM      4  C   LIG A   1      -5.325   5.151 126.513  0.00  0.00    +0.008 C 
ATOM      5  C   LIG A   1      -4.170   5.825 127.254  0.00  0.00    +0.005 C 
ATOM      6  C   LIG A   1      -4.162   5.328 128.705  0.00  0.00    +0.004 C 
ATOM      7  C   LIG A   1      -3.499   6.239 129.778  0.00  0.00    +0.008 C 
ATOM      8  C   LIG A   1      -1.963   6.227 129.750  0.00  0.00    +0.015 C 
ATOM      9  C   LIG A   1      -4.083   5.781 131.155  0.00  0.00    +0.211 C 
ATOM     10  C   LIG A   1      -4.341   4.260 131.313  0.00  0.00    +0.156 C 
ATOM     11  C   LIG A   1      -3.667   3.362 130.276  0.00  0.00    +0.042 C 
ATOM     12  C   LIG A   1      -3.781   3.805 128.774  0.00  0.00    -0.023 C 
ATOM     13  C   LIG A   1      -4.963   3.052 128.009  0.00  0.00    +0.006 C 
ATOM     14  C   LIG A   1      -4.883   1.517 127.955  0.00  0.00    +0.031 C 
ATOM     15  C   LIG A   1      -6.005   0.875 127.176  0.00  0.00    -0.026 C 
ATOM     16  C   LIG A   1      -6.890   1.482 126.351  0.00  0.00    -0.063 C 
ATOM     17  C   LIG A   1      -8.084   0.728 125.661  0.00  0.00    +0.035 C 
ATOM     18  C   LIG A   1      -8.484   1.296 124.246  0.00  0.00    +0.074 C 
ATOM     19  C   LIG A   1      -8.465   2.841 124.212  0.00  0.00    +0.019 C 
ATOM     20  C   LIG A   1      -7.162   3.429 124.729  0.00  0.00    +0.012 C 
ATOM     21  C   LIG A   1      -7.538   0.747 123.150  0.00  0.00    +0.019 C 
ATOM     22  C   LIG A   1      -7.479  -0.776 123.111  0.00  0.00    +0.004 C 
ATOM     23  C   LIG A   1      -7.088  -1.393 124.456  0.00  0.00    -0.011 C 
ATOM     24  C   LIG A   1      -7.945  -0.847 125.628  0.00  0.00    -0.003 C 
ATOM     25  C   LIG A   1      -9.308  -1.566 125.652  0.00  0.00    +0.008 C 
ATOM     26  C   LIG A   1      -5.580  -1.252 124.687  0.00  0.00    +0.008 C 
ATOM     27  C   LIG A   1      -2.393   3.470 128.158  0.00  0.00    +0.012 C 
ATOM     28  C   LIG A   1      -3.917   7.721 129.576  0.00  0.00    +0.015 C 
ATOM     29  C   LIG A   1      -4.308   3.107 125.499  0.00  0.00    +0.012 C 
ENDROOT
BRANCH  18  30
ATOM     30  C   LIG A   1      -9.948   0.960 123.925  0.00  0.00    +0.311 C 
ATOM     31  O   LIG A   1     -10.352   0.263 123.007  0.00  0.00    -0.250 OA
BRANCH  30  32
ATOM     32  O   LIG A   1     -10.834   1.438 124.823  0.00  0.00    -0.480 OA
ATOM     33  H   LIG A   1     -11.528   0.747 124.876  0.00  0.00    +0.295 HD
ENDBRANCH  30  32
ENDBRANCH  18  30
BRANCH  10  34
ATOM     34  O   LIG A   1      -5.745   3.985 131.283  0.00  0.00    -0.388 OA
ATOM     35  H   LIG A   1      -6.007   3.929 130.345  0.00  0.00    +0.210 HD
ENDBRANCH  10  34
BRANCH   9  36
ATOM     36  O   LIG A   1      -3.224   6.193 132.241  0.00  0.00    -0.455 OA
BRANCH  36  37
ATOM     37  C   LIG A   1      -3.848   6.783 133.294  0.00  0.00    +0.332 C 
ATOM     38  O   LIG A   1      -4.874   6.412 133.864  0.00  0.00    -0.246 OA
BRANCH  37  39
ATOM     39  C   LIG A   1      -3.001   7.914 133.705  0.00  0.00    +0.092 C 
ATOM     40  C   LIG A   1      -2.439   8.686 132.753  0.00  0.00    +0.015 C 
BRANCH  40  41
ATOM     41  C   LIG A   1      -1.617   9.866 133.038  0.00  0.00    -0.025 A 
ATOM     42  C   LIG A   1      -2.160  11.144 132.843  0.00  0.00    +0.011 A 
ATOM     43  C   LIG A   1      -1.381  12.288 133.046  0.00  0.00    +0.046 A 
ATOM     44  C   LIG A   1      -0.055  12.151 133.438  0.00  0.00    +0.117 A 
ATOM     45  C   LIG A   1       0.501  10.894 133.635  0.00  0.00    +0.046 A 
ATOM     46  C   LIG A   1      -0.275   9.754 133.430  0.00  0.00    +0.011 A 
BRANCH  44  47
ATOM     47  O   LIG A   1       0.748  13.234 133.634  0.00  0.00    -0.507 OA
ATOM     48  H   LIG A   1       1.239  13.407 132.814  0.00  0.00    +0.292 HD
ENDBRANCH  44  47
ENDBRANCH  40  41
ENDBRANCH  37  39
ENDBRANCH  36  37
ENDBRANCH   9  36
TORSDOF 8
ENDMDL
MODEL 6
REMARK VINA RESULT:      -9.6      6.315      9.456
REMARK  Name = NuBBE_387
REMARK  15 active torsions:
REMARK  status: ('A' for Active; 'I' for Inactive)
REMARK    1  A    between atoms: C_1  and  C_2
REMARK    2  A    between atoms: C_3  and  C_49
REMARK    3  A    between atoms: C_7  and  C_8
REMARK    4  A    between atoms: C_7  and  C_48
REMARK    5  A    between atoms: C_9  and  O_36
REMARK    6  A    between atoms: C_11  and  O_35
REMARK    7  A    between atoms: C_14  and  C_34
REMARK    8  A    between atoms: C_20  and  C_21
REMARK    9  A    between atoms: C_21  and  O_22
REMARK   10  A    between atoms: C_28  and  C_33
REMARK   11  A    between atoms: C_30  and  C_32
REMARK   12  A    between atoms: O_36  and  C_37
REMARK   13  A    between atoms: C_37  and  C_38
REMARK   14  A    between atoms: C_39  and  C_40
REMARK   15  A    between atoms: C_43  and  O_46
REMARK                            x       y       z     vdW  Elec       q    Type
REMARK                         _______ _______ _______ _____ _____    ______ ____
ROOT
ATOM      1  C   LIG A   1      -2.857   4.320 131.884  0.00  0.00    +0.016 C 
ATOM      2  C   LIG A   1      -3.835   5.369 132.505  0.00  0.00    -0.005 C 
ATOM      3  C   LIG A   1      -5.385   4.852 132.480  0.00  0.00    -0.019 C 
ATOM      4  C   LIG A   1      -5.822   4.498 131.028  0.00  0.00    +0.008 C 
ATOM      5  C   LIG A   1      -7.060   3.609 130.913  0.00  0.00    +0.005 C 
ATOM      6  C   LIG A   1      -6.832   2.339 131.741  0.00  0.00    +0.004 C 
ATOM      7  C   LIG A   1      -7.638   1.066 131.352  0.00  0.00    +0.008 C 
ATOM      8  C   LIG A   1      -9.112   1.100 131.784  0.00  0.00    +0.015 C 
ATOM      9  C   LIG A   1      -6.856  -0.144 131.960  0.00  0.00    +0.211 C 
ATOM     10  C   LIG A   1      -6.187   0.100 133.337  0.00  0.00    +0.156 C 
ATOM     11  C   LIG A   1      -6.666   1.337 134.096  0.00  0.00    +0.042 C 
ATOM     12  C   LIG A   1      -6.783   2.671 133.276  0.00  0.00    -0.023 C 
ATOM     13  C   LIG A   1      -5.498   3.604 133.451  0.00  0.00    +0.006 C 
ATOM     14  C   LIG A   1      -5.165   4.057 134.883  0.00  0.00    +0.031 C 
ATOM     15  C   LIG A   1      -3.970   4.975 134.970  0.00  0.00    -0.026 C 
ATOM     16  C   LIG A   1      -3.342   5.611 133.952  0.00  0.00    -0.063 C 
ATOM     17  C   LIG A   1      -2.041   6.471 134.145  0.00  0.00    +0.035 C 
ATOM     18  C   LIG A   1      -1.910   7.688 133.151  0.00  0.00    +0.074 C 
ATOM     19  C   LIG A   1      -2.346   7.316 131.716  0.00  0.00    +0.019 C 
ATOM     20  C   LIG A   1      -3.720   6.666 131.664  0.00  0.00    +0.012 C 
ATOM     21  C   LIG A   1      -2.749   8.890 133.647  0.00  0.00    +0.019 C 
ATOM     22  C   LIG A   1      -2.397   9.327 135.066  0.00  0.00    +0.004 C 
ATOM     23  C   LIG A   1      -2.511   8.191 136.085  0.00  0.00    -0.011 C 
ATOM     24  C   LIG A   1      -1.752   6.915 135.635  0.00  0.00    -0.003 C 
ATOM     25  C   LIG A   1      -0.248   7.077 135.928  0.00  0.00    +0.008 C 
ATOM     26  C   LIG A   1      -3.981   7.935 136.433  0.00  0.00    +0.008 C 
ATOM     27  C   LIG A   1      -8.068   3.357 133.818  0.00  0.00    +0.012 C 
ATOM     28  C   LIG A   1      -7.650   0.873 129.810  0.00  0.00    +0.015 C 
ATOM     29  C   LIG A   1      -6.320   6.014 132.951  0.00  0.00    +0.012 C 
ENDROOT
BRANCH  18  30
ATOM     30  C   LIG A   1      -0.436   8.082 132.973  0.00  0.00    +0.311 C 
ATOM     31  O   LIG A   1       0.061   9.173 133.207  0.00  0.00    -0.250 OA
BRANCH  30  32
ATOM     32  O   LIG A   1       0.366   7.064 132.597  0.00  0.00    -0.480 OA
ATOM     33  H   LIG A   1       0.756   7.359 131.747  0.00  0.00    +0.295 HD
ENDBRANCH  30  32
ENDBRANCH  18  30
BRANCH  10  34
ATOM     34  O   LIG A   1      -4.767   0.198 133.193  0.00  0.00    -0.388 OA
ATOM     35  H   LIG A   1      -4.566   0.097 132.244  0.00  0.00    +0.210 HD
ENDBRANCH  10  34
BRANCH   9  36
ATOM     36  O   LIG A   1      -7.716  -1.298 132.091  0.00  0.00    -0.455 OA
BRANCH  36  37
ATOM     37  C   LIG A   1      -7.116  -2.503 131.906  0.00  0.00    +0.332 C 
ATOM     38  O   LIG A   1      -6.889  -3.369 132.752  0.00  0.00    -0.246 OA
BRANCH  37  39
ATOM     39  C   LIG A   1      -6.871  -2.633 130.461  0.00  0.00    +0.092 C 
ATOM     40  C   LIG A   1      -7.923  -2.804 129.634  0.00  0.00    +0.015 C 
BRANCH  40  41
ATOM     41  C   LIG A   1      -7.810  -2.898 128.176  0.00  0.00    -0.025 A 
ATOM     42  C   LIG A   1      -6.747  -2.253 127.527  0.00  0.00    +0.011 A 
ATOM     43  C   LIG A   1      -6.647  -2.273 126.132  0.00  0.00    +0.046 A 
ATOM     44  C   LIG A   1      -7.615  -2.934 125.386  0.00  0.00    +0.117 A 
ATOM     45  C   LIG A   1      -8.676  -3.577 126.011  0.00  0.00    +0.046 A 
ATOM     46  C   LIG A   1      -8.777  -3.555 127.402  0.00  0.00    +0.011 A 
BRANCH  44  47
ATOM     47  O   LIG A   1      -7.570  -2.968 124.025  0.00  0.00    -0.507 OA
ATOM     48  H   LIG A   1      -8.286  -3.541 123.706  0.00  0.00    +0.292 HD
ENDBRANCH  44  47
ENDBRANCH  40  41
ENDBRANCH  37  39
ENDBRANCH  36  37
ENDBRANCH   9  36
TORSDOF 8
ENDMDL
MODEL 7
REMARK VINA RESULT:      -9.5      1.938      3.589
REMARK  Name = NuBBE_387
REMARK  15 active torsions:
REMARK  status: ('A' for Active; 'I' for Inactive)
REMARK    1  A    between atoms: C_1  and  C_2
REMARK    2  A    between atoms: C_3  and  C_49
REMARK    3  A    between atoms: C_7  and  C_8
REMARK    4  A    between atoms: C_7  and  C_48
REMARK    5  A    between atoms: C_9  and  O_36
REMARK    6  A    between atoms: C_11  and  O_35
REMARK    7  A    between atoms: C_14  and  C_34
REMARK    8  A    between atoms: C_20  and  C_21
REMARK    9  A    between atoms: C_21  and  O_22
REMARK   10  A    between atoms: C_28  and  C_33
REMARK   11  A    between atoms: C_30  and  C_32
REMARK   12  A    between atoms: O_36  and  C_37
REMARK   13  A    between atoms: C_37  and  C_38
REMARK   14  A    between atoms: C_39  and  C_40
REMARK   15  A    between atoms: C_43  and  O_46
REMARK                            x       y       z     vdW  Elec       q    Type
REMARK                         _______ _______ _______ _____ _____    ______ ____
ROOT
ATOM      1  C   LIG A   1      -3.557  -2.128 130.360  0.00  0.00    +0.016 C 
ATOM      2  C   LIG A   1      -4.387  -1.421 131.478  0.00  0.00    -0.005 C 
ATOM      3  C   LIG A   1      -5.248  -0.160 130.897  0.00  0.00    -0.019 C 
ATOM      4  C   LIG A   1      -4.313   0.864 130.189  0.00  0.00    +0.008 C 
ATOM      5  C   LIG A   1      -5.006   1.842 129.240  0.00  0.00    +0.005 C 
ATOM      6  C   LIG A   1      -5.816   1.039 128.214  0.00  0.00    +0.004 C 
ATOM      7  C   LIG A   1      -6.128   1.717 126.848  0.00  0.00    +0.008 C 
ATOM      8  C   LIG A   1      -7.236   2.779 126.914  0.00  0.00    +0.015 C 
ATOM      9  C   LIG A   1      -6.460   0.556 125.855  0.00  0.00    +0.211 C 
ATOM     10  C   LIG A   1      -7.235  -0.649 126.450  0.00  0.00    +0.156 C 
ATOM     11  C   LIG A   1      -7.895  -0.407 127.808  0.00  0.00    +0.042 C 
ATOM     12  C   LIG A   1      -7.023   0.305 128.903  0.00  0.00    -0.023 C 
ATOM     13  C   LIG A   1      -6.349  -0.734 129.911  0.00  0.00    +0.006 C 
ATOM     14  C   LIG A   1      -7.303  -1.642 130.705  0.00  0.00    +0.031 C 
ATOM     15  C   LIG A   1      -6.602  -2.564 131.673  0.00  0.00    -0.026 C 
ATOM     16  C   LIG A   1      -5.311  -2.508 132.079  0.00  0.00    -0.063 C 
ATOM     17  C   LIG A   1      -4.656  -3.582 133.021  0.00  0.00    +0.035 C 
ATOM     18  C   LIG A   1      -3.534  -3.016 133.973  0.00  0.00    +0.074 C 
ATOM     19  C   LIG A   1      -2.615  -2.005 133.251  0.00  0.00    +0.019 C 
ATOM     20  C   LIG A   1      -3.387  -0.904 132.543  0.00  0.00    +0.012 C 
ATOM     21  C   LIG A   1      -4.161  -2.344 135.217  0.00  0.00    +0.019 C 
ATOM     22  C   LIG A   1      -5.098  -3.264 135.993  0.00  0.00    +0.004 C 
ATOM     23  C   LIG A   1      -6.218  -3.843 135.127  0.00  0.00    -0.011 C 
ATOM     24  C   LIG A   1      -5.683  -4.482 133.818  0.00  0.00    -0.003 C 
ATOM     25  C   LIG A   1      -5.135  -5.891 134.117  0.00  0.00    +0.008 C 
ATOM     26  C   LIG A   1      -7.305  -2.790 134.891  0.00  0.00    +0.008 C 
ATOM     27  C   LIG A   1      -8.010   1.258 129.635  0.00  0.00    +0.012 C 
ATOM     28  C   LIG A   1      -4.872   2.444 126.296  0.00  0.00    +0.015 C 
ATOM     29  C   LIG A   1      -5.912   0.602 132.091  0.00  0.00    +0.012 C 
ENDROOT
BRANCH  18  30
ATOM     30  C   LIG A   1      -2.562  -4.134 134.383  0.00  0.00    +0.311 C 
ATOM     31  O   LIG A   1      -2.268  -4.463 135.523  0.00  0.00    -0.250 OA
BRANCH  30  32
ATOM     32  O   LIG A   1      -2.074  -4.849 133.349  0.00  0.00    -0.480 OA
ATOM     33  H   LIG A   1      -2.662  -4.625 132.596  0.00  0.00    +0.295 HD
ENDBRANCH  30  32
ENDBRANCH  18  30
BRANCH  10  34
ATOM     34  O   LIG A   1      -6.373  -1.784 126.579  0.00  0.00    -0.388 OA
ATOM     35  H   LIG A   1      -6.287  -1.973 127.532  0.00  0.00    +0.210 HD
ENDBRANCH  10  34
BRANCH   9  36
ATOM     36  O   LIG A   1      -7.216   1.046 124.725  0.00  0.00    -0.455 OA
BRANCH  36  37
ATOM     37  C   LIG A   1      -7.181   0.268 123.612  0.00  0.00    +0.332 C 
ATOM     38  O   LIG A   1      -7.501  -0.917 123.511  0.00  0.00    -0.246 OA
BRANCH  37  39
ATOM     39  C   LIG A   1      -6.777   1.144 122.500  0.00  0.00    +0.092 C 
ATOM     40  C   LIG A   1      -6.943   2.476 122.627  0.00  0.00    +0.015 C 
BRANCH  40  41
ATOM     41  C   LIG A   1      -6.537   3.451 121.611  0.00  0.00    -0.025 A 
ATOM     42  C   LIG A   1      -7.371   3.679 120.507  0.00  0.00    +0.011 A 
ATOM     43  C   LIG A   1      -6.983   4.557 119.490  0.00  0.00    +0.046 A 
ATOM     44  C   LIG A   1      -5.754   5.201 119.574  0.00  0.00    +0.117 A 
ATOM     45  C   LIG A   1      -4.913   4.986 120.658  0.00  0.00    +0.046 A 
ATOM     46  C   LIG A   1      -5.300   4.109 121.671  0.00  0.00    +0.011 A 
BRANCH  44  47
ATOM     47  O   LIG A   1      -5.325   6.053 118.601  0.00  0.00    -0.507 OA
ATOM     48  H   LIG A   1      -4.503   6.473 118.900  0.00  0.00    +0.292 HD
ENDBRANCH  44  47
ENDBRANCH  40  41
ENDBRANCH  37  39
ENDBRANCH  36  37
ENDBRANCH   9  36
TORSDOF 8
ENDMDL
MODEL 8
REMARK VINA RESULT:      -9.3      6.216     10.293
REMARK  Name = NuBBE_387
REMARK  15 active torsions:
REMARK  status: ('A' for Active; 'I' for Inactive)
REMARK    1  A    between atoms: C_1  and  C_2
REMARK    2  A    between atoms: C_3  and  C_49
REMARK    3  A    between atoms: C_7  and  C_8
REMARK    4  A    between atoms: C_7  and  C_48
REMARK    5  A    between atoms: C_9  and  O_36
REMARK    6  A    between atoms: C_11  and  O_35
REMARK    7  A    between atoms: C_14  and  C_34
REMARK    8  A    between atoms: C_20  and  C_21
REMARK    9  A    between atoms: C_21  and  O_22
REMARK   10  A    between atoms: C_28  and  C_33
REMARK   11  A    between atoms: C_30  and  C_32
REMARK   12  A    between atoms: O_36  and  C_37
REMARK   13  A    between atoms: C_37  and  C_38
REMARK   14  A    between atoms: C_39  and  C_40
REMARK   15  A    between atoms: C_43  and  O_46
REMARK                            x       y       z     vdW  Elec       q    Type
REMARK                         _______ _______ _______ _____ _____    ______ ____
ROOT
ATOM      1  C   LIG A   1      -5.267  -0.688 127.692  0.00  0.00    +0.016 C 
ATOM      2  C   LIG A   1      -6.701  -0.190 127.325  0.00  0.00    -0.005 C 
ATOM      3  C   LIG A   1      -7.131   1.131 128.185  0.00  0.00    -0.019 C 
ATOM      4  C   LIG A   1      -7.033   0.847 129.712  0.00  0.00    +0.008 C 
ATOM      5  C   LIG A   1      -6.978   2.084 130.609  0.00  0.00    +0.005 C 
ATOM      6  C   LIG A   1      -5.821   2.977 130.142  0.00  0.00    +0.004 C 
ATOM      7  C   LIG A   1      -5.199   3.956 131.180  0.00  0.00    +0.008 C 
ATOM      8  C   LIG A   1      -6.059   5.195 131.469  0.00  0.00    +0.015 C 
ATOM      9  C   LIG A   1      -3.778   4.318 130.634  0.00  0.00    +0.211 C 
ATOM     10  C   LIG A   1      -3.655   4.454 129.095  0.00  0.00    +0.156 C 
ATOM     11  C   LIG A   1      -4.973   4.585 128.333  0.00  0.00    +0.042 C 
ATOM     12  C   LIG A   1      -6.120   3.587 128.725  0.00  0.00    -0.023 C 
ATOM     13  C   LIG A   1      -6.188   2.327 127.745  0.00  0.00    +0.006 C 
ATOM     14  C   LIG A   1      -6.427   2.626 126.255  0.00  0.00    +0.031 C 
ATOM     15  C   LIG A   1      -6.529   1.389 125.394  0.00  0.00    -0.026 C 
ATOM     16  C   LIG A   1      -6.676   0.108 125.805  0.00  0.00    -0.063 C 
ATOM     17  C   LIG A   1      -6.675  -1.118 124.823  0.00  0.00    +0.035 C 
ATOM     18  C   LIG A   1      -7.582  -2.324 125.282  0.00  0.00    +0.074 C 
ATOM     19  C   LIG A   1      -7.468  -2.591 126.800  0.00  0.00    +0.019 C 
ATOM     20  C   LIG A   1      -7.689  -1.343 127.639  0.00  0.00    +0.012 C 
ATOM     21  C   LIG A   1      -9.063  -2.063 124.916  0.00  0.00    +0.019 C 
ATOM     22  C   LIG A   1      -9.276  -1.777 123.433  0.00  0.00    +0.004 C 
ATOM     23  C   LIG A   1      -8.428  -0.609 122.922  0.00  0.00    -0.011 C 
ATOM     24  C   LIG A   1      -6.932  -0.754 123.305  0.00  0.00    -0.003 C 
ATOM     25  C   LIG A   1      -6.241  -1.730 122.332  0.00  0.00    +0.008 C 
ATOM     26  C   LIG A   1      -9.042   0.724 123.359  0.00  0.00    +0.008 C 
ATOM     27  C   LIG A   1      -7.421   4.435 128.661  0.00  0.00    +0.012 C 
ATOM     28  C   LIG A   1      -4.995   3.249 132.548  0.00  0.00    +0.015 C 
ATOM     29  C   LIG A   1      -8.631   1.466 127.894  0.00  0.00    +0.012 C 
ENDROOT
BRANCH  18  30
ATOM     30  C   LIG A   1      -7.085  -3.639 124.661  0.00  0.00    +0.311 C 
ATOM     31  O   LIG A   1      -5.945  -3.890 124.302  0.00  0.00    -0.250 OA
BRANCH  30  32
ATOM     32  O   LIG A   1      -8.020  -4.610 124.605  0.00  0.00    -0.480 OA
ATOM     33  H   LIG A   1      -7.829  -5.086 123.769  0.00  0.00    +0.295 HD
ENDBRANCH  30  32
ENDBRANCH  18  30
BRANCH  10  34
ATOM     34  O   LIG A   1      -2.943   3.339 128.549  0.00  0.00    -0.388 OA
ATOM     35  H   LIG A   1      -3.180   2.558 129.083  0.00  0.00    +0.210 HD
ENDBRANCH  10  34
BRANCH   9  36
ATOM     36  O   LIG A   1      -3.300   5.548 131.222  0.00  0.00    -0.455 OA
BRANCH  36  37
ATOM     37  C   LIG A   1      -2.141   5.454 131.922  0.00  0.00    +0.332 C 
ATOM     38  O   LIG A   1      -1.626   4.439 132.394  0.00  0.00    -0.246 OA
BRANCH  37  39
ATOM     39  C   LIG A   1      -1.544   6.799 131.930  0.00  0.00    +0.092 C 
ATOM     40  C   LIG A   1      -1.866   7.649 132.927  0.00  0.00    +0.015 C 
BRANCH  40  41
ATOM     41  C   LIG A   1      -1.302   8.994 133.068  0.00  0.00    -0.025 A 
ATOM     42  C   LIG A   1      -2.113  10.109 132.808  0.00  0.00    +0.011 A 
ATOM     43  C   LIG A   1      -1.587  11.403 132.875  0.00  0.00    +0.046 A 
ATOM     44  C   LIG A   1      -0.246  11.581 133.194  0.00  0.00    +0.117 A 
ATOM     45  C   LIG A   1       0.573  10.490 133.453  0.00  0.00    +0.046 A 
ATOM     46  C   LIG A   1       0.048   9.199 133.385  0.00  0.00    +0.011 A 
BRANCH  44  47
ATOM     47  O   LIG A   1       0.316  12.821 133.256  0.00  0.00    -0.507 OA
ATOM     48  H   LIG A   1      -0.143  13.334 133.941  0.00  0.00    +0.292 HD
ENDBRANCH  44  47
ENDBRANCH  40  41
ENDBRANCH  37  39
ENDBRANCH  36  37
ENDBRANCH   9  36
TORSDOF 8
ENDMDL
MODEL 9
REMARK VINA RESULT:      -9.2      2.307      3.860
REMARK  Name = NuBBE_387
REMARK  15 active torsions:
REMARK  status: ('A' for Active; 'I' for Inactive)
REMARK    1  A    between atoms: C_1  and  C_2
REMARK    2  A    between atoms: C_3  and  C_49
REMARK    3  A    between atoms: C_7  and  C_8
REMARK    4  A    between atoms: C_7  and  C_48
REMARK    5  A    between atoms: C_9  and  O_36
REMARK    6  A    between atoms: C_11  and  O_35
REMARK    7  A    between atoms: C_14  and  C_34
REMARK    8  A    between atoms: C_20  and  C_21
REMARK    9  A    between atoms: C_21  and  O_22
REMARK   10  A    between atoms: C_28  and  C_33
REMARK   11  A    between atoms: C_30  and  C_32
REMARK   12  A    between atoms: O_36  and  C_37
REMARK   13  A    between atoms: C_37  and  C_38
REMARK   14  A    between atoms: C_39  and  C_40
REMARK   15  A    between atoms: C_43  and  O_46
REMARK                            x       y       z     vdW  Elec       q    Type
REMARK                         _______ _______ _______ _____ _____    ______ ____
ROOT
ATOM      1  C   LIG A   1      -3.725  -0.609 131.901  0.00  0.00    +0.016 C 
ATOM      2  C   LIG A   1      -5.080  -0.541 132.676  0.00  0.00    -0.005 C 
ATOM      3  C   LIG A   1      -6.078   0.601 132.069  0.00  0.00    -0.019 C 
ATOM      4  C   LIG A   1      -5.383   1.994 132.071  0.00  0.00    +0.008 C 
ATOM      5  C   LIG A   1      -6.009   3.043 131.153  0.00  0.00    +0.005 C 
ATOM      6  C   LIG A   1      -6.083   2.470 129.732  0.00  0.00    +0.004 C 
ATOM      7  C   LIG A   1      -6.129   3.478 128.546  0.00  0.00    +0.008 C 
ATOM      8  C   LIG A   1      -7.491   4.161 128.357  0.00  0.00    +0.015 C 
ATOM      9  C   LIG A   1      -5.671   2.679 127.282  0.00  0.00    +0.211 C 
ATOM     10  C   LIG A   1      -6.123   1.198 127.211  0.00  0.00    +0.156 C 
ATOM     11  C   LIG A   1      -7.245   0.801 128.170  0.00  0.00    +0.042 C 
ATOM     12  C   LIG A   1      -7.110   1.283 129.658  0.00  0.00    -0.023 C 
ATOM     13  C   LIG A   1      -6.498   0.154 130.607  0.00  0.00    +0.006 C 
ATOM     14  C   LIG A   1      -7.279  -1.168 130.698  0.00  0.00    +0.031 C 
ATOM     15  C   LIG A   1      -6.672  -2.171 131.648  0.00  0.00    -0.026 C 
ATOM     16  C   LIG A   1      -5.705  -1.954 132.571  0.00  0.00    -0.063 C 
ATOM     17  C   LIG A   1      -5.076  -3.096 133.447  0.00  0.00    +0.035 C 
ATOM     18  C   LIG A   1      -4.621  -2.640 134.886  0.00  0.00    +0.074 C 
ATOM     19  C   LIG A   1      -3.932  -1.257 134.867  0.00  0.00    +0.019 C 
ATOM     20  C   LIG A   1      -4.753  -0.196 134.152  0.00  0.00    +0.012 C 
ATOM     21  C   LIG A   1      -5.829  -2.599 135.853  0.00  0.00    +0.019 C 
ATOM     22  C   LIG A   1      -6.584  -3.922 135.932  0.00  0.00    +0.004 C 
ATOM     23  C   LIG A   1      -7.062  -4.419 134.566  0.00  0.00    -0.011 C 
ATOM     24  C   LIG A   1      -5.925  -4.429 133.510  0.00  0.00    -0.003 C 
ATOM     25  C   LIG A   1      -5.051  -5.684 133.704  0.00  0.00    +0.008 C 
ATOM     26  C   LIG A   1      -8.300  -3.636 134.119  0.00  0.00    +0.008 C 
ATOM     27  C   LIG A   1      -8.555   1.668 130.081  0.00  0.00    +0.012 C 
ATOM     28  C   LIG A   1      -5.103   4.624 128.759  0.00  0.00    +0.015 C 
ATOM     29  C   LIG A   1      -7.331   0.732 132.995  0.00  0.00    +0.012 C 
ENDROOT
BRANCH  18  30
ATOM     30  C   LIG A   1      -3.520  -3.568 135.422  0.00  0.00    +0.311 C 
ATOM     31  O   LIG A   1      -3.532  -4.178 136.480  0.00  0.00    -0.250 OA
BRANCH  30  32
ATOM     32  O   LIG A   1      -2.495  -3.760 134.566  0.00  0.00    -0.480 OA
ATOM     33  H   LIG A   1      -2.487  -2.954 134.007  0.00  0.00    +0.295 HD
ENDBRANCH  30  32
ENDBRANCH  18  30
BRANCH  10  34
ATOM     34  O   LIG A   1      -5.015   0.324 127.449  0.00  0.00    -0.388 OA
ATOM     35  H   LIG A   1      -4.216   0.881 127.502  0.00  0.00    +0.210 HD
ENDBRANCH  10  34
BRANCH   9  36
ATOM     36  O   LIG A   1      -6.118   3.331 126.072  0.00  0.00    -0.455 OA
BRANCH  36  37
ATOM     37  C   LIG A   1      -5.137   3.838 125.280  0.00  0.00    +0.332 C 
ATOM     38  O   LIG A   1      -3.931   3.895 125.520  0.00  0.00    -0.246 OA
BRANCH  37  39
ATOM     39  C   LIG A   1      -5.778   4.222 124.013  0.00  0.00    +0.092 C 
ATOM     40  C   LIG A   1      -6.230   3.253 123.191  0.00  0.00    +0.015 C 
BRANCH  40  41
ATOM     41  C   LIG A   1      -6.925   3.512 121.927  0.00  0.00    -0.025 A 
ATOM     42  C   LIG A   1      -6.191   3.962 120.820  0.00  0.00    +0.011 A 
ATOM     43  C   LIG A   1      -6.835   4.276 119.618  0.00  0.00    +0.046 A 
ATOM     44  C   LIG A   1      -8.215   4.147 119.528  0.00  0.00    +0.117 A 
ATOM     45  C   LIG A   1      -8.960   3.704 120.614  0.00  0.00    +0.046 A 
ATOM     46  C   LIG A   1      -8.317   3.393 121.812  0.00  0.00    +0.011 A 
BRANCH  44  47
ATOM     47  O   LIG A   1      -8.889   4.455 118.385  0.00  0.00    -0.507 OA
ATOM     48  H   LIG A   1      -8.650   5.358 118.120  0.00  0.00    +0.292 HD
ENDBRANCH  44  47
ENDBRANCH  40  41
ENDBRANCH  37  39
ENDBRANCH  36  37
ENDBRANCH   9  36
TORSDOF 8
ENDMDL
