MODEL 1
REMARK VINA RESULT:      -9.8      0.000      0.000
REMARK  Name = NuBBE_73
REMARK  8 active torsions:
REMARK  status: ('A' for Active; 'I' for Inactive)
REMARK    1  A    between atoms: C_1  and  C_2
REMARK    2  A    between atoms: C_7  and  C_10
REMARK    3  A    between atoms: C_13  and  C_15
REMARK    4  A    between atoms: C_15  and  C_17
REMARK    5  A    between atoms: C_22  and  C_23
REMARK    6  A    between atoms: C_28  and  C_29
REMARK    7  A    between atoms: C_34  and  C_35
REMARK    8  A    between atoms: C_34  and  C_36
REMARK                            x       y       z     vdW  Elec       q    Type
REMARK                         _______ _______ _______ _____ _____    ______ ____
ROOT
ATOM      1  C   LIG A   1      -8.035  -2.846 127.576  0.00  0.00    +0.012 C 
ATOM      2  C   LIG A   1      -7.147  -1.589 127.834  0.00  0.00    -0.023 C 
ATOM      3  C   LIG A   1      -5.825  -1.631 126.983  0.00  0.00    -0.000 C 
ATOM      4  C   LIG A   1      -5.958  -1.454 125.444  0.00  0.00    +0.006 C 
ATOM      5  C   LIG A   1      -6.923  -0.313 125.037  0.00  0.00    -0.028 C 
ATOM      6  C   LIG A   1      -8.230  -0.313 125.856  0.00  0.00    +0.007 C 
ATOM      7  C   LIG A   1      -7.992  -0.364 127.371  0.00  0.00    +0.008 C 
ATOM      8  C   LIG A   1      -6.244   1.065 125.150  0.00  0.00    +0.011 C 
ATOM      9  C   LIG A   1      -7.192  -0.630 123.559  0.00  0.00    +0.007 C 
ATOM     10  C   LIG A   1      -7.294  -2.150 123.490  0.00  0.00    +0.009 C 
ATOM     11  C   LIG A   1      -6.369  -2.696 124.596  0.00  0.00    +0.018 C 
ATOM     12  C   LIG A   1      -4.933  -2.819 127.366  0.00  0.00    +0.005 C 
ATOM     13  C   LIG A   1      -4.586  -2.832 128.858  0.00  0.00    +0.005 C 
ATOM     14  C   LIG A   1      -5.828  -2.749 129.777  0.00  0.00    +0.002 C 
ATOM     15  C   LIG A   1      -6.733  -1.499 129.417  0.00  0.00    -0.023 C 
ATOM     16  C   LIG A   1      -5.988  -0.159 129.703  0.00  0.00    +0.012 C 
ATOM     17  C   LIG A   1      -7.987  -1.504 130.336  0.00  0.00    +0.008 C 
ATOM     18  C   LIG A   1      -7.691  -1.693 131.828  0.00  0.00    +0.005 C 
ATOM     19  C   LIG A   1      -6.905  -2.995 132.083  0.00  0.00    +0.008 C 
ATOM     20  C   LIG A   1      -5.522  -2.983 131.328  0.00  0.00    -0.025 C 
ATOM     21  C   LIG A   1      -4.515  -1.949 131.884  0.00  0.00    +0.012 C 
ATOM     22  C   LIG A   1      -4.899  -4.402 131.508  0.00  0.00    +0.015 C 
ATOM     23  C   LIG A   1      -4.781  -4.866 132.954  0.00  0.00    +0.075 C 
ATOM     24  C   LIG A   1      -6.091  -4.761 133.695  0.00  0.00    +0.139 C 
ATOM     25  O   LIG A   1      -6.436  -5.673 134.449  0.00  0.00    -0.297 OA
ATOM     26  C   LIG A   1      -6.876  -3.443 133.586  0.00  0.00    +0.027 C 
ATOM     27  C   LIG A   1      -6.257  -2.430 134.558  0.00  0.00    +0.019 C 
ATOM     28  C   LIG A   1      -8.320  -3.720 134.076  0.00  0.00    +0.019 C 
ENDROOT
BRANCH  11  29
ATOM     29  C   LIG A   1      -5.271  -3.577 124.002  0.00  0.00    -0.076 C 
ATOM     30  C   LIG A   1      -5.206  -4.916 124.084  0.00  0.00    +0.007 C 
ATOM     31  C   LIG A   1      -4.187  -2.820 123.273  0.00  0.00    +0.038 C 
ENDBRANCH  11  29
TORSDOF 1
ENDMDL
MODEL 2
REMARK VINA RESULT:      -9.2      4.524      8.372
REMARK  Name = NuBBE_73
REMARK  8 active torsions:
REMARK  status: ('A' for Active; 'I' for Inactive)
REMARK    1  A    between atoms: C_1  and  C_2
REMARK    2  A    between atoms: C_7  and  C_10
REMARK    3  A    between atoms: C_13  and  C_15
REMARK    4  A    between atoms: C_15  and  C_17
REMARK    5  A    between atoms: C_22  and  C_23
REMARK    6  A    between atoms: C_28  and  C_29
REMARK    7  A    between atoms: C_34  and  C_35
REMARK    8  A    between atoms: C_34  and  C_36
REMARK                            x       y       z     vdW  Elec       q    Type
REMARK                         _______ _______ _______ _____ _____    ______ ____
ROOT
ATOM      1  C   LIG A   1      -9.263   1.319 131.442  0.00  0.00    +0.012 C 
ATOM      2  C   LIG A   1      -7.766   1.656 131.155  0.00  0.00    -0.023 C 
ATOM      3  C   LIG A   1      -7.576   3.174 130.789  0.00  0.00    -0.000 C 
ATOM      4  C   LIG A   1      -7.790   4.216 131.923  0.00  0.00    +0.006 C 
ATOM      5  C   LIG A   1      -7.127   3.813 133.263  0.00  0.00    -0.028 C 
ATOM      6  C   LIG A   1      -7.358   2.331 133.623  0.00  0.00    +0.007 C 
ATOM      7  C   LIG A   1      -7.000   1.371 132.482  0.00  0.00    +0.008 C 
ATOM      8  C   LIG A   1      -5.615   4.112 133.255  0.00  0.00    +0.011 C 
ATOM      9  C   LIG A   1      -7.827   4.745 134.263  0.00  0.00    +0.007 C 
ATOM     10  C   LIG A   1      -9.278   4.807 133.800  0.00  0.00    +0.009 C 
ATOM     11  C   LIG A   1      -9.251   4.635 132.268  0.00  0.00    +0.018 C 
ATOM     12  C   LIG A   1      -8.310   3.549 129.495  0.00  0.00    +0.005 C 
ATOM     13  C   LIG A   1      -7.888   2.676 128.309  0.00  0.00    +0.005 C 
ATOM     14  C   LIG A   1      -8.001   1.159 128.594  0.00  0.00    +0.002 C 
ATOM     15  C   LIG A   1      -7.208   0.756 129.905  0.00  0.00    -0.023 C 
ATOM     16  C   LIG A   1      -5.673   0.972 129.730  0.00  0.00    +0.012 C 
ATOM     17  C   LIG A   1      -7.405  -0.764 130.165  0.00  0.00    +0.008 C 
ATOM     18  C   LIG A   1      -7.161  -1.663 128.947  0.00  0.00    +0.005 C 
ATOM     19  C   LIG A   1      -8.063  -1.258 127.763  0.00  0.00    +0.008 C 
ATOM     20  C   LIG A   1      -7.783   0.227 127.316  0.00  0.00    -0.025 C 
ATOM     21  C   LIG A   1      -6.390   0.434 126.675  0.00  0.00    +0.012 C 
ATOM     22  C   LIG A   1      -8.860   0.584 126.244  0.00  0.00    +0.015 C 
ATOM     23  C   LIG A   1      -8.936  -0.384 125.071  0.00  0.00    +0.075 C 
ATOM     24  C   LIG A   1      -9.088  -1.816 125.524  0.00  0.00    +0.139 C 
ATOM     25  O   LIG A   1      -9.875  -2.558 124.931  0.00  0.00    -0.297 OA
ATOM     26  C   LIG A   1      -8.140  -2.329 126.620  0.00  0.00    +0.027 C 
ATOM     27  C   LIG A   1      -6.797  -2.688 125.969  0.00  0.00    +0.019 C 
ATOM     28  C   LIG A   1      -8.741  -3.645 127.177  0.00  0.00    +0.019 C 
ENDROOT
BRANCH  11  29
ATOM     29  C   LIG A   1      -9.851   5.856 131.572  0.00  0.00    -0.076 C 
ATOM     30  C   LIG A   1     -11.161   6.115 131.429  0.00  0.00    +0.007 C 
ATOM     31  C   LIG A   1      -8.833   6.820 131.010  0.00  0.00    +0.038 C 
ENDBRANCH  11  29
TORSDOF 1
ENDMDL
MODEL 3
REMARK VINA RESULT:      -8.8      4.123      5.306
REMARK  Name = NuBBE_73
REMARK  8 active torsions:
REMARK  status: ('A' for Active; 'I' for Inactive)
REMARK    1  A    between atoms: C_1  and  C_2
REMARK    2  A    between atoms: C_7  and  C_10
REMARK    3  A    between atoms: C_13  and  C_15
REMARK    4  A    between atoms: C_15  and  C_17
REMARK    5  A    between atoms: C_22  and  C_23
REMARK    6  A    between atoms: C_28  and  C_29
REMARK    7  A    between atoms: C_34  and  C_35
REMARK    8  A    between atoms: C_34  and  C_36
REMARK                            x       y       z     vdW  Elec       q    Type
REMARK                         _______ _______ _______ _____ _____    ______ ____
ROOT
ATOM      1  C   LIG A   1      -7.437  -1.238 127.571  0.00  0.00    +0.012 C 
ATOM      2  C   LIG A   1      -7.800  -0.136 126.527  0.00  0.00    -0.023 C 
ATOM      3  C   LIG A   1      -6.975  -0.306 125.198  0.00  0.00    -0.000 C 
ATOM      4  C   LIG A   1      -7.306  -1.532 124.301  0.00  0.00    +0.006 C 
ATOM      5  C   LIG A   1      -8.826  -1.772 124.124  0.00  0.00    -0.028 C 
ATOM      6  C   LIG A   1      -9.612  -1.640 125.446  0.00  0.00    +0.007 C 
ATOM      7  C   LIG A   1      -9.310  -0.338 126.198  0.00  0.00    +0.008 C 
ATOM      8  C   LIG A   1      -9.427  -0.823 123.070  0.00  0.00    +0.011 C 
ATOM      9  C   LIG A   1      -8.865  -3.213 123.595  0.00  0.00    +0.007 C 
ATOM     10  C   LIG A   1      -7.781  -3.952 124.371  0.00  0.00    +0.009 C 
ATOM     11  C   LIG A   1      -6.689  -2.910 124.686  0.00  0.00    +0.018 C 
ATOM     12  C   LIG A   1      -5.469  -0.134 125.431  0.00  0.00    +0.005 C 
ATOM     13  C   LIG A   1      -5.127   1.210 126.082  0.00  0.00    +0.005 C 
ATOM     14  C   LIG A   1      -5.927   1.484 127.378  0.00  0.00    +0.002 C 
ATOM     15  C   LIG A   1      -7.487   1.353 127.136  0.00  0.00    -0.023 C 
ATOM     16  C   LIG A   1      -8.005   2.452 126.159  0.00  0.00    +0.012 C 
ATOM     17  C   LIG A   1      -8.227   1.584 128.483  0.00  0.00    +0.008 C 
ATOM     18  C   LIG A   1      -7.786   2.834 129.253  0.00  0.00    +0.005 C 
ATOM     19  C   LIG A   1      -6.270   2.811 129.537  0.00  0.00    +0.008 C 
ATOM     20  C   LIG A   1      -5.440   2.766 128.198  0.00  0.00    -0.025 C 
ATOM     21  C   LIG A   1      -5.535   4.064 127.361  0.00  0.00    +0.012 C 
ATOM     22  C   LIG A   1      -3.946   2.567 128.601  0.00  0.00    +0.015 C 
ATOM     23  C   LIG A   1      -3.413   3.590 129.596  0.00  0.00    +0.075 C 
ATOM     24  C   LIG A   1      -4.287   3.702 130.821  0.00  0.00    +0.139 C 
ATOM     25  O   LIG A   1      -3.761   3.787 131.934  0.00  0.00    -0.297 OA
ATOM     26  C   LIG A   1      -5.803   3.850 130.614  0.00  0.00    +0.027 C 
ATOM     27  C   LIG A   1      -6.103   5.318 130.279  0.00  0.00    +0.019 C 
ATOM     28  C   LIG A   1      -6.490   3.544 131.969  0.00  0.00    +0.019 C 
ENDROOT
BRANCH  11  29
ATOM     29  C   LIG A   1      -5.353  -3.317 124.067  0.00  0.00    -0.076 C 
ATOM     30  C   LIG A   1      -4.505  -4.236 124.558  0.00  0.00    +0.007 C 
ATOM     31  C   LIG A   1      -5.004  -2.585 122.793  0.00  0.00    +0.038 C 
ENDBRANCH  11  29
TORSDOF 1
ENDMDL
MODEL 4
REMARK VINA RESULT:      -8.8      4.243      8.463
REMARK  Name = NuBBE_73
REMARK  8 active torsions:
REMARK  status: ('A' for Active; 'I' for Inactive)
REMARK    1  A    between atoms: C_1  and  C_2
REMARK    2  A    between atoms: C_7  and  C_10
REMARK    3  A    between atoms: C_13  and  C_15
REMARK    4  A    between atoms: C_15  and  C_17
REMARK    5  A    between atoms: C_22  and  C_23
REMARK    6  A    between atoms: C_28  and  C_29
REMARK    7  A    between atoms: C_34  and  C_35
REMARK    8  A    between atoms: C_34  and  C_36
REMARK                            x       y       z     vdW  Elec       q    Type
REMARK                         _______ _______ _______ _____ _____    ______ ____
ROOT
ATOM      1  C   LIG A   1      -6.866   0.738 129.404  0.00  0.00    +0.012 C 
ATOM      2  C   LIG A   1      -5.851   1.565 128.554  0.00  0.00    -0.023 C 
ATOM      3  C   LIG A   1      -6.239   3.088 128.513  0.00  0.00    -0.000 C 
ATOM      4  C   LIG A   1      -6.089   3.902 129.829  0.00  0.00    +0.006 C 
ATOM      5  C   LIG A   1      -4.764   3.618 130.580  0.00  0.00    -0.028 C 
ATOM      6  C   LIG A   1      -4.422   2.115 130.644  0.00  0.00    +0.007 C 
ATOM      7  C   LIG A   1      -4.476   1.426 129.275  0.00  0.00    +0.008 C 
ATOM      8  C   LIG A   1      -3.586   4.388 129.953  0.00  0.00    +0.011 C 
ATOM      9  C   LIG A   1      -5.058   4.182 131.978  0.00  0.00    +0.007 C 
ATOM     10  C   LIG A   1      -6.510   3.812 132.258  0.00  0.00    +0.009 C 
ATOM     11  C   LIG A   1      -7.224   3.794 130.891  0.00  0.00    +0.018 C 
ATOM     12  C   LIG A   1      -7.592   3.318 127.827  0.00  0.00    +0.005 C 
ATOM     13  C   LIG A   1      -7.637   2.736 126.411  0.00  0.00    +0.005 C 
ATOM     14  C   LIG A   1      -7.226   1.245 126.348  0.00  0.00    +0.002 C 
ATOM     15  C   LIG A   1      -5.809   1.006 127.014  0.00  0.00    -0.023 C 
ATOM     16  C   LIG A   1      -4.677   1.721 126.214  0.00  0.00    +0.012 C 
ATOM     17  C   LIG A   1      -5.480  -0.513 126.968  0.00  0.00    +0.008 C 
ATOM     18  C   LIG A   1      -5.683  -1.174 125.599  0.00  0.00    +0.005 C 
ATOM     19  C   LIG A   1      -7.126  -0.980 125.091  0.00  0.00    +0.008 C 
ATOM     20  C   LIG A   1      -7.472   0.549 124.931  0.00  0.00    -0.025 C 
ATOM     21  C   LIG A   1      -6.692   1.251 123.794  0.00  0.00    +0.012 C 
ATOM     22  C   LIG A   1      -8.993   0.632 124.589  0.00  0.00    +0.015 C 
ATOM     23  C   LIG A   1      -9.421  -0.202 123.389  0.00  0.00    +0.075 C 
ATOM     24  C   LIG A   1      -8.978  -1.640 123.508  0.00  0.00    +0.139 C 
ATOM     25  O   LIG A   1      -9.755  -2.542 123.183  0.00  0.00    -0.297 OA
ATOM     26  C   LIG A   1      -7.515  -1.913 123.894  0.00  0.00    +0.027 C 
ATOM     27  C   LIG A   1      -6.648  -1.760 122.637  0.00  0.00    +0.019 C 
ATOM     28  C   LIG A   1      -7.420  -3.397 124.334  0.00  0.00    +0.019 C 
ENDROOT
BRANCH  11  29
ATOM     29  C   LIG A   1      -8.362   4.811 130.858  0.00  0.00    -0.076 C 
ATOM     30  C   LIG A   1      -9.666   4.530 130.692  0.00  0.00    +0.007 C 
ATOM     31  C   LIG A   1      -7.925   6.247 131.024  0.00  0.00    +0.038 C 
ENDBRANCH  11  29
TORSDOF 1
ENDMDL
MODEL 5
REMARK VINA RESULT:      -8.7      4.448      7.547
REMARK  Name = NuBBE_73
REMARK  8 active torsions:
REMARK  status: ('A' for Active; 'I' for Inactive)
REMARK    1  A    between atoms: C_1  and  C_2
REMARK    2  A    between atoms: C_7  and  C_10
REMARK    3  A    between atoms: C_13  and  C_15
REMARK    4  A    between atoms: C_15  and  C_17
REMARK    5  A    between atoms: C_22  and  C_23
REMARK    6  A    between atoms: C_28  and  C_29
REMARK    7  A    between atoms: C_34  and  C_35
REMARK    8  A    between atoms: C_34  and  C_36
REMARK                            x       y       z     vdW  Elec       q    Type
REMARK                         _______ _______ _______ _____ _____    ______ ____
ROOT
ATOM      1  C   LIG A   1      -7.689  -0.279 130.120  0.00  0.00    +0.012 C 
ATOM      2  C   LIG A   1      -6.204   0.153 130.330  0.00  0.00    -0.023 C 
ATOM      3  C   LIG A   1      -5.553  -0.592 131.553  0.00  0.00    -0.000 C 
ATOM      4  C   LIG A   1      -5.287  -2.116 131.403  0.00  0.00    +0.006 C 
ATOM      5  C   LIG A   1      -4.664  -2.501 130.038  0.00  0.00    -0.028 C 
ATOM      6  C   LIG A   1      -5.342  -1.790 128.849  0.00  0.00    +0.007 C 
ATOM      7  C   LIG A   1      -5.447  -0.272 129.035  0.00  0.00    +0.008 C 
ATOM      8  C   LIG A   1      -3.149  -2.220 130.011  0.00  0.00    +0.011 C 
ATOM      9  C   LIG A   1      -4.903  -4.018 129.991  0.00  0.00    +0.007 C 
ATOM     10  C   LIG A   1      -6.288  -4.221 130.594  0.00  0.00    +0.009 C 
ATOM     11  C   LIG A   1      -6.478  -3.095 131.631  0.00  0.00    +0.018 C 
ATOM     12  C   LIG A   1      -6.247  -0.240 132.875  0.00  0.00    +0.005 C 
ATOM     13  C   LIG A   1      -6.268   1.268 133.141  0.00  0.00    +0.005 C 
ATOM     14  C   LIG A   1      -6.854   2.090 131.968  0.00  0.00    +0.002 C 
ATOM     15  C   LIG A   1      -6.113   1.766 130.606  0.00  0.00    -0.023 C 
ATOM     16  C   LIG A   1      -4.622   2.220 130.649  0.00  0.00    +0.012 C 
ATOM     17  C   LIG A   1      -6.783   2.579 129.462  0.00  0.00    +0.008 C 
ATOM     18  C   LIG A   1      -6.982   4.069 129.763  0.00  0.00    +0.005 C 
ATOM     19  C   LIG A   1      -7.811   4.275 131.047  0.00  0.00    +0.008 C 
ATOM     20  C   LIG A   1      -7.095   3.635 132.297  0.00  0.00    -0.025 C 
ATOM     21  C   LIG A   1      -5.787   4.354 132.704  0.00  0.00    +0.012 C 
ATOM     22  C   LIG A   1      -8.093   3.744 133.492  0.00  0.00    +0.015 C 
ATOM     23  C   LIG A   1      -8.611   5.151 133.761  0.00  0.00    +0.075 C 
ATOM     24  C   LIG A   1      -9.188   5.792 132.523  0.00  0.00    +0.139 C 
ATOM     25  O   LIG A   1     -10.236   6.438 132.607  0.00  0.00    -0.297 OA
ATOM     26  C   LIG A   1      -8.361   5.732 131.228  0.00  0.00    +0.027 C 
ATOM     27  C   LIG A   1      -7.291   6.832 131.287  0.00  0.00    +0.019 C 
ATOM     28  C   LIG A   1      -9.310   6.083 130.053  0.00  0.00    +0.019 C 
ENDROOT
BRANCH  11  29
ATOM     29  C   LIG A   1      -6.700  -3.672 133.027  0.00  0.00    -0.076 C 
ATOM     30  C   LIG A   1      -5.888  -4.535 133.661  0.00  0.00    +0.007 C 
ATOM     31  C   LIG A   1      -7.964  -3.201 133.707  0.00  0.00    +0.038 C 
ENDBRANCH  11  29
TORSDOF 1
ENDMDL
MODEL 6
REMARK VINA RESULT:      -8.6      3.583      5.605
REMARK  Name = NuBBE_73
REMARK  8 active torsions:
REMARK  status: ('A' for Active; 'I' for Inactive)
REMARK    1  A    between atoms: C_1  and  C_2
REMARK    2  A    between atoms: C_7  and  C_10
REMARK    3  A    between atoms: C_13  and  C_15
REMARK    4  A    between atoms: C_15  and  C_17
REMARK    5  A    between atoms: C_22  and  C_23
REMARK    6  A    between atoms: C_28  and  C_29
REMARK    7  A    between atoms: C_34  and  C_35
REMARK    8  A    between atoms: C_34  and  C_36
REMARK                            x       y       z     vdW  Elec       q    Type
REMARK                         _______ _______ _______ _____ _____    ______ ____
ROOT
ATOM      1  C   LIG A   1      -5.652   0.365 126.253  0.00  0.00    +0.012 C 
ATOM      2  C   LIG A   1      -6.660  -0.497 127.076  0.00  0.00    -0.023 C 
ATOM      3  C   LIG A   1      -8.119  -0.387 126.498  0.00  0.00    -0.000 C 
ATOM      4  C   LIG A   1      -8.393  -1.044 125.117  0.00  0.00    +0.006 C 
ATOM      5  C   LIG A   1      -7.772  -2.456 124.972  0.00  0.00    -0.028 C 
ATOM      6  C   LIG A   1      -6.328  -2.533 125.508  0.00  0.00    +0.007 C 
ATOM      7  C   LIG A   1      -6.182  -1.973 126.929  0.00  0.00    +0.008 C 
ATOM      8  C   LIG A   1      -8.637  -3.525 125.667  0.00  0.00    +0.011 C 
ATOM      9  C   LIG A   1      -7.815  -2.673 123.453  0.00  0.00    +0.007 C 
ATOM     10  C   LIG A   1      -7.465  -1.319 122.847  0.00  0.00    +0.009 C 
ATOM     11  C   LIG A   1      -7.986  -0.256 123.836  0.00  0.00    +0.018 C 
ATOM     12  C   LIG A   1      -8.667   1.042 126.593  0.00  0.00    +0.005 C 
ATOM     13  C   LIG A   1      -8.637   1.587 128.024  0.00  0.00    +0.005 C 
ATOM     14  C   LIG A   1      -7.245   1.480 128.691  0.00  0.00    +0.002 C 
ATOM     15  C   LIG A   1      -6.690  -0.003 128.638  0.00  0.00    -0.023 C 
ATOM     16  C   LIG A   1      -7.569  -0.969 129.490  0.00  0.00    +0.012 C 
ATOM     17  C   LIG A   1      -5.271  -0.033 129.273  0.00  0.00    +0.008 C 
ATOM     18  C   LIG A   1      -5.161   0.662 130.635  0.00  0.00    +0.005 C 
ATOM     19  C   LIG A   1      -5.619   2.132 130.554  0.00  0.00    +0.008 C 
ATOM     20  C   LIG A   1      -7.123   2.236 130.094  0.00  0.00    -0.025 C 
ATOM     21  C   LIG A   1      -8.133   1.698 131.135  0.00  0.00    +0.012 C 
ATOM     22  C   LIG A   1      -7.423   3.751 129.875  0.00  0.00    +0.015 C 
ATOM     23  C   LIG A   1      -7.105   4.642 131.069  0.00  0.00    +0.075 C 
ATOM     24  C   LIG A   1      -5.695   4.443 131.569  0.00  0.00    +0.139 C 
ATOM     25  O   LIG A   1      -5.023   5.425 131.892  0.00  0.00    -0.297 OA
ATOM     26  C   LIG A   1      -5.206   3.002 131.791  0.00  0.00    +0.027 C 
ATOM     27  C   LIG A   1      -5.743   2.513 133.143  0.00  0.00    +0.019 C 
ATOM     28  C   LIG A   1      -3.660   3.048 131.905  0.00  0.00    +0.019 C 
ENDROOT
BRANCH  11  29
ATOM     29  C   LIG A   1      -9.020   0.649 123.168  0.00  0.00    -0.076 C 
ATOM     30  C   LIG A   1     -10.137   0.240 122.544  0.00  0.00    +0.007 C 
ATOM     31  C   LIG A   1      -8.703   2.123 123.241  0.00  0.00    +0.038 C 
ENDBRANCH  11  29
TORSDOF 1
ENDMDL
MODEL 7
REMARK VINA RESULT:      -8.5      4.889      8.816
REMARK  Name = NuBBE_73
REMARK  8 active torsions:
REMARK  status: ('A' for Active; 'I' for Inactive)
REMARK    1  A    between atoms: C_1  and  C_2
REMARK    2  A    between atoms: C_7  and  C_10
REMARK    3  A    between atoms: C_13  and  C_15
REMARK    4  A    between atoms: C_15  and  C_17
REMARK    5  A    between atoms: C_22  and  C_23
REMARK    6  A    between atoms: C_28  and  C_29
REMARK    7  A    between atoms: C_34  and  C_35
REMARK    8  A    between atoms: C_34  and  C_36
REMARK                            x       y       z     vdW  Elec       q    Type
REMARK                         _______ _______ _______ _____ _____    ______ ____
ROOT
ATOM      1  C   LIG A   1      -4.775   2.340 129.374  0.00  0.00    +0.012 C 
ATOM      2  C   LIG A   1      -4.660   3.296 128.145  0.00  0.00    -0.023 C 
ATOM      3  C   LIG A   1      -5.406   4.657 128.400  0.00  0.00    -0.000 C 
ATOM      4  C   LIG A   1      -4.790   5.625 129.449  0.00  0.00    +0.006 C 
ATOM      5  C   LIG A   1      -3.254   5.772 129.324  0.00  0.00    -0.028 C 
ATOM      6  C   LIG A   1      -2.537   4.422 129.114  0.00  0.00    +0.007 C 
ATOM      7  C   LIG A   1      -3.139   3.592 127.973  0.00  0.00    +0.008 C 
ATOM      8  C   LIG A   1      -2.872   6.740 128.187  0.00  0.00    +0.011 C 
ATOM      9  C   LIG A   1      -2.878   6.398 130.675  0.00  0.00    +0.007 C 
ATOM     10  C   LIG A   1      -3.774   5.707 131.696  0.00  0.00    +0.009 C 
ATOM     11  C   LIG A   1      -5.081   5.353 130.956  0.00  0.00    +0.018 C 
ATOM     12  C   LIG A   1      -6.914   4.457 128.593  0.00  0.00    +0.005 C 
ATOM     13  C   LIG A   1      -7.564   3.727 127.414  0.00  0.00    +0.005 C 
ATOM     14  C   LIG A   1      -6.866   2.391 127.061  0.00  0.00    +0.002 C 
ATOM     15  C   LIG A   1      -5.314   2.596 126.816  0.00  0.00    -0.023 C 
ATOM     16  C   LIG A   1      -5.049   3.479 125.558  0.00  0.00    +0.012 C 
ATOM     17  C   LIG A   1      -4.664   1.214 126.521  0.00  0.00    +0.008 C 
ATOM     18  C   LIG A   1      -5.391   0.374 125.465  0.00  0.00    +0.005 C 
ATOM     19  C   LIG A   1      -6.865   0.137 125.854  0.00  0.00    +0.008 C 
ATOM     20  C   LIG A   1      -7.644   1.500 125.987  0.00  0.00    -0.025 C 
ATOM     21  C   LIG A   1      -7.838   2.244 124.644  0.00  0.00    +0.012 C 
ATOM     22  C   LIG A   1      -9.058   1.156 126.551  0.00  0.00    +0.015 C 
ATOM     23  C   LIG A   1      -9.825   0.111 125.752  0.00  0.00    +0.075 C 
ATOM     24  C   LIG A   1      -9.017  -1.145 125.535  0.00  0.00    +0.139 C 
ATOM     25  O   LIG A   1      -9.563  -2.245 125.653  0.00  0.00    -0.297 OA
ATOM     26  C   LIG A   1      -7.572  -0.994 125.030  0.00  0.00    +0.027 C 
ATOM     27  C   LIG A   1      -7.612  -0.769 123.512  0.00  0.00    +0.019 C 
ATOM     28  C   LIG A   1      -6.851  -2.345 125.271  0.00  0.00    +0.019 C 
ENDROOT
BRANCH  11  29
ATOM     29  C   LIG A   1      -6.279   6.039 131.610  0.00  0.00    -0.076 C 
ATOM     30  C   LIG A   1      -7.003   7.037 131.076  0.00  0.00    +0.007 C 
ATOM     31  C   LIG A   1      -6.632   5.512 132.981  0.00  0.00    +0.038 C 
ENDBRANCH  11  29
TORSDOF 1
ENDMDL
MODEL 8
REMARK VINA RESULT:      -8.5      1.566      2.169
REMARK  Name = NuBBE_73
REMARK  8 active torsions:
REMARK  status: ('A' for Active; 'I' for Inactive)
REMARK    1  A    between atoms: C_1  and  C_2
REMARK    2  A    between atoms: C_7  and  C_10
REMARK    3  A    between atoms: C_13  and  C_15
REMARK    4  A    between atoms: C_15  and  C_17
REMARK    5  A    between atoms: C_22  and  C_23
REMARK    6  A    between atoms: C_28  and  C_29
REMARK    7  A    between atoms: C_34  and  C_35
REMARK    8  A    between atoms: C_34  and  C_36
REMARK                            x       y       z     vdW  Elec       q    Type
REMARK                         _______ _______ _______ _____ _____    ______ ____
ROOT
ATOM      1  C   LIG A   1      -8.536  -0.520 127.474  0.00  0.00    +0.012 C 
ATOM      2  C   LIG A   1      -7.154   0.204 127.444  0.00  0.00    -0.023 C 
ATOM      3  C   LIG A   1      -6.304  -0.227 126.192  0.00  0.00    -0.000 C 
ATOM      4  C   LIG A   1      -6.795   0.246 124.796  0.00  0.00    +0.006 C 
ATOM      5  C   LIG A   1      -7.233   1.731 124.767  0.00  0.00    -0.028 C 
ATOM      6  C   LIG A   1      -8.099   2.124 125.982  0.00  0.00    +0.007 C 
ATOM      7  C   LIG A   1      -7.470   1.726 127.323  0.00  0.00    +0.008 C 
ATOM      8  C   LIG A   1      -6.018   2.674 124.674  0.00  0.00    +0.011 C 
ATOM      9  C   LIG A   1      -8.039   1.805 123.462  0.00  0.00    +0.007 C 
ATOM     10  C   LIG A   1      -8.813   0.494 123.397  0.00  0.00    +0.009 C 
ATOM     11  C   LIG A   1      -7.940  -0.560 124.110  0.00  0.00    +0.018 C 
ATOM     12  C   LIG A   1      -5.955  -1.721 126.223  0.00  0.00    +0.005 C 
ATOM     13  C   LIG A   1      -5.225  -2.125 127.506  0.00  0.00    +0.005 C 
ATOM     14  C   LIG A   1      -5.970  -1.701 128.795  0.00  0.00    +0.002 C 
ATOM     15  C   LIG A   1      -6.295  -0.151 128.793  0.00  0.00    -0.023 C 
ATOM     16  C   LIG A   1      -4.990   0.703 128.838  0.00  0.00    +0.012 C 
ATOM     17  C   LIG A   1      -7.088   0.200 130.083  0.00  0.00    +0.008 C 
ATOM     18  C   LIG A   1      -6.478  -0.342 131.381  0.00  0.00    +0.005 C 
ATOM     19  C   LIG A   1      -6.308  -1.874 131.324  0.00  0.00    +0.008 C 
ATOM     20  C   LIG A   1      -5.353  -2.297 130.143  0.00  0.00    -0.025 C 
ATOM     21  C   LIG A   1      -3.880  -1.871 130.347  0.00  0.00    +0.012 C 
ATOM     22  C   LIG A   1      -5.395  -3.855 130.068  0.00  0.00    +0.015 C 
ATOM     23  C   LIG A   1      -5.070  -4.564 131.377  0.00  0.00    +0.075 C 
ATOM     24  C   LIG A   1      -5.916  -4.062 132.522  0.00  0.00    +0.139 C 
ATOM     25  O   LIG A   1      -6.385  -4.869 133.327  0.00  0.00    -0.297 OA
ATOM     26  C   LIG A   1      -6.035  -2.541 132.716  0.00  0.00    +0.027 C 
ATOM     27  C   LIG A   1      -4.776  -2.047 133.442  0.00  0.00    +0.019 C 
ATOM     28  C   LIG A   1      -7.236  -2.286 133.662  0.00  0.00    +0.019 C 
ENDROOT
BRANCH  11  29
ATOM     29  C   LIG A   1      -7.572  -1.696 123.158  0.00  0.00    -0.076 C 
ATOM     30  C   LIG A   1      -6.422  -1.807 122.471  0.00  0.00    +0.007 C 
ATOM     31  C   LIG A   1      -8.636  -2.758 123.009  0.00  0.00    +0.038 C 
ENDBRANCH  11  29
TORSDOF 1
ENDMDL
MODEL 9
REMARK VINA RESULT:      -8.5      2.069      4.082
REMARK  Name = NuBBE_73
REMARK  8 active torsions:
REMARK  status: ('A' for Active; 'I' for Inactive)
REMARK    1  A    between atoms: C_1  and  C_2
REMARK    2  A    between atoms: C_7  and  C_10
REMARK    3  A    between atoms: C_13  and  C_15
REMARK    4  A    between atoms: C_15  and  C_17
REMARK    5  A    between atoms: C_22  and  C_23
REMARK    6  A    between atoms: C_28  and  C_29
REMARK    7  A    between atoms: C_34  and  C_35
REMARK    8  A    between atoms: C_34  and  C_36
REMARK                            x       y       z     vdW  Elec       q    Type
REMARK                         _______ _______ _______ _____ _____    ______ ____
ROOT
ATOM      1  C   LIG A   1      -5.388  -1.281 126.541  0.00  0.00    +0.012 C 
ATOM      2  C   LIG A   1      -6.796  -1.857 126.891  0.00  0.00    -0.023 C 
ATOM      3  C   LIG A   1      -7.948  -0.954 126.315  0.00  0.00    -0.000 C 
ATOM      4  C   LIG A   1      -8.134  -0.928 124.772  0.00  0.00    +0.006 C 
ATOM      5  C   LIG A   1      -8.058  -2.330 124.119  0.00  0.00    -0.028 C 
ATOM      6  C   LIG A   1      -6.897  -3.185 124.669  0.00  0.00    +0.007 C 
ATOM      7  C   LIG A   1      -6.872  -3.252 126.201  0.00  0.00    +0.008 C 
ATOM      8  C   LIG A   1      -9.384  -3.098 124.279  0.00  0.00    +0.011 C 
ATOM      9  C   LIG A   1      -7.843  -1.985 122.638  0.00  0.00    +0.007 C 
ATOM     10  C   LIG A   1      -6.897  -0.790 122.642  0.00  0.00    +0.009 C 
ATOM     11  C   LIG A   1      -7.195  -0.006 123.937  0.00  0.00    +0.018 C 
ATOM     12  C   LIG A   1      -7.941   0.449 126.934  0.00  0.00    +0.005 C 
ATOM     13  C   LIG A   1      -8.028   0.416 128.463  0.00  0.00    +0.005 C 
ATOM     14  C   LIG A   1      -6.955  -0.487 129.118  0.00  0.00    +0.002 C 
ATOM     15  C   LIG A   1      -6.985  -1.952 128.516  0.00  0.00    -0.023 C 
ATOM     16  C   LIG A   1      -8.321  -2.681 128.860  0.00  0.00    +0.012 C 
ATOM     17  C   LIG A   1      -5.852  -2.790 129.173  0.00  0.00    +0.008 C 
ATOM     18  C   LIG A   1      -5.797  -2.709 130.703  0.00  0.00    +0.005 C 
ATOM     19  C   LIG A   1      -5.655  -1.250 131.183  0.00  0.00    +0.008 C 
ATOM     20  C   LIG A   1      -6.875  -0.373 130.709  0.00  0.00    -0.025 C 
ATOM     21  C   LIG A   1      -8.214  -0.748 131.388  0.00  0.00    +0.012 C 
ATOM     22  C   LIG A   1      -6.544   1.103 131.091  0.00  0.00    +0.015 C 
ATOM     23  C   LIG A   1      -6.192   1.318 132.557  0.00  0.00    +0.075 C 
ATOM     24  C   LIG A   1      -5.099   0.387 133.023  0.00  0.00    +0.139 C 
ATOM     25  O   LIG A   1      -4.203   0.822 133.750  0.00  0.00    -0.297 OA
ATOM     26  C   LIG A   1      -5.233  -1.107 132.686  0.00  0.00    +0.027 C 
ATOM     27  C   LIG A   1      -6.195  -1.746 133.698  0.00  0.00    +0.019 C 
ATOM     28  C   LIG A   1      -3.844  -1.760 132.904  0.00  0.00    +0.019 C 
ENDROOT
BRANCH  11  29
ATOM     29  C   LIG A   1      -7.653   1.416 123.619  0.00  0.00    -0.076 C 
ATOM     30  C   LIG A   1      -6.852   2.483 123.456  0.00  0.00    +0.007 C 
ATOM     31  C   LIG A   1      -9.149   1.580 123.494  0.00  0.00    +0.038 C 
ENDBRANCH  11  29
TORSDOF 1
ENDMDL
