MODEL 1
REMARK VINA RESULT:      -9.2      0.000      0.000
REMARK  Name = NuBBE_1113
REMARK  13 active torsions:
REMARK  status: ('A' for Active; 'I' for Inactive)
REMARK    1  A    between atoms: C_1  and  C_2
REMARK    2  A    between atoms: C_4  and  O_6
REMARK    3  A    between atoms: C_14  and  C_15
REMARK    4  A    between atoms: C_19  and  C_21
REMARK    5  A    between atoms: C_21  and  C_23
REMARK    6  A    between atoms: C_21  and  C_24
REMARK    7  A    between atoms: C_24  and  C_25
REMARK    8  A    between atoms: C_25  and  C_26
REMARK    9  A    between atoms: C_26  and  C_28
REMARK   10  A    between atoms: C_26  and  C_30
REMARK   11  A    between atoms: C_28  and  C_29
REMARK   12  A    between atoms: C_30  and  C_31
REMARK   13  A    between atoms: C_30  and  C_32
REMARK                            x       y       z     vdW  Elec       q    Type
REMARK                         _______ _______ _______ _____ _____    ______ ____
ROOT
ATOM      1  C   LIG A   1      -8.308  -3.006 129.433  0.00  0.00    +0.016 C 
ATOM      2  C   LIG A   1      -7.171  -2.513 128.489  0.00  0.00    -0.005 C 
ATOM      3  C   LIG A   1      -6.933  -1.005 128.549  0.00  0.00    -0.032 C 
ATOM      4  C   LIG A   1      -5.870  -0.509 127.581  0.00  0.00    +0.142 C 
ATOM      5  C   LIG A   1      -6.207  -0.871 126.147  0.00  0.00    +0.040 C 
ATOM      6  C   LIG A   1      -6.500  -2.364 125.927  0.00  0.00    -0.001 C 
ATOM      7  C   LIG A   1      -7.436  -2.997 127.011  0.00  0.00    +0.003 C 
ATOM      8  C   LIG A   1      -8.924  -2.962 126.565  0.00  0.00    +0.005 C 
ATOM      9  C   LIG A   1      -9.240  -1.903 125.517  0.00  0.00    +0.007 C 
ATOM     10  C   LIG A   1      -8.473  -2.126 124.207  0.00  0.00    -0.026 C 
ATOM     11  C   LIG A   1      -9.243  -3.193 123.374  0.00  0.00    +0.012 C 
ATOM     12  C   LIG A   1      -7.044  -2.686 124.500  0.00  0.00    -0.001 C 
ATOM     13  C   LIG A   1      -6.194  -2.180 123.338  0.00  0.00    +0.004 C 
ATOM     14  C   LIG A   1      -6.766  -0.824 122.965  0.00  0.00    +0.004 C 
ATOM     15  C   LIG A   1      -8.282  -0.875 123.262  0.00  0.00    -0.002 C 
ATOM     16  C   LIG A   1      -7.027  -0.411 129.755  0.00  0.00    +0.048 C 
ATOM     17  C   LIG A   1      -6.003  -1.018 130.684  0.00  0.00    +0.156 C 
ATOM     18  C   LIG A   1      -5.335  -2.352 130.326  0.00  0.00    +0.080 C 
ATOM     19  C   LIG A   1      -5.851  -3.099 129.069  0.00  0.00    +0.019 C 
ATOM     20  O   LIG A   1      -5.780  -0.455 131.760  0.00  0.00    -0.293 OA
ENDROOT
BRANCH   4  21
ATOM     21  O   LIG A   1      -5.730   0.905 127.668  0.00  0.00    -0.388 OA
ATOM     22  H   LIG A   1      -4.844   1.095 128.021  0.00  0.00    +0.210 HD
ENDBRANCH   4  21
BRANCH  15  23
ATOM     23  C   LIG A   1      -8.843   0.537 123.645  0.00  0.00    -0.010 C 
ATOM     24  C   LIG A   1      -9.904   1.083 122.678  0.00  0.00    +0.008 C 
BRANCH  23  25
ATOM     25  C   LIG A   1      -7.705   1.598 123.785  0.00  0.00    +0.004 C 
BRANCH  25  26
ATOM     26  C   LIG A   1      -7.934   2.860 122.939  0.00  0.00    +0.004 C 
BRANCH  26  27
ATOM     27  C   LIG A   1      -6.849   3.143 121.876  0.00  0.00    -0.009 C 
BRANCH  27  28
ATOM     28  C   LIG A   1      -5.590   3.779 122.549  0.00  0.00    -0.014 C 
ATOM     29  C   LIG A   1      -4.774   4.642 121.585  0.00  0.00    +0.007 C 
ATOM     30  C   LIG A   1      -5.853   4.542 123.852  0.00  0.00    +0.007 C 
ENDBRANCH  27  28
BRANCH  27  31
ATOM     31  C   LIG A   1      -7.390   3.872 120.623  0.00  0.00    +0.000 C 
ATOM     32  C   LIG A   1      -8.896   3.865 120.411  0.00  0.00    +0.004 C 
ENDBRANCH  27  31
ENDBRANCH  26  27
ENDBRANCH  25  26
ENDBRANCH  23  25
ENDBRANCH  15  23
TORSDOF 7
ENDMDL
MODEL 2
REMARK VINA RESULT:      -8.7      1.321      2.287
REMARK  Name = NuBBE_1113
REMARK  13 active torsions:
REMARK  status: ('A' for Active; 'I' for Inactive)
REMARK    1  A    between atoms: C_1  and  C_2
REMARK    2  A    between atoms: C_4  and  O_6
REMARK    3  A    between atoms: C_14  and  C_15
REMARK    4  A    between atoms: C_19  and  C_21
REMARK    5  A    between atoms: C_21  and  C_23
REMARK    6  A    between atoms: C_21  and  C_24
REMARK    7  A    between atoms: C_24  and  C_25
REMARK    8  A    between atoms: C_25  and  C_26
REMARK    9  A    between atoms: C_26  and  C_28
REMARK   10  A    between atoms: C_26  and  C_30
REMARK   11  A    between atoms: C_28  and  C_29
REMARK   12  A    between atoms: C_30  and  C_31
REMARK   13  A    between atoms: C_30  and  C_32
REMARK                            x       y       z     vdW  Elec       q    Type
REMARK                         _______ _______ _______ _____ _____    ______ ____
ROOT
ATOM      1  C   LIG A   1      -8.074  -2.597 129.545  0.00  0.00    +0.016 C 
ATOM      2  C   LIG A   1      -6.918  -2.357 128.528  0.00  0.00    -0.005 C 
ATOM      3  C   LIG A   1      -6.448  -0.905 128.464  0.00  0.00    -0.032 C 
ATOM      4  C   LIG A   1      -5.366  -0.652 127.426  0.00  0.00    +0.142 C 
ATOM      5  C   LIG A   1      -5.819  -1.055 126.037  0.00  0.00    +0.040 C 
ATOM      6  C   LIG A   1      -6.349  -2.496 125.941  0.00  0.00    -0.001 C 
ATOM      7  C   LIG A   1      -7.322  -2.896 127.101  0.00  0.00    +0.003 C 
ATOM      8  C   LIG A   1      -8.805  -2.658 126.704  0.00  0.00    +0.005 C 
ATOM      9  C   LIG A   1      -9.000  -1.638 125.590  0.00  0.00    +0.007 C 
ATOM     10  C   LIG A   1      -8.337  -2.071 124.276  0.00  0.00    -0.026 C 
ATOM     11  C   LIG A   1      -9.300  -3.059 123.553  0.00  0.00    +0.012 C 
ATOM     12  C   LIG A   1      -7.001  -2.827 124.562  0.00  0.00    -0.001 C 
ATOM     13  C   LIG A   1      -6.136  -2.544 123.337  0.00  0.00    +0.004 C 
ATOM     14  C   LIG A   1      -6.508  -1.145 122.881  0.00  0.00    +0.004 C 
ATOM     15  C   LIG A   1      -7.998  -0.935 123.232  0.00  0.00    -0.002 C 
ATOM     16  C   LIG A   1      -6.393  -0.220 129.624  0.00  0.00    +0.048 C 
ATOM     17  C   LIG A   1      -5.435  -0.914 130.562  0.00  0.00    +0.156 C 
ATOM     18  C   LIG A   1      -4.998  -2.359 130.285  0.00  0.00    +0.080 C 
ATOM     19  C   LIG A   1      -5.679  -3.101 129.107  0.00  0.00    +0.019 C 
ATOM     20  O   LIG A   1      -5.079  -0.320 131.584  0.00  0.00    -0.293 OA
ENDROOT
BRANCH   4  21
ATOM     21  O   LIG A   1      -5.004   0.725 127.400  0.00  0.00    -0.388 OA
ATOM     22  H   LIG A   1      -5.708   1.209 126.937  0.00  0.00    +0.210 HD
ENDBRANCH   4  21
BRANCH  15  23
ATOM     23  C   LIG A   1      -8.316   0.571 123.525  0.00  0.00    -0.010 C 
ATOM     24  C   LIG A   1      -9.636   1.071 122.920  0.00  0.00    +0.008 C 
BRANCH  23  25
ATOM     25  C   LIG A   1      -7.163   1.513 123.051  0.00  0.00    +0.004 C 
BRANCH  25  26
ATOM     26  C   LIG A   1      -7.166   2.884 123.745  0.00  0.00    +0.004 C 
BRANCH  26  27
ATOM     27  C   LIG A   1      -6.316   2.969 125.033  0.00  0.00    -0.009 C 
BRANCH  27  28
ATOM     28  C   LIG A   1      -7.228   3.307 126.256  0.00  0.00    -0.014 C 
ATOM     29  C   LIG A   1      -8.102   4.540 126.021  0.00  0.00    +0.007 C 
ATOM     30  C   LIG A   1      -8.078   2.147 126.786  0.00  0.00    +0.007 C 
ENDBRANCH  27  28
BRANCH  27  31
ATOM     31  C   LIG A   1      -5.043   3.835 124.876  0.00  0.00    +0.000 C 
ATOM     32  C   LIG A   1      -4.080   3.874 126.053  0.00  0.00    +0.004 C 
ENDBRANCH  27  31
ENDBRANCH  26  27
ENDBRANCH  25  26
ENDBRANCH  23  25
ENDBRANCH  15  23
TORSDOF 7
ENDMDL
MODEL 3
REMARK VINA RESULT:      -8.5      2.451      6.487
REMARK  Name = NuBBE_1113
REMARK  13 active torsions:
REMARK  status: ('A' for Active; 'I' for Inactive)
REMARK    1  A    between atoms: C_1  and  C_2
REMARK    2  A    between atoms: C_4  and  O_6
REMARK    3  A    between atoms: C_14  and  C_15
REMARK    4  A    between atoms: C_19  and  C_21
REMARK    5  A    between atoms: C_21  and  C_23
REMARK    6  A    between atoms: C_21  and  C_24
REMARK    7  A    between atoms: C_24  and  C_25
REMARK    8  A    between atoms: C_25  and  C_26
REMARK    9  A    between atoms: C_26  and  C_28
REMARK   10  A    between atoms: C_26  and  C_30
REMARK   11  A    between atoms: C_28  and  C_29
REMARK   12  A    between atoms: C_30  and  C_31
REMARK   13  A    between atoms: C_30  and  C_32
REMARK                            x       y       z     vdW  Elec       q    Type
REMARK                         _______ _______ _______ _____ _____    ______ ____
ROOT
ATOM      1  C   LIG A   1      -5.095   2.203 126.397  0.00  0.00    +0.016 C 
ATOM      2  C   LIG A   1      -6.295   1.819 125.481  0.00  0.00    -0.005 C 
ATOM      3  C   LIG A   1      -7.629   1.732 126.218  0.00  0.00    -0.032 C 
ATOM      4  C   LIG A   1      -8.792   1.294 125.341  0.00  0.00    +0.142 C 
ATOM      5  C   LIG A   1      -8.528  -0.053 124.696  0.00  0.00    +0.040 C 
ATOM      6  C   LIG A   1      -7.198  -0.133 123.929  0.00  0.00    -0.001 C 
ATOM      7  C   LIG A   1      -5.981   0.487 124.695  0.00  0.00    +0.003 C 
ATOM      8  C   LIG A   1      -5.215  -0.591 125.510  0.00  0.00    +0.005 C 
ATOM      9  C   LIG A   1      -6.040  -1.825 125.849  0.00  0.00    +0.007 C 
ATOM     10  C   LIG A   1      -6.508  -2.580 124.597  0.00  0.00    -0.026 C 
ATOM     11  C   LIG A   1      -5.336  -3.484 124.114  0.00  0.00    +0.012 C 
ATOM     12  C   LIG A   1      -6.845  -1.576 123.449  0.00  0.00    -0.001 C 
ATOM     13  C   LIG A   1      -7.921  -2.283 122.631  0.00  0.00    +0.004 C 
ATOM     14  C   LIG A   1      -8.731  -3.095 123.626  0.00  0.00    +0.004 C 
ATOM     15  C   LIG A   1      -7.765  -3.523 124.753  0.00  0.00    -0.002 C 
ATOM     16  C   LIG A   1      -7.865   2.644 127.183  0.00  0.00    +0.048 C 
ATOM     17  C   LIG A   1      -7.830   4.025 126.573  0.00  0.00    +0.156 C 
ATOM     18  C   LIG A   1      -7.206   4.240 125.189  0.00  0.00    +0.080 C 
ATOM     19  C   LIG A   1      -6.502   3.029 124.523  0.00  0.00    +0.019 C 
ATOM     20  O   LIG A   1      -8.243   4.974 127.247  0.00  0.00    -0.293 OA
ENDROOT
BRANCH   4  21
ATOM     21  O   LIG A   1      -9.991   1.201 126.103  0.00  0.00    -0.388 OA
ATOM     22  H   LIG A   1      -9.792   1.491 127.009  0.00  0.00    +0.210 HD
ENDBRANCH   4  21
BRANCH  15  23
ATOM     23  C   LIG A   1      -8.510  -3.679 126.123  0.00  0.00    -0.010 C 
ATOM     24  C   LIG A   1      -9.967  -3.191 126.114  0.00  0.00    +0.008 C 
BRANCH  23  25
ATOM     25  C   LIG A   1      -7.752  -2.959 127.284  0.00  0.00    +0.004 C 
BRANCH  25  26
ATOM     26  C   LIG A   1      -8.227  -3.381 128.683  0.00  0.00    +0.004 C 
BRANCH  26  27
ATOM     27  C   LIG A   1      -7.744  -2.478 129.840  0.00  0.00    -0.009 C 
BRANCH  27  28
ATOM     28  C   LIG A   1      -7.248  -1.106 129.280  0.00  0.00    -0.014 C 
ATOM     29  C   LIG A   1      -8.043   0.080 129.827  0.00  0.00    +0.007 C 
ATOM     30  C   LIG A   1      -5.743  -0.844 129.415  0.00  0.00    +0.007 C 
ENDBRANCH  27  28
BRANCH  27  31
ATOM     31  C   LIG A   1      -6.790  -3.195 130.825  0.00  0.00    +0.000 C 
ATOM     32  C   LIG A   1      -6.046  -4.417 130.305  0.00  0.00    +0.004 C 
ENDBRANCH  27  31
ENDBRANCH  26  27
ENDBRANCH  25  26
ENDBRANCH  23  25
ENDBRANCH  15  23
TORSDOF 7
ENDMDL
MODEL 4
REMARK VINA RESULT:      -8.5      3.530      6.315
REMARK  Name = NuBBE_1113
REMARK  13 active torsions:
REMARK  status: ('A' for Active; 'I' for Inactive)
REMARK    1  A    between atoms: C_1  and  C_2
REMARK    2  A    between atoms: C_4  and  O_6
REMARK    3  A    between atoms: C_14  and  C_15
REMARK    4  A    between atoms: C_19  and  C_21
REMARK    5  A    between atoms: C_21  and  C_23
REMARK    6  A    between atoms: C_21  and  C_24
REMARK    7  A    between atoms: C_24  and  C_25
REMARK    8  A    between atoms: C_25  and  C_26
REMARK    9  A    between atoms: C_26  and  C_28
REMARK   10  A    between atoms: C_26  and  C_30
REMARK   11  A    between atoms: C_28  and  C_29
REMARK   12  A    between atoms: C_30  and  C_31
REMARK   13  A    between atoms: C_30  and  C_32
REMARK                            x       y       z     vdW  Elec       q    Type
REMARK                         _______ _______ _______ _____ _____    ______ ____
ROOT
ATOM      1  C   LIG A   1      -9.185   2.261 132.674  0.00  0.00    +0.016 C 
ATOM      2  C   LIG A   1      -8.219   2.203 131.453  0.00  0.00    -0.005 C 
ATOM      3  C   LIG A   1      -8.924   2.331 130.104  0.00  0.00    -0.032 C 
ATOM      4  C   LIG A   1      -7.994   2.209 128.907  0.00  0.00    +0.142 C 
ATOM      5  C   LIG A   1      -7.243   0.892 128.916  0.00  0.00    +0.040 C 
ATOM      6  C   LIG A   1      -6.494   0.603 130.227  0.00  0.00    -0.001 C 
ATOM      7  C   LIG A   1      -7.330   0.901 131.518  0.00  0.00    +0.003 C 
ATOM      8  C   LIG A   1      -8.065  -0.371 132.024  0.00  0.00    +0.005 C 
ATOM      9  C   LIG A   1      -8.285  -1.435 130.956  0.00  0.00    +0.007 C 
ATOM     10  C   LIG A   1      -6.967  -1.977 130.388  0.00  0.00    -0.026 C 
ATOM     11  C   LIG A   1      -6.430  -3.061 131.369  0.00  0.00    +0.012 C 
ATOM     12  C   LIG A   1      -5.902  -0.839 130.299  0.00  0.00    -0.001 C 
ATOM     13  C   LIG A   1      -5.009  -1.246 129.130  0.00  0.00    +0.004 C 
ATOM     14  C   LIG A   1      -5.919  -1.952 128.140  0.00  0.00    +0.004 C 
ATOM     15  C   LIG A   1      -7.023  -2.655 128.962  0.00  0.00    -0.002 C 
ATOM     16  C   LIG A   1      -9.958   3.194 130.025  0.00  0.00    +0.048 C 
ATOM     17  C   LIG A   1      -9.467   4.582 130.357  0.00  0.00    +0.156 C 
ATOM     18  C   LIG A   1      -8.115   4.774 131.058  0.00  0.00    +0.080 C 
ATOM     19  C   LIG A   1      -7.362   3.501 131.525  0.00  0.00    +0.019 C 
ATOM     20  O   LIG A   1     -10.210   5.540 130.121  0.00  0.00    -0.293 OA
ENDROOT
BRANCH   4  21
ATOM     21  O   LIG A   1      -8.725   2.302 127.689  0.00  0.00    -0.388 OA
ATOM     22  H   LIG A   1      -9.089   1.422 127.492  0.00  0.00    +0.210 HD
ENDBRANCH   4  21
BRANCH  15  23
ATOM     23  C   LIG A   1      -8.362  -2.763 128.156  0.00  0.00    -0.010 C 
ATOM     24  C   LIG A   1      -9.066  -4.124 128.273  0.00  0.00    +0.008 C 
BRANCH  23  25
ATOM     25  C   LIG A   1      -8.159  -2.437 126.642  0.00  0.00    +0.004 C 
BRANCH  25  26
ATOM     26  C   LIG A   1      -8.219  -3.675 125.733  0.00  0.00    +0.004 C 
BRANCH  26  27
ATOM     27  C   LIG A   1      -7.485  -3.534 124.381  0.00  0.00    -0.009 C 
BRANCH  27  28
ATOM     28  C   LIG A   1      -6.032  -3.007 124.612  0.00  0.00    -0.014 C 
ATOM     29  C   LIG A   1      -4.970  -3.889 123.954  0.00  0.00    +0.007 C 
ATOM     30  C   LIG A   1      -5.798  -1.536 124.250  0.00  0.00    +0.007 C 
ENDBRANCH  27  28
BRANCH  27  31
ATOM     31  C   LIG A   1      -8.313  -2.793 123.304  0.00  0.00    +0.000 C 
ATOM     32  C   LIG A   1      -9.774  -3.190 123.157  0.00  0.00    +0.004 C 
ENDBRANCH  27  31
ENDBRANCH  26  27
ENDBRANCH  25  26
ENDBRANCH  23  25
ENDBRANCH  15  23
TORSDOF 7
ENDMDL
MODEL 5
REMARK VINA RESULT:      -8.4      2.715      6.167
REMARK  Name = NuBBE_1113
REMARK  13 active torsions:
REMARK  status: ('A' for Active; 'I' for Inactive)
REMARK    1  A    between atoms: C_1  and  C_2
REMARK    2  A    between atoms: C_4  and  O_6
REMARK    3  A    between atoms: C_14  and  C_15
REMARK    4  A    between atoms: C_19  and  C_21
REMARK    5  A    between atoms: C_21  and  C_23
REMARK    6  A    between atoms: C_21  and  C_24
REMARK    7  A    between atoms: C_24  and  C_25
REMARK    8  A    between atoms: C_25  and  C_26
REMARK    9  A    between atoms: C_26  and  C_28
REMARK   10  A    between atoms: C_26  and  C_30
REMARK   11  A    between atoms: C_28  and  C_29
REMARK   12  A    between atoms: C_30  and  C_31
REMARK   13  A    between atoms: C_30  and  C_32
REMARK                            x       y       z     vdW  Elec       q    Type
REMARK                         _______ _______ _______ _____ _____    ______ ____
ROOT
ATOM      1  C   LIG A   1      -6.808  -0.596 123.107  0.00  0.00    +0.016 C 
ATOM      2  C   LIG A   1      -7.724  -0.275 124.326  0.00  0.00    -0.005 C 
ATOM      3  C   LIG A   1      -7.702   1.194 124.741  0.00  0.00    -0.032 C 
ATOM      4  C   LIG A   1      -8.542   1.501 125.970  0.00  0.00    +0.142 C 
ATOM      5  C   LIG A   1      -8.107   0.674 127.165  0.00  0.00    +0.040 C 
ATOM      6  C   LIG A   1      -8.054  -0.839 126.897  0.00  0.00    -0.001 C 
ATOM      7  C   LIG A   1      -7.375  -1.223 125.539  0.00  0.00    +0.003 C 
ATOM      8  C   LIG A   1      -5.862  -1.521 125.726  0.00  0.00    +0.005 C 
ATOM      9  C   LIG A   1      -5.247  -0.887 126.967  0.00  0.00    +0.007 C 
ATOM     10  C   LIG A   1      -5.882  -1.403 128.265  0.00  0.00    -0.026 C 
ATOM     11  C   LIG A   1      -5.216  -2.765 128.619  0.00  0.00    +0.012 C 
ATOM     12  C   LIG A   1      -7.410  -1.653 128.062  0.00  0.00    -0.001 C 
ATOM     13  C   LIG A   1      -8.018  -1.425 129.443  0.00  0.00    +0.004 C 
ATOM     14  C   LIG A   1      -7.180  -0.337 130.090  0.00  0.00    +0.004 C 
ATOM     15  C   LIG A   1      -5.742  -0.491 129.547  0.00  0.00    -0.002 C 
ATOM     16  C   LIG A   1      -7.649   2.115 123.757  0.00  0.00    +0.048 C 
ATOM     17  C   LIG A   1      -8.864   1.962 122.874  0.00  0.00    +0.156 C 
ATOM     18  C   LIG A   1      -9.707   0.682 122.939  0.00  0.00    +0.080 C 
ATOM     19  C   LIG A   1      -9.185  -0.477 123.826  0.00  0.00    +0.019 C 
ATOM     20  O   LIG A   1      -9.111   2.854 122.056  0.00  0.00    -0.293 OA
ENDROOT
BRANCH   4  21
ATOM     21  O   LIG A   1      -8.445   2.878 126.317  0.00  0.00    -0.388 OA
ATOM     22  H   LIG A   1      -8.100   3.357 125.545  0.00  0.00    +0.210 HD
ENDBRANCH   4  21
BRANCH  15  23
ATOM     23  C   LIG A   1      -4.993   0.885 129.498  0.00  0.00    -0.010 C 
ATOM     24  C   LIG A   1      -4.154   1.197 130.746  0.00  0.00    +0.008 C 
BRANCH  23  25
ATOM     25  C   LIG A   1      -5.975   2.075 129.250  0.00  0.00    +0.004 C 
BRANCH  25  26
ATOM     26  C   LIG A   1      -5.402   3.163 128.329  0.00  0.00    +0.004 C 
BRANCH  26  27
ATOM     27  C   LIG A   1      -4.348   2.673 127.311  0.00  0.00    -0.009 C 
BRANCH  27  28
ATOM     28  C   LIG A   1      -2.924   3.150 127.742  0.00  0.00    -0.014 C 
ATOM     29  C   LIG A   1      -1.903   3.070 126.605  0.00  0.00    +0.007 C 
ATOM     30  C   LIG A   1      -2.863   4.527 128.413  0.00  0.00    +0.007 C 
ENDBRANCH  27  28
BRANCH  27  31
ATOM     31  C   LIG A   1      -4.739   2.945 125.839  0.00  0.00    +0.000 C 
ATOM     32  C   LIG A   1      -5.248   4.339 125.502  0.00  0.00    +0.004 C 
ENDBRANCH  27  31
ENDBRANCH  26  27
ENDBRANCH  25  26
ENDBRANCH  23  25
ENDBRANCH  15  23
TORSDOF 7
ENDMDL
MODEL 6
REMARK VINA RESULT:      -8.0      2.530      5.942
REMARK  Name = NuBBE_1113
REMARK  13 active torsions:
REMARK  status: ('A' for Active; 'I' for Inactive)
REMARK    1  A    between atoms: C_1  and  C_2
REMARK    2  A    between atoms: C_4  and  O_6
REMARK    3  A    between atoms: C_14  and  C_15
REMARK    4  A    between atoms: C_19  and  C_21
REMARK    5  A    between atoms: C_21  and  C_23
REMARK    6  A    between atoms: C_21  and  C_24
REMARK    7  A    between atoms: C_24  and  C_25
REMARK    8  A    between atoms: C_25  and  C_26
REMARK    9  A    between atoms: C_26  and  C_28
REMARK   10  A    between atoms: C_26  and  C_30
REMARK   11  A    between atoms: C_28  and  C_29
REMARK   12  A    between atoms: C_30  and  C_31
REMARK   13  A    between atoms: C_30  and  C_32
REMARK                            x       y       z     vdW  Elec       q    Type
REMARK                         _______ _______ _______ _____ _____    ______ ____
ROOT
ATOM      1  C   LIG A   1      -6.810  -1.640 123.009  0.00  0.00    +0.016 C 
ATOM      2  C   LIG A   1      -7.785  -1.581 124.222  0.00  0.00    -0.005 C 
ATOM      3  C   LIG A   1      -8.254  -0.168 124.566  0.00  0.00    -0.032 C 
ATOM      4  C   LIG A   1      -9.153  -0.097 125.790  0.00  0.00    +0.142 C 
ATOM      5  C   LIG A   1      -8.474  -0.673 127.017  0.00  0.00    +0.040 C 
ATOM      6  C   LIG A   1      -7.921  -2.094 126.822  0.00  0.00    -0.001 C 
ATOM      7  C   LIG A   1      -7.147  -2.298 125.475  0.00  0.00    +0.003 C 
ATOM      8  C   LIG A   1      -5.622  -2.068 125.657  0.00  0.00    +0.005 C 
ATOM      9  C   LIG A   1      -5.256  -1.206 126.859  0.00  0.00    +0.007 C 
ATOM     10  C   LIG A   1      -5.690  -1.838 128.188  0.00  0.00    -0.026 C 
ATOM     11  C   LIG A   1      -4.612  -2.884 128.599  0.00  0.00    +0.012 C 
ATOM     12  C   LIG A   1      -7.048  -2.591 128.017  0.00  0.00    -0.001 C 
ATOM     13  C   LIG A   1      -7.703  -2.509 129.393  0.00  0.00    +0.004 C 
ATOM     14  C   LIG A   1      -7.275  -1.174 129.976  0.00  0.00    +0.004 C 
ATOM     15  C   LIG A   1      -5.865  -0.869 129.423  0.00  0.00    -0.002 C 
ATOM     16  C   LIG A   1      -8.505   0.668 123.539  0.00  0.00    +0.048 C 
ATOM     17  C   LIG A   1      -9.597   0.078 122.679  0.00  0.00    +0.156 C 
ATOM     18  C   LIG A   1      -9.968  -1.404 122.816  0.00  0.00    +0.080 C 
ATOM     19  C   LIG A   1      -9.095  -2.279 123.752  0.00  0.00    +0.019 C 
ATOM     20  O   LIG A   1     -10.122   0.796 121.822  0.00  0.00    -0.293 OA
ENDROOT
BRANCH   4  21
ATOM     21  O   LIG A   1      -9.519   1.250 126.069  0.00  0.00    -0.388 OA
ATOM     22  H   LIG A   1      -9.591   1.722 125.222  0.00  0.00    +0.210 HD
ENDBRANCH   4  21
BRANCH  15  23
ATOM     23  C   LIG A   1      -5.615   0.673 129.298  0.00  0.00    -0.010 C 
ATOM     24  C   LIG A   1      -4.974   1.315 130.538  0.00  0.00    +0.008 C 
BRANCH  23  25
ATOM     25  C   LIG A   1      -6.927   1.451 128.958  0.00  0.00    +0.004 C 
BRANCH  25  26
ATOM     26  C   LIG A   1      -6.726   2.572 127.927  0.00  0.00    +0.004 C 
BRANCH  26  27
ATOM     27  C   LIG A   1      -5.473   2.426 127.034  0.00  0.00    -0.009 C 
BRANCH  27  28
ATOM     28  C   LIG A   1      -4.441   3.551 127.367  0.00  0.00    -0.014 C 
ATOM     29  C   LIG A   1      -4.958   4.539 128.414  0.00  0.00    +0.007 C 
ATOM     30  C   LIG A   1      -3.036   3.068 127.742  0.00  0.00    +0.007 C 
ENDBRANCH  27  28
BRANCH  27  31
ATOM     31  C   LIG A   1      -5.805   2.232 125.535  0.00  0.00    +0.000 C 
ATOM     32  C   LIG A   1      -6.392   3.424 124.793  0.00  0.00    +0.004 C 
ENDBRANCH  27  31
ENDBRANCH  26  27
ENDBRANCH  25  26
ENDBRANCH  23  25
ENDBRANCH  15  23
TORSDOF 7
ENDMDL
MODEL 7
REMARK VINA RESULT:      -7.8      3.806      7.239
REMARK  Name = NuBBE_1113
REMARK  13 active torsions:
REMARK  status: ('A' for Active; 'I' for Inactive)
REMARK    1  A    between atoms: C_1  and  C_2
REMARK    2  A    between atoms: C_4  and  O_6
REMARK    3  A    between atoms: C_14  and  C_15
REMARK    4  A    between atoms: C_19  and  C_21
REMARK    5  A    between atoms: C_21  and  C_23
REMARK    6  A    between atoms: C_21  and  C_24
REMARK    7  A    between atoms: C_24  and  C_25
REMARK    8  A    between atoms: C_25  and  C_26
REMARK    9  A    between atoms: C_26  and  C_28
REMARK   10  A    between atoms: C_26  and  C_30
REMARK   11  A    between atoms: C_28  and  C_29
REMARK   12  A    between atoms: C_30  and  C_31
REMARK   13  A    between atoms: C_30  and  C_32
REMARK                            x       y       z     vdW  Elec       q    Type
REMARK                         _______ _______ _______ _____ _____    ______ ____
ROOT
ATOM      1  C   LIG A   1      -7.016   0.246 124.207  0.00  0.00    +0.016 C 
ATOM      2  C   LIG A   1      -7.646   1.401 125.040  0.00  0.00    -0.005 C 
ATOM      3  C   LIG A   1      -6.803   2.674 125.062  0.00  0.00    -0.032 C 
ATOM      4  C   LIG A   1      -7.382   3.782 125.927  0.00  0.00    +0.142 C 
ATOM      5  C   LIG A   1      -7.576   3.328 127.361  0.00  0.00    +0.040 C 
ATOM      6  C   LIG A   1      -8.392   2.033 127.506  0.00  0.00    -0.001 C 
ATOM      7  C   LIG A   1      -7.981   0.905 126.500  0.00  0.00    +0.003 C 
ATOM      8  C   LIG A   1      -6.933  -0.057 127.123  0.00  0.00    +0.005 C 
ATOM      9  C   LIG A   1      -6.139   0.543 128.276  0.00  0.00    +0.007 C 
ATOM     10  C   LIG A   1      -7.030   0.929 129.464  0.00  0.00    -0.026 C 
ATOM     11  C   LIG A   1      -7.296  -0.355 130.304  0.00  0.00    +0.012 C 
ATOM     12  C   LIG A   1      -8.407   1.468 128.961  0.00  0.00    -0.001 C 
ATOM     13  C   LIG A   1      -8.850   2.446 130.045  0.00  0.00    +0.004 C 
ATOM     14  C   LIG A   1      -7.577   3.075 130.583  0.00  0.00    +0.004 C 
ATOM     15  C   LIG A   1      -6.463   2.009 130.468  0.00  0.00    -0.002 C 
ATOM     16  C   LIG A   1      -6.171   3.018 123.922  0.00  0.00    +0.048 C 
ATOM     17  C   LIG A   1      -7.196   3.231 122.835  0.00  0.00    +0.156 C 
ATOM     18  C   LIG A   1      -8.626   2.704 123.011  0.00  0.00    +0.080 C 
ATOM     19  C   LIG A   1      -8.923   1.839 124.263  0.00  0.00    +0.019 C 
ATOM     20  O   LIG A   1      -6.833   3.768 121.783  0.00  0.00    -0.293 OA
ENDROOT
BRANCH   4  21
ATOM     21  O   LIG A   1      -6.527   4.921 125.928  0.00  0.00    -0.388 OA
ATOM     22  H   LIG A   1      -6.507   5.279 126.832  0.00  0.00    +0.210 HD
ENDBRANCH   4  21
BRANCH  15  23
ATOM     23  C   LIG A   1      -5.056   2.666 130.259  0.00  0.00    -0.010 C 
ATOM     24  C   LIG A   1      -4.055   2.398 131.393  0.00  0.00    +0.008 C 
BRANCH  23  25
ATOM     25  C   LIG A   1      -5.159   4.210 130.042  0.00  0.00    +0.004 C 
BRANCH  25  26
ATOM     26  C   LIG A   1      -4.492   4.694 128.745  0.00  0.00    +0.004 C 
BRANCH  26  27
ATOM     27  C   LIG A   1      -2.956   4.531 128.697  0.00  0.00    -0.009 C 
BRANCH  27  28
ATOM     28  C   LIG A   1      -2.263   5.918 128.894  0.00  0.00    -0.014 C 
ATOM     29  C   LIG A   1      -2.958   7.043 128.125  0.00  0.00    +0.007 C 
ATOM     30  C   LIG A   1      -2.025   6.337 130.349  0.00  0.00    +0.007 C 
ENDBRANCH  27  28
BRANCH  27  31
ATOM     31  C   LIG A   1      -2.462   3.690 127.496  0.00  0.00    +0.000 C 
ATOM     32  C   LIG A   1      -3.511   2.909 126.717  0.00  0.00    +0.004 C 
ENDBRANCH  27  31
ENDBRANCH  26  27
ENDBRANCH  25  26
ENDBRANCH  23  25
ENDBRANCH  15  23
TORSDOF 7
ENDMDL
MODEL 8
REMARK VINA RESULT:      -7.8      2.523      5.659
REMARK  Name = NuBBE_1113
REMARK  13 active torsions:
REMARK  status: ('A' for Active; 'I' for Inactive)
REMARK    1  A    between atoms: C_1  and  C_2
REMARK    2  A    between atoms: C_4  and  O_6
REMARK    3  A    between atoms: C_14  and  C_15
REMARK    4  A    between atoms: C_19  and  C_21
REMARK    5  A    between atoms: C_21  and  C_23
REMARK    6  A    between atoms: C_21  and  C_24
REMARK    7  A    between atoms: C_24  and  C_25
REMARK    8  A    between atoms: C_25  and  C_26
REMARK    9  A    between atoms: C_26  and  C_28
REMARK   10  A    between atoms: C_26  and  C_30
REMARK   11  A    between atoms: C_28  and  C_29
REMARK   12  A    between atoms: C_30  and  C_31
REMARK   13  A    between atoms: C_30  and  C_32
REMARK                            x       y       z     vdW  Elec       q    Type
REMARK                         _______ _______ _______ _____ _____    ______ ____
ROOT
ATOM      1  C   LIG A   1      -3.809  -1.674 131.305  0.00  0.00    +0.016 C 
ATOM      2  C   LIG A   1      -5.328  -1.550 130.983  0.00  0.00    -0.005 C 
ATOM      3  C   LIG A   1      -5.814  -2.532 129.919  0.00  0.00    -0.032 C 
ATOM      4  C   LIG A   1      -7.281  -2.371 129.554  0.00  0.00    +0.142 C 
ATOM      5  C   LIG A   1      -7.584  -0.968 129.064  0.00  0.00    +0.040 C 
ATOM      6  C   LIG A   1      -7.129   0.145 130.023  0.00  0.00    -0.001 C 
ATOM      7  C   LIG A   1      -5.689  -0.061 130.602  0.00  0.00    +0.003 C 
ATOM      8  C   LIG A   1      -4.622   0.674 129.745  0.00  0.00    +0.005 C 
ATOM      9  C   LIG A   1      -5.054   0.954 128.311  0.00  0.00    +0.007 C 
ATOM     10  C   LIG A   1      -6.279   1.876 128.238  0.00  0.00    -0.026 C 
ATOM     11  C   LIG A   1      -5.785   3.346 128.386  0.00  0.00    +0.012 C 
ATOM     12  C   LIG A   1      -7.258   1.577 129.417  0.00  0.00    -0.001 C 
ATOM     13  C   LIG A   1      -8.635   1.941 128.868  0.00  0.00    +0.004 C 
ATOM     14  C   LIG A   1      -8.593   1.604 127.388  0.00  0.00    +0.004 C 
ATOM     15  C   LIG A   1      -7.139   1.826 126.914  0.00  0.00    -0.002 C 
ATOM     16  C   LIG A   1      -5.293  -3.776 129.941  0.00  0.00    +0.048 C 
ATOM     17  C   LIG A   1      -5.618  -4.422 131.266  0.00  0.00    +0.156 C 
ATOM     18  C   LIG A   1      -6.088  -3.563 132.447  0.00  0.00    +0.080 C 
ATOM     19  C   LIG A   1      -6.075  -2.023 132.264  0.00  0.00    +0.019 C 
ATOM     20  O   LIG A   1      -5.425  -5.636 131.390  0.00  0.00    -0.293 OA
ENDROOT
BRANCH   4  21
ATOM     21  O   LIG A   1      -7.651  -3.293 128.534  0.00  0.00    -0.388 OA
ATOM     22  H   LIG A   1      -7.003  -4.018 128.539  0.00  0.00    +0.210 HD
ENDBRANCH   4  21
BRANCH  15  23
ATOM     23  C   LIG A   1      -6.766   0.872 125.728  0.00  0.00    -0.010 C 
ATOM     24  C   LIG A   1      -6.861   1.520 124.338  0.00  0.00    +0.008 C 
BRANCH  23  25
ATOM     25  C   LIG A   1      -7.633  -0.428 125.731  0.00  0.00    +0.004 C 
BRANCH  25  26
ATOM     26  C   LIG A   1      -6.838  -1.697 125.387  0.00  0.00    +0.004 C 
BRANCH  26  27
ATOM     27  C   LIG A   1      -6.976  -2.182 123.926  0.00  0.00    -0.009 C 
BRANCH  27  28
ATOM     28  C   LIG A   1      -8.044  -3.319 123.837  0.00  0.00    -0.014 C 
ATOM     29  C   LIG A   1      -8.264  -4.032 125.172  0.00  0.00    +0.007 C 
ATOM     30  C   LIG A   1      -9.389  -2.915 123.223  0.00  0.00    +0.007 C 
ENDBRANCH  27  28
BRANCH  27  31
ATOM     31  C   LIG A   1      -5.618  -2.470 123.242  0.00  0.00    +0.000 C 
ATOM     32  C   LIG A   1      -4.871  -3.721 123.680  0.00  0.00    +0.004 C 
ENDBRANCH  27  31
ENDBRANCH  26  27
ENDBRANCH  25  26
ENDBRANCH  23  25
ENDBRANCH  15  23
TORSDOF 7
ENDMDL
MODEL 9
REMARK VINA RESULT:      -7.7      5.421      7.280
REMARK  Name = NuBBE_1113
REMARK  13 active torsions:
REMARK  status: ('A' for Active; 'I' for Inactive)
REMARK    1  A    between atoms: C_1  and  C_2
REMARK    2  A    between atoms: C_4  and  O_6
REMARK    3  A    between atoms: C_14  and  C_15
REMARK    4  A    between atoms: C_19  and  C_21
REMARK    5  A    between atoms: C_21  and  C_23
REMARK    6  A    between atoms: C_21  and  C_24
REMARK    7  A    between atoms: C_24  and  C_25
REMARK    8  A    between atoms: C_25  and  C_26
REMARK    9  A    between atoms: C_26  and  C_28
REMARK   10  A    between atoms: C_26  and  C_30
REMARK   11  A    between atoms: C_28  and  C_29
REMARK   12  A    between atoms: C_30  and  C_31
REMARK   13  A    between atoms: C_30  and  C_32
REMARK                            x       y       z     vdW  Elec       q    Type
REMARK                         _______ _______ _______ _____ _____    ______ ____
ROOT
ATOM      1  C   LIG A   1      -3.627   5.060 132.766  0.00  0.00    +0.016 C 
ATOM      2  C   LIG A   1      -3.051   5.345 131.347  0.00  0.00    -0.005 C 
ATOM      3  C   LIG A   1      -3.675   6.560 130.663  0.00  0.00    -0.032 C 
ATOM      4  C   LIG A   1      -3.164   6.804 129.252  0.00  0.00    +0.142 C 
ATOM      5  C   LIG A   1      -3.392   5.599 128.359  0.00  0.00    +0.040 C 
ATOM      6  C   LIG A   1      -2.838   4.282 128.926  0.00  0.00    -0.001 C 
ATOM      7  C   LIG A   1      -3.156   4.056 130.443  0.00  0.00    +0.003 C 
ATOM      8  C   LIG A   1      -4.455   3.226 130.632  0.00  0.00    +0.005 C 
ATOM      9  C   LIG A   1      -5.406   3.269 129.443  0.00  0.00    +0.007 C 
ATOM     10  C   LIG A   1      -4.781   2.682 128.170  0.00  0.00    -0.026 C 
ATOM     11  C   LIG A   1      -4.919   1.132 128.236  0.00  0.00    +0.012 C 
ATOM     12  C   LIG A   1      -3.259   3.025 128.102  0.00  0.00    -0.001 C 
ATOM     13  C   LIG A   1      -2.950   3.080 126.608  0.00  0.00    +0.004 C 
ATOM     14  C   LIG A   1      -4.207   3.613 125.944  0.00  0.00    +0.004 C 
ATOM     15  C   LIG A   1      -5.406   3.127 126.790  0.00  0.00    -0.002 C 
ATOM     16  C   LIG A   1      -3.956   7.629 131.435  0.00  0.00    +0.048 C 
ATOM     17  C   LIG A   1      -2.678   8.132 132.063  0.00  0.00    +0.156 C 
ATOM     18  C   LIG A   1      -1.428   7.243 132.082  0.00  0.00    +0.080 C 
ATOM     19  C   LIG A   1      -1.575   5.787 131.567  0.00  0.00    +0.019 C 
ATOM     20  O   LIG A   1      -2.692   9.233 132.621  0.00  0.00    -0.293 OA
ENDROOT
BRANCH   4  21
ATOM     21  O   LIG A   1      -3.815   7.927 128.667  0.00  0.00    -0.388 OA
ATOM     22  H   LIG A   1      -4.759   7.877 128.895  0.00  0.00    +0.210 HD
ENDBRANCH   4  21
BRANCH  15  23
ATOM     23  C   LIG A   1      -6.607   4.131 126.718  0.00  0.00    -0.010 C 
ATOM     24  C   LIG A   1      -7.958   3.536 127.145  0.00  0.00    +0.008 C 
BRANCH  23  25
ATOM     25  C   LIG A   1      -6.765   4.750 125.292  0.00  0.00    +0.004 C 
BRANCH  25  26
ATOM     26  C   LIG A   1      -7.645   3.911 124.352  0.00  0.00    +0.004 C 
BRANCH  26  27
ATOM     27  C   LIG A   1      -6.922   2.744 123.643  0.00  0.00    -0.009 C 
BRANCH  27  28
ATOM     28  C   LIG A   1      -6.769   3.052 122.120  0.00  0.00    -0.014 C 
ATOM     29  C   LIG A   1      -8.083   3.483 121.466  0.00  0.00    +0.007 C 
ATOM     30  C   LIG A   1      -5.649   4.033 121.754  0.00  0.00    +0.007 C 
ENDBRANCH  27  28
BRANCH  27  31
ATOM     31  C   LIG A   1      -7.502   1.354 123.999  0.00  0.00    +0.000 C 
ATOM     32  C   LIG A   1      -6.571   0.370 124.693  0.00  0.00    +0.004 C 
ENDBRANCH  27  31
ENDBRANCH  26  27
ENDBRANCH  25  26
ENDBRANCH  23  25
ENDBRANCH  15  23
TORSDOF 7
ENDMDL
