MODEL 1
REMARK VINA RESULT:      -7.0      0.000      0.000
REMARK  Name = NuBBE_1527
REMARK  4 active torsions:
REMARK  status: ('A' for Active; 'I' for Inactive)
REMARK    1  A    between atoms: O_1  and  C_2
REMARK    2  A    between atoms: C_5  and  C_6
REMARK    3  A    between atoms: C_6  and  C_7
REMARK    4  A    between atoms: C_7  and  C_8
REMARK                            x       y       z     vdW  Elec       q    Type
REMARK                         _______ _______ _______ _____ _____    ______ ____
ROOT
ATOM      1  C   LIG A   1      -6.068   3.821 122.872  0.00  0.00    +0.168 C 
ATOM      2  O   LIG A   1      -5.820   4.817 123.555  0.00  0.00    -0.292 OA
ENDROOT
BRANCH   1   6
ATOM      3  C   LIG A   1      -9.047   1.098 124.319  0.00  0.00    +0.117 A 
ATOM      4  C   LIG A   1      -9.381   2.057 123.369  0.00  0.00    +0.046 A 
ATOM      5  C   LIG A   1      -8.390   2.923 122.895  0.00  0.00    +0.015 A 
ATOM      6  C   LIG A   1      -7.073   2.839 123.378  0.00  0.00    +0.018 A 
ATOM      7  C   LIG A   1      -6.751   1.846 124.309  0.00  0.00    +0.015 A 
ATOM      8  C   LIG A   1      -7.743   0.981 124.782  0.00  0.00    +0.046 A 
BRANCH   3   9
ATOM      9  O   LIG A   1      -9.979   0.241 124.825  0.00  0.00    -0.507 OA
ATOM     10  H   LIG A   1     -10.687   0.759 125.244  0.00  0.00    +0.292 HD
ENDBRANCH   3   9
ENDBRANCH   1   6
BRANCH   1  11
ATOM     11  C   LIG A   1      -5.294   3.521 121.591  0.00  0.00    +0.119 C 
BRANCH  11  12
ATOM     12  C   LIG A   1      -5.879   4.257 120.417  0.00  0.00    +0.018 C 
ATOM     13  C   LIG A   1      -7.007   3.891 119.778  0.00  0.00    -0.016 C 
ATOM     14  C   LIG A   1      -7.549   4.658 118.602  0.00  0.00    +0.046 C 
ATOM     15  C   LIG A   1      -6.418   5.392 117.891  0.00  0.00    +0.108 C 
ATOM     16  N   LIG A   1      -5.584   6.092 118.840  0.00  0.00    -0.311 N 
ATOM     17  C   LIG A   1      -5.200   5.533 120.027  0.00  0.00    +0.240 C 
ATOM     18  O   LIG A   1      -4.358   6.061 120.737  0.00  0.00    -0.271 OA
ATOM     19  H   LIG A   1      -5.056   6.907 118.556  0.00  0.00    +0.149 HD
ENDBRANCH  11  12
ENDBRANCH   1  11
TORSDOF 4
ENDMDL
MODEL 2
REMARK VINA RESULT:      -6.8      8.404     10.550
REMARK  Name = NuBBE_1527
REMARK  4 active torsions:
REMARK  status: ('A' for Active; 'I' for Inactive)
REMARK    1  A    between atoms: O_1  and  C_2
REMARK    2  A    between atoms: C_5  and  C_6
REMARK    3  A    between atoms: C_6  and  C_7
REMARK    4  A    between atoms: C_7  and  C_8
REMARK                            x       y       z     vdW  Elec       q    Type
REMARK                         _______ _______ _______ _____ _____    ______ ____
ROOT
ATOM      1  C   LIG A   1     -12.377   7.430 130.851  0.00  0.00    +0.168 C 
ATOM      2  O   LIG A   1     -13.069   8.308 131.372  0.00  0.00    -0.292 OA
ENDROOT
BRANCH   1   6
ATOM      3  C   LIG A   1     -11.421   7.680 126.678  0.00  0.00    +0.117 A 
ATOM      4  C   LIG A   1     -12.560   7.000 127.094  0.00  0.00    +0.046 A 
ATOM      5  C   LIG A   1     -12.865   6.946 128.458  0.00  0.00    +0.015 A 
ATOM      6  C   LIG A   1     -12.028   7.560 129.404  0.00  0.00    +0.018 A 
ATOM      7  C   LIG A   1     -10.905   8.267 128.963  0.00  0.00    +0.015 A 
ATOM      8  C   LIG A   1     -10.601   8.320 127.599  0.00  0.00    +0.046 A 
BRANCH   3   9
ATOM      9  O   LIG A   1     -11.070   7.747 125.363  0.00  0.00    -0.507 OA
ATOM     10  H   LIG A   1     -11.061   8.678 125.087  0.00  0.00    +0.292 HD
ENDBRANCH   3   9
ENDBRANCH   1   6
BRANCH   1  11
ATOM     11  C   LIG A   1     -11.972   6.175 131.618  0.00  0.00    +0.119 C 
BRANCH  11  12
ATOM     12  C   LIG A   1     -10.559   5.774 131.298  0.00  0.00    +0.018 C 
ATOM     13  C   LIG A   1      -9.466   6.373 131.810  0.00  0.00    -0.016 C 
ATOM     14  C   LIG A   1      -8.070   5.939 131.454  0.00  0.00    +0.046 C 
ATOM     15  C   LIG A   1      -8.063   5.281 130.079  0.00  0.00    +0.108 C 
ATOM     16  N   LIG A   1      -9.130   4.315 129.966  0.00  0.00    -0.311 N 
ATOM     17  C   LIG A   1     -10.390   4.560 130.438  0.00  0.00    +0.240 C 
ATOM     18  O   LIG A   1     -11.323   3.813 130.184  0.00  0.00    -0.271 OA
ATOM     19  H   LIG A   1      -9.055   3.539 129.321  0.00  0.00    +0.149 HD
ENDBRANCH  11  12
ENDBRANCH   1  11
TORSDOF 4
ENDMDL
MODEL 3
REMARK VINA RESULT:      -6.6      3.090      6.621
REMARK  Name = NuBBE_1527
REMARK  4 active torsions:
REMARK  status: ('A' for Active; 'I' for Inactive)
REMARK    1  A    between atoms: O_1  and  C_2
REMARK    2  A    between atoms: C_5  and  C_6
REMARK    3  A    between atoms: C_6  and  C_7
REMARK    4  A    between atoms: C_7  and  C_8
REMARK                            x       y       z     vdW  Elec       q    Type
REMARK                         _______ _______ _______ _____ _____    ______ ____
ROOT
ATOM      1  C   LIG A   1      -8.640   2.752 123.104  0.00  0.00    +0.168 C 
ATOM      2  O   LIG A   1      -8.606   3.450 124.121  0.00  0.00    -0.292 OA
ENDROOT
BRANCH   1   6
ATOM      3  C   LIG A   1      -6.957   4.424 119.532  0.00  0.00    +0.117 A 
ATOM      4  C   LIG A   1      -6.131   4.063 120.589  0.00  0.00    +0.046 A 
ATOM      5  C   LIG A   1      -6.697   3.501 121.739  0.00  0.00    +0.015 A 
ATOM      6  C   LIG A   1      -8.086   3.312 121.835  0.00  0.00    +0.018 A 
ATOM      7  C   LIG A   1      -8.896   3.652 120.747  0.00  0.00    +0.015 A 
ATOM      8  C   LIG A   1      -8.329   4.213 119.598  0.00  0.00    +0.046 A 
BRANCH   3   9
ATOM      9  O   LIG A   1      -6.457   4.990 118.397  0.00  0.00    -0.507 OA
ATOM     10  H   LIG A   1      -5.953   4.320 117.908  0.00  0.00    +0.292 HD
ENDBRANCH   3   9
ENDBRANCH   1   6
BRANCH   1  11
ATOM     11  C   LIG A   1      -9.331   1.392 123.095  0.00  0.00    +0.119 C 
BRANCH  11  12
ATOM     12  C   LIG A   1      -8.486   0.348 123.770  0.00  0.00    +0.018 C 
ATOM     13  C   LIG A   1      -7.221   0.051 123.417  0.00  0.00    -0.016 C 
ATOM     14  C   LIG A   1      -6.417  -1.009 124.120  0.00  0.00    +0.046 C 
ATOM     15  C   LIG A   1      -7.348  -2.045 124.740  0.00  0.00    +0.108 C 
ATOM     16  N   LIG A   1      -8.420  -1.404 125.465  0.00  0.00    -0.311 N 
ATOM     17  C   LIG A   1      -9.081  -0.310 124.977  0.00  0.00    +0.240 C 
ATOM     18  O   LIG A   1     -10.093   0.114 125.512  0.00  0.00    -0.271 OA
ATOM     19  H   LIG A   1      -8.882  -1.881 126.228  0.00  0.00    +0.149 HD
ENDBRANCH  11  12
ENDBRANCH   1  11
TORSDOF 4
ENDMDL
MODEL 4
REMARK VINA RESULT:      -6.5      2.738      4.406
REMARK  Name = NuBBE_1527
REMARK  4 active torsions:
REMARK  status: ('A' for Active; 'I' for Inactive)
REMARK    1  A    between atoms: O_1  and  C_2
REMARK    2  A    between atoms: C_5  and  C_6
REMARK    3  A    between atoms: C_6  and  C_7
REMARK    4  A    between atoms: C_7  and  C_8
REMARK                            x       y       z     vdW  Elec       q    Type
REMARK                         _______ _______ _______ _____ _____    ______ ____
ROOT
ATOM      1  C   LIG A   1      -9.681   0.514 123.022  0.00  0.00    +0.168 C 
ATOM      2  O   LIG A   1     -10.724   0.245 122.424  0.00  0.00    -0.292 OA
ENDROOT
BRANCH   1   6
ATOM      3  C   LIG A   1      -6.942  -2.692 123.804  0.00  0.00    +0.117 A 
ATOM      4  C   LIG A   1      -8.297  -2.956 123.641  0.00  0.00    +0.046 A 
ATOM      5  C   LIG A   1      -9.172  -1.899 123.367  0.00  0.00    +0.015 A 
ATOM      6  C   LIG A   1      -8.695  -0.581 123.269  0.00  0.00    +0.018 A 
ATOM      7  C   LIG A   1      -7.324  -0.341 123.403  0.00  0.00    +0.015 A 
ATOM      8  C   LIG A   1      -6.451  -1.399 123.678  0.00  0.00    +0.046 A 
BRANCH   3   9
ATOM      9  O   LIG A   1      -6.052  -3.684 124.089  0.00  0.00    -0.507 OA
ATOM     10  H   LIG A   1      -5.502  -3.847 123.305  0.00  0.00    +0.292 HD
ENDBRANCH   3   9
ENDBRANCH   1   6
BRANCH   1  11
ATOM     11  C   LIG A   1      -9.433   1.902 123.607  0.00  0.00    +0.119 C 
BRANCH  11  12
ATOM     12  C   LIG A   1      -8.588   2.738 122.686  0.00  0.00    +0.018 C 
ATOM     13  C   LIG A   1      -8.936   3.068 121.428  0.00  0.00    -0.016 C 
ATOM     14  C   LIG A   1      -8.052   3.903 120.542  0.00  0.00    +0.046 C 
ATOM     15  C   LIG A   1      -6.595   3.749 120.964  0.00  0.00    +0.108 C 
ATOM     16  N   LIG A   1      -6.458   3.887 122.395  0.00  0.00    -0.311 N 
ATOM     17  C   LIG A   1      -7.336   3.313 123.272  0.00  0.00    +0.240 C 
ATOM     18  O   LIG A   1      -7.114   3.289 124.473  0.00  0.00    -0.271 OA
ATOM     19  H   LIG A   1      -5.583   4.195 122.800  0.00  0.00    +0.149 HD
ENDBRANCH  11  12
ENDBRANCH   1  11
TORSDOF 4
ENDMDL
MODEL 5
REMARK VINA RESULT:      -6.5      2.767      6.235
REMARK  Name = NuBBE_1527
REMARK  4 active torsions:
REMARK  status: ('A' for Active; 'I' for Inactive)
REMARK    1  A    between atoms: O_1  and  C_2
REMARK    2  A    between atoms: C_5  and  C_6
REMARK    3  A    between atoms: C_6  and  C_7
REMARK    4  A    between atoms: C_7  and  C_8
REMARK                            x       y       z     vdW  Elec       q    Type
REMARK                         _______ _______ _______ _____ _____    ______ ____
ROOT
ATOM      1  C   LIG A   1      -6.792   2.967 123.426  0.00  0.00    +0.168 C 
ATOM      2  O   LIG A   1      -6.002   3.058 124.368  0.00  0.00    -0.292 OA
ENDROOT
BRANCH   1   6
ATOM      3  C   LIG A   1      -5.716   4.944 119.776  0.00  0.00    +0.117 A 
ATOM      4  C   LIG A   1      -4.854   4.973 120.865  0.00  0.00    +0.046 A 
ATOM      5  C   LIG A   1      -5.214   4.306 122.041  0.00  0.00    +0.015 A 
ATOM      6  C   LIG A   1      -6.438   3.621 122.130  0.00  0.00    +0.018 A 
ATOM      7  C   LIG A   1      -7.277   3.576 121.012  0.00  0.00    +0.015 A 
ATOM      8  C   LIG A   1      -6.916   4.244 119.838  0.00  0.00    +0.046 A 
BRANCH   3   9
ATOM      9  O   LIG A   1      -5.420   5.592 118.614  0.00  0.00    -0.507 OA
ATOM     10  H   LIG A   1      -5.863   5.138 117.879  0.00  0.00    +0.292 HD
ENDBRANCH   3   9
ENDBRANCH   1   6
BRANCH   1  11
ATOM     11  C   LIG A   1      -8.157   2.304 123.592  0.00  0.00    +0.119 C 
BRANCH  11  12
ATOM     12  C   LIG A   1      -8.056   0.810 123.458  0.00  0.00    +0.018 C 
ATOM     13  C   LIG A   1      -6.916   0.109 123.612  0.00  0.00    -0.016 C 
ATOM     14  C   LIG A   1      -6.864  -1.387 123.461  0.00  0.00    +0.046 C 
ATOM     15  C   LIG A   1      -7.985  -1.858 122.541  0.00  0.00    +0.108 C 
ATOM     16  N   LIG A   1      -9.241  -1.249 122.909  0.00  0.00    -0.311 N 
ATOM     17  C   LIG A   1      -9.342   0.073 123.247  0.00  0.00    +0.240 C 
ATOM     18  O   LIG A   1     -10.428   0.614 123.385  0.00  0.00    -0.271 OA
ATOM     19  H   LIG A   1     -10.117  -1.706 122.690  0.00  0.00    +0.149 HD
ENDBRANCH  11  12
ENDBRANCH   1  11
TORSDOF 4
ENDMDL
MODEL 6
REMARK VINA RESULT:      -6.4      9.110     11.195
REMARK  Name = NuBBE_1527
REMARK  4 active torsions:
REMARK  status: ('A' for Active; 'I' for Inactive)
REMARK    1  A    between atoms: O_1  and  C_2
REMARK    2  A    between atoms: C_5  and  C_6
REMARK    3  A    between atoms: C_6  and  C_7
REMARK    4  A    between atoms: C_7  and  C_8
REMARK                            x       y       z     vdW  Elec       q    Type
REMARK                         _______ _______ _______ _____ _____    ______ ____
ROOT
ATOM      1  C   LIG A   1      -9.313   6.146 129.593  0.00  0.00    +0.168 C 
ATOM      2  O   LIG A   1      -9.079   5.246 128.783  0.00  0.00    -0.292 OA
ENDROOT
BRANCH   1   6
ATOM      3  C   LIG A   1     -12.489   8.894 128.728  0.00  0.00    +0.117 A 
ATOM      4  C   LIG A   1     -11.542   8.595 127.757  0.00  0.00    +0.046 A 
ATOM      5  C   LIG A   1     -10.524   7.681 128.051  0.00  0.00    +0.015 A 
ATOM      6  C   LIG A   1     -10.448   7.078 129.318  0.00  0.00    +0.018 A 
ATOM      7  C   LIG A   1     -11.429   7.367 130.271  0.00  0.00    +0.015 A 
ATOM      8  C   LIG A   1     -12.446   8.282 129.975  0.00  0.00    +0.046 A 
BRANCH   3   9
ATOM      9  O   LIG A   1     -13.490   9.790 128.497  0.00  0.00    -0.507 OA
ATOM     10  H   LIG A   1     -13.241  10.352 127.745  0.00  0.00    +0.292 HD
ENDBRANCH   3   9
ENDBRANCH   1   6
BRANCH   1  11
ATOM     11  C   LIG A   1      -8.406   6.391 130.796  0.00  0.00    +0.119 C 
BRANCH  11  12
ATOM     12  C   LIG A   1      -8.487   5.256 131.778  0.00  0.00    +0.018 C 
ATOM     13  C   LIG A   1      -7.662   4.191 131.776  0.00  0.00    -0.016 C 
ATOM     14  C   LIG A   1      -7.787   3.075 132.779  0.00  0.00    +0.046 C 
ATOM     15  C   LIG A   1      -9.223   2.986 133.284  0.00  0.00    +0.108 C 
ATOM     16  N   LIG A   1      -9.722   4.291 133.646  0.00  0.00    -0.311 N 
ATOM     17  C   LIG A   1      -9.489   5.401 132.881  0.00  0.00    +0.240 C 
ATOM     18  O   LIG A   1     -10.058   6.459 133.103  0.00  0.00    -0.271 OA
ATOM     19  H   LIG A   1     -10.461   4.388 134.331  0.00  0.00    +0.149 HD
ENDBRANCH  11  12
ENDBRANCH   1  11
TORSDOF 4
ENDMDL
MODEL 7
REMARK VINA RESULT:      -6.3      9.898     11.412
REMARK  Name = NuBBE_1527
REMARK  4 active torsions:
REMARK  status: ('A' for Active; 'I' for Inactive)
REMARK    1  A    between atoms: O_1  and  C_2
REMARK    2  A    between atoms: C_5  and  C_6
REMARK    3  A    between atoms: C_6  and  C_7
REMARK    4  A    between atoms: C_7  and  C_8
REMARK                            x       y       z     vdW  Elec       q    Type
REMARK                         _______ _______ _______ _____ _____    ______ ____
ROOT
ATOM      1  C   LIG A   1     -11.258   5.819 130.724  0.00  0.00    +0.168 C 
ATOM      2  O   LIG A   1     -11.221   4.818 130.005  0.00  0.00    -0.292 OA
ENDROOT
BRANCH   1   6
ATOM      3  C   LIG A   1     -12.954   9.406 129.097  0.00  0.00    +0.117 A 
ATOM      4  C   LIG A   1     -12.211   8.556 128.287  0.00  0.00    +0.046 A 
ATOM      5  C   LIG A   1     -11.682   7.380 128.831  0.00  0.00    +0.015 A 
ATOM      6  C   LIG A   1     -11.886   7.063 130.185  0.00  0.00    +0.018 A 
ATOM      7  C   LIG A   1     -12.664   7.915 130.975  0.00  0.00    +0.015 A 
ATOM      8  C   LIG A   1     -13.191   9.090 130.429  0.00  0.00    +0.046 A 
BRANCH   3   9
ATOM      9  O   LIG A   1     -13.475  10.572 128.619  0.00  0.00    -0.507 OA
ATOM     10  H   LIG A   1     -13.007  11.317 129.030  0.00  0.00    +0.292 HD
ENDBRANCH   3   9
ENDBRANCH   1   6
BRANCH   1  11
ATOM     11  C   LIG A   1     -10.584   5.843 132.092  0.00  0.00    +0.119 C 
BRANCH  11  12
ATOM     12  C   LIG A   1      -9.096   6.014 131.963  0.00  0.00    +0.018 C 
ATOM     13  C   LIG A   1      -8.501   6.862 131.102  0.00  0.00    -0.016 C 
ATOM     14  C   LIG A   1      -7.005   6.993 131.005  0.00  0.00    +0.046 C 
ATOM     15  C   LIG A   1      -6.338   5.698 131.455  0.00  0.00    +0.108 C 
ATOM     16  N   LIG A   1      -6.906   5.233 132.698  0.00  0.00    -0.311 N 
ATOM     17  C   LIG A   1      -8.252   5.258 132.942  0.00  0.00    +0.240 C 
ATOM     18  O   LIG A   1      -8.733   4.705 133.919  0.00  0.00    -0.271 OA
ATOM     19  H   LIG A   1      -6.366   4.649 133.324  0.00  0.00    +0.149 HD
ENDBRANCH  11  12
ENDBRANCH   1  11
TORSDOF 4
ENDMDL
MODEL 8
REMARK VINA RESULT:      -6.3      2.858      5.966
REMARK  Name = NuBBE_1527
REMARK  4 active torsions:
REMARK  status: ('A' for Active; 'I' for Inactive)
REMARK    1  A    between atoms: O_1  and  C_2
REMARK    2  A    between atoms: C_5  and  C_6
REMARK    3  A    between atoms: C_6  and  C_7
REMARK    4  A    between atoms: C_7  and  C_8
REMARK                            x       y       z     vdW  Elec       q    Type
REMARK                         _______ _______ _______ _____ _____    ______ ____
ROOT
ATOM      1  C   LIG A   1      -6.997   2.708 122.983  0.00  0.00    +0.168 C 
ATOM      2  O   LIG A   1      -6.921   1.481 122.891  0.00  0.00    -0.292 OA
ENDROOT
BRANCH   1   6
ATOM      3  C   LIG A   1      -5.928   5.007 119.525  0.00  0.00    +0.117 A 
ATOM      4  C   LIG A   1      -7.169   4.387 119.594  0.00  0.00    +0.046 A 
ATOM      5  C   LIG A   1      -7.508   3.657 120.738  0.00  0.00    +0.015 A 
ATOM      6  C   LIG A   1      -6.602   3.539 121.806  0.00  0.00    +0.018 A 
ATOM      7  C   LIG A   1      -5.371   4.197 121.731  0.00  0.00    +0.015 A 
ATOM      8  C   LIG A   1      -5.034   4.925 120.585  0.00  0.00    +0.046 A 
BRANCH   3   9
ATOM      9  O   LIG A   1      -5.543   5.714 118.425  0.00  0.00    -0.507 OA
ATOM     10  H   LIG A   1      -6.327   5.900 117.882  0.00  0.00    +0.292 HD
ENDBRANCH   3   9
ENDBRANCH   1   6
BRANCH   1  11
ATOM     11  C   LIG A   1      -7.376   3.387 124.297  0.00  0.00    +0.119 C 
BRANCH  11  12
ATOM     12  C   LIG A   1      -6.186   3.512 125.207  0.00  0.00    +0.018 C 
ATOM     13  C   LIG A   1      -5.419   2.477 125.601  0.00  0.00    -0.016 C 
ATOM     14  C   LIG A   1      -4.241   2.653 126.519  0.00  0.00    +0.046 C 
ATOM     15  C   LIG A   1      -4.436   3.891 127.387  0.00  0.00    +0.108 C 
ATOM     16  N   LIG A   1      -4.855   5.018 126.587  0.00  0.00    -0.311 N 
ATOM     17  C   LIG A   1      -5.791   4.903 125.596  0.00  0.00    +0.240 C 
ATOM     18  O   LIG A   1      -6.263   5.887 125.047  0.00  0.00    -0.271 OA
ATOM     19  H   LIG A   1      -4.664   5.964 126.891  0.00  0.00    +0.149 HD
ENDBRANCH  11  12
ENDBRANCH   1  11
TORSDOF 4
ENDMDL
MODEL 9
REMARK VINA RESULT:      -6.2      6.597      8.037
REMARK  Name = NuBBE_1527
REMARK  4 active torsions:
REMARK  status: ('A' for Active; 'I' for Inactive)
REMARK    1  A    between atoms: O_1  and  C_2
REMARK    2  A    between atoms: C_5  and  C_6
REMARK    3  A    between atoms: C_6  and  C_7
REMARK    4  A    between atoms: C_7  and  C_8
REMARK                            x       y       z     vdW  Elec       q    Type
REMARK                         _______ _______ _______ _____ _____    ______ ____
ROOT
ATOM      1  C   LIG A   1      -9.215  -2.298 125.792  0.00  0.00    +0.168 C 
ATOM      2  O   LIG A   1      -9.898  -1.286 125.622  0.00  0.00    -0.292 OA
ENDROOT
BRANCH   1   6
ATOM      3  C   LIG A   1      -6.998  -2.696 129.441  0.00  0.00    +0.117 A 
ATOM      4  C   LIG A   1      -6.811  -1.585 128.629  0.00  0.00    +0.046 A 
ATOM      5  C   LIG A   1      -7.557  -1.463 127.452  0.00  0.00    +0.015 A 
ATOM      6  C   LIG A   1      -8.480  -2.456 127.083  0.00  0.00    +0.018 A 
ATOM      7  C   LIG A   1      -8.678  -3.551 127.931  0.00  0.00    +0.015 A 
ATOM      8  C   LIG A   1      -7.930  -3.671 129.107  0.00  0.00    +0.046 A 
BRANCH   3   9
ATOM      9  O   LIG A   1      -6.284  -2.870 130.589  0.00  0.00    -0.507 OA
ATOM     10  H   LIG A   1      -6.458  -2.122 131.184  0.00  0.00    +0.292 HD
ENDBRANCH   3   9
ENDBRANCH   1   6
BRANCH   1  11
ATOM     11  C   LIG A   1      -9.020  -3.324 124.679  0.00  0.00    +0.119 C 
BRANCH  11  12
ATOM     12  C   LIG A   1      -7.632  -3.248 124.106  0.00  0.00    +0.018 C 
ATOM     13  C   LIG A   1      -6.624  -4.073 124.447  0.00  0.00    -0.016 C 
ATOM     14  C   LIG A   1      -5.248  -3.953 123.849  0.00  0.00    +0.046 C 
ATOM     15  C   LIG A   1      -5.001  -2.520 123.393  0.00  0.00    +0.108 C 
ATOM     16  N   LIG A   1      -6.124  -2.021 122.634  0.00  0.00    -0.311 N 
ATOM     17  C   LIG A   1      -7.419  -2.250 123.010  0.00  0.00    +0.240 C 
ATOM     18  O   LIG A   1      -8.351  -1.681 122.463  0.00  0.00    -0.271 OA
ATOM     19  H   LIG A   1      -5.997  -1.285 121.952  0.00  0.00    +0.149 HD
ENDBRANCH  11  12
ENDBRANCH   1  11
TORSDOF 4
ENDMDL
