MODEL 1
REMARK VINA RESULT:      -6.0      0.000      0.000
REMARK  Name = NuBBE_1595
REMARK  15 active torsions:
REMARK  status: ('A' for Active; 'I' for Inactive)
REMARK    1  A    between atoms: C_1  and  C_3
REMARK    2  A    between atoms: C_4  and  C_5
REMARK    3  A    between atoms: C_6  and  C_7
REMARK    4  A    between atoms: C_7  and  C_8
REMARK    5  A    between atoms: C_8  and  C_9
REMARK    6  A    between atoms: C_9  and  C_10
REMARK    7  A    between atoms: C_10  and  C_11
REMARK    8  A    between atoms: C_11  and  C_12
REMARK    9  A    between atoms: C_12  and  C_13
REMARK   10  A    between atoms: C_13  and  C_14
REMARK   11  A    between atoms: C_14  and  C_15
REMARK   12  A    between atoms: N_16  and  C_17
REMARK   13  A    between atoms: C_17  and  C_18
REMARK   14  A    between atoms: C_18  and  C_19
REMARK   15  A    between atoms: C_18  and  C_20
REMARK                            x       y       z     vdW  Elec       q    Type
REMARK                         _______ _______ _______ _____ _____    ______ ____
ROOT
ATOM      1  C   LIG A   1      -7.843  -2.275 127.512  0.00  0.00    -0.004 C 
ATOM      2  C   LIG A   1      -8.652  -3.221 127.015  0.00  0.00    -0.027 C 
ENDROOT
BRANCH   1   4
ATOM      3  C   LIG A   1      -7.051  -3.617 129.386  0.00  0.00    +0.067 C 
ATOM      4  C   LIG A   1      -7.025  -2.475 128.687  0.00  0.00    +0.005 C 
BRANCH   3   5
ATOM      5  C   LIG A   1      -6.185  -3.780 130.583  0.00  0.00    +0.237 C 
ATOM      6  O   LIG A   1      -5.230  -4.535 130.616  0.00  0.00    -0.271 OA
ATOM      7  N   LIG A   1      -6.590  -2.987 131.630  0.00  0.00    -0.312 N 
ATOM      8  H   LIG A   1      -7.447  -2.459 131.549  0.00  0.00    +0.149 HD
BRANCH   7   9
ATOM      9  C   LIG A   1      -5.871  -2.972 132.888  0.00  0.00    +0.107 C 
BRANCH   9  10
ATOM     10  C   LIG A   1      -6.667  -3.612 134.034  0.00  0.00    +0.000 C 
ATOM     11  C   LIG A   1      -8.165  -3.321 133.909  0.00  0.00    +0.009 C 
ATOM     12  C   LIG A   1      -6.428  -5.123 134.061  0.00  0.00    +0.009 C 
ENDBRANCH   9  10
ENDBRANCH   7   9
ENDBRANCH   3   5
ENDBRANCH   1   4
BRANCH   2  13
ATOM     13  C   LIG A   1      -9.550  -3.013 125.823  0.00  0.00    +0.027 C 
BRANCH  13  14
ATOM     14  C   LIG A   1      -8.944  -3.665 124.575  0.00  0.00    +0.004 C 
BRANCH  14  15
ATOM     15  C   LIG A   1      -9.305  -2.935 123.275  0.00  0.00    +0.000 C 
BRANCH  15  16
ATOM     16  C   LIG A   1      -8.537  -1.612 123.074  0.00  0.00    +0.000 C 
BRANCH  16  17
ATOM     17  C   LIG A   1      -7.029  -1.815 122.885  0.00  0.00    -0.000 C 
BRANCH  17  18
ATOM     18  C   LIG A   1      -6.182  -1.401 124.098  0.00  0.00    -0.000 C 
BRANCH  18  19
ATOM     19  C   LIG A   1      -5.357  -2.598 124.594  0.00  0.00    -0.000 C 
BRANCH  19  20
ATOM     20  C   LIG A   1      -4.503  -3.286 123.525  0.00  0.00    -0.003 C 
ATOM     21  C   LIG A   1      -4.510  -4.805 123.610  0.00  0.00    +0.004 C 
ENDBRANCH  19  20
ENDBRANCH  18  19
ENDBRANCH  17  18
ENDBRANCH  16  17
ENDBRANCH  15  16
ENDBRANCH  14  15
ENDBRANCH  13  14
ENDBRANCH   2  13
TORSDOF 12
ENDMDL
MODEL 2
REMARK VINA RESULT:      -5.9      4.461      6.086
REMARK  Name = NuBBE_1595
REMARK  15 active torsions:
REMARK  status: ('A' for Active; 'I' for Inactive)
REMARK    1  A    between atoms: C_1  and  C_3
REMARK    2  A    between atoms: C_4  and  C_5
REMARK    3  A    between atoms: C_6  and  C_7
REMARK    4  A    between atoms: C_7  and  C_8
REMARK    5  A    between atoms: C_8  and  C_9
REMARK    6  A    between atoms: C_9  and  C_10
REMARK    7  A    between atoms: C_10  and  C_11
REMARK    8  A    between atoms: C_11  and  C_12
REMARK    9  A    between atoms: C_12  and  C_13
REMARK   10  A    between atoms: C_13  and  C_14
REMARK   11  A    between atoms: C_14  and  C_15
REMARK   12  A    between atoms: N_16  and  C_17
REMARK   13  A    between atoms: C_17  and  C_18
REMARK   14  A    between atoms: C_18  and  C_19
REMARK   15  A    between atoms: C_18  and  C_20
REMARK                            x       y       z     vdW  Elec       q    Type
REMARK                         _______ _______ _______ _____ _____    ______ ____
ROOT
ATOM      1  C   LIG A   1      -6.434  -1.331 126.791  0.00  0.00    -0.004 C 
ATOM      2  C   LIG A   1      -7.733  -1.642 126.911  0.00  0.00    -0.027 C 
ENDROOT
BRANCH   1   4
ATOM      3  C   LIG A   1      -5.974   0.826 125.754  0.00  0.00    +0.067 C 
ATOM      4  C   LIG A   1      -5.943   0.028 126.829  0.00  0.00    +0.005 C 
BRANCH   3   5
ATOM      5  C   LIG A   1      -5.465   2.220 125.844  0.00  0.00    +0.237 C 
ATOM      6  O   LIG A   1      -5.530   3.013 124.922  0.00  0.00    -0.271 OA
ATOM      7  N   LIG A   1      -4.921   2.496 127.075  0.00  0.00    -0.312 N 
ATOM      8  H   LIG A   1      -4.824   1.754 127.753  0.00  0.00    +0.149 HD
BRANCH   7   9
ATOM      9  C   LIG A   1      -4.386   3.807 127.387  0.00  0.00    +0.107 C 
BRANCH   9  10
ATOM     10  C   LIG A   1      -2.912   3.760 127.814  0.00  0.00    +0.000 C 
ATOM     11  C   LIG A   1      -2.016   3.244 126.685  0.00  0.00    +0.009 C 
ATOM     12  C   LIG A   1      -2.448   5.150 128.255  0.00  0.00    +0.009 C 
ENDBRANCH   9  10
ENDBRANCH   7   9
ENDBRANCH   3   5
ENDBRANCH   1   4
BRANCH   2  13
ATOM     13  C   LIG A   1      -8.268  -3.047 126.821  0.00  0.00    +0.027 C 
BRANCH  13  14
ATOM     14  C   LIG A   1      -9.421  -3.118 125.812  0.00  0.00    +0.004 C 
BRANCH  14  15
ATOM     15  C   LIG A   1      -8.960  -3.462 124.389  0.00  0.00    +0.000 C 
BRANCH  15  16
ATOM     16  C   LIG A   1      -9.139  -2.304 123.384  0.00  0.00    +0.000 C 
BRANCH  16  17
ATOM     17  C   LIG A   1      -7.934  -2.123 122.455  0.00  0.00    -0.000 C 
BRANCH  17  18
ATOM     18  C   LIG A   1      -6.678  -1.580 123.152  0.00  0.00    -0.000 C 
BRANCH  18  19
ATOM     19  C   LIG A   1      -5.499  -2.541 122.931  0.00  0.00    -0.000 C 
BRANCH  19  20
ATOM     20  C   LIG A   1      -5.275  -3.562 124.049  0.00  0.00    -0.003 C 
ATOM     21  C   LIG A   1      -4.390  -4.733 123.650  0.00  0.00    +0.004 C 
ENDBRANCH  19  20
ENDBRANCH  18  19
ENDBRANCH  17  18
ENDBRANCH  16  17
ENDBRANCH  15  16
ENDBRANCH  14  15
ENDBRANCH  13  14
ENDBRANCH   2  13
TORSDOF 12
ENDMDL
MODEL 3
REMARK VINA RESULT:      -5.9     10.148     11.875
REMARK  Name = NuBBE_1595
REMARK  15 active torsions:
REMARK  status: ('A' for Active; 'I' for Inactive)
REMARK    1  A    between atoms: C_1  and  C_3
REMARK    2  A    between atoms: C_4  and  C_5
REMARK    3  A    between atoms: C_6  and  C_7
REMARK    4  A    between atoms: C_7  and  C_8
REMARK    5  A    between atoms: C_8  and  C_9
REMARK    6  A    between atoms: C_9  and  C_10
REMARK    7  A    between atoms: C_10  and  C_11
REMARK    8  A    between atoms: C_11  and  C_12
REMARK    9  A    between atoms: C_12  and  C_13
REMARK   10  A    between atoms: C_13  and  C_14
REMARK   11  A    between atoms: C_14  and  C_15
REMARK   12  A    between atoms: N_16  and  C_17
REMARK   13  A    between atoms: C_17  and  C_18
REMARK   14  A    between atoms: C_18  and  C_19
REMARK   15  A    between atoms: C_18  and  C_20
REMARK                            x       y       z     vdW  Elec       q    Type
REMARK                         _______ _______ _______ _____ _____    ______ ____
ROOT
ATOM      1  C   LIG A   1      -8.117   6.150 132.107  0.00  0.00    -0.004 C 
ATOM      2  C   LIG A   1      -6.898   6.430 131.623  0.00  0.00    -0.027 C 
ENDROOT
BRANCH   1   4
ATOM      3  C   LIG A   1     -10.544   6.150 131.881  0.00  0.00    +0.067 C 
ATOM      4  C   LIG A   1      -9.338   6.503 131.418  0.00  0.00    +0.005 C 
BRANCH   3   5
ATOM      5  C   LIG A   1     -11.772   6.544 131.142  0.00  0.00    +0.237 C 
ATOM      6  O   LIG A   1     -12.801   6.885 131.696  0.00  0.00    -0.271 OA
ATOM      7  N   LIG A   1     -11.604   6.474 129.780  0.00  0.00    -0.312 N 
ATOM      8  H   LIG A   1     -10.748   6.093 129.404  0.00  0.00    +0.149 HD
BRANCH   7   9
ATOM      9  C   LIG A   1     -12.671   6.839 128.868  0.00  0.00    +0.107 C 
BRANCH   9  10
ATOM     10  C   LIG A   1     -12.431   8.192 128.185  0.00  0.00    +0.000 C 
ATOM     11  C   LIG A   1     -12.905   9.356 129.059  0.00  0.00    +0.009 C 
ATOM     12  C   LIG A   1     -10.945   8.358 127.855  0.00  0.00    +0.009 C 
ENDBRANCH   9  10
ENDBRANCH   7   9
ENDBRANCH   3   5
ENDBRANCH   1   4
BRANCH   2  13
ATOM     13  C   LIG A   1      -5.617   6.116 132.352  0.00  0.00    +0.027 C 
BRANCH  13  14
ATOM     14  C   LIG A   1      -4.437   6.848 131.700  0.00  0.00    +0.004 C 
BRANCH  14  15
ATOM     15  C   LIG A   1      -4.834   7.637 130.445  0.00  0.00    +0.000 C 
BRANCH  15  16
ATOM     16  C   LIG A   1      -3.703   7.747 129.401  0.00  0.00    +0.000 C 
BRANCH  16  17
ATOM     17  C   LIG A   1      -2.621   6.674 129.570  0.00  0.00    -0.000 C 
BRANCH  17  18
ATOM     18  C   LIG A   1      -2.337   5.861 128.299  0.00  0.00    -0.000 C 
BRANCH  18  19
ATOM     19  C   LIG A   1      -3.343   4.705 128.181  0.00  0.00    -0.000 C 
BRANCH  19  20
ATOM     20  C   LIG A   1      -3.621   3.950 129.484  0.00  0.00    -0.003 C 
ATOM     21  C   LIG A   1      -5.085   3.597 129.696  0.00  0.00    +0.004 C 
ENDBRANCH  19  20
ENDBRANCH  18  19
ENDBRANCH  17  18
ENDBRANCH  16  17
ENDBRANCH  15  16
ENDBRANCH  14  15
ENDBRANCH  13  14
ENDBRANCH   2  13
TORSDOF 12
ENDMDL
MODEL 4
REMARK VINA RESULT:      -5.7      4.414      7.824
REMARK  Name = NuBBE_1595
REMARK  15 active torsions:
REMARK  status: ('A' for Active; 'I' for Inactive)
REMARK    1  A    between atoms: C_1  and  C_3
REMARK    2  A    between atoms: C_4  and  C_5
REMARK    3  A    between atoms: C_6  and  C_7
REMARK    4  A    between atoms: C_7  and  C_8
REMARK    5  A    between atoms: C_8  and  C_9
REMARK    6  A    between atoms: C_9  and  C_10
REMARK    7  A    between atoms: C_10  and  C_11
REMARK    8  A    between atoms: C_11  and  C_12
REMARK    9  A    between atoms: C_12  and  C_13
REMARK   10  A    between atoms: C_13  and  C_14
REMARK   11  A    between atoms: C_14  and  C_15
REMARK   12  A    between atoms: N_16  and  C_17
REMARK   13  A    between atoms: C_17  and  C_18
REMARK   14  A    between atoms: C_18  and  C_19
REMARK   15  A    between atoms: C_18  and  C_20
REMARK                            x       y       z     vdW  Elec       q    Type
REMARK                         _______ _______ _______ _____ _____    ______ ____
ROOT
ATOM      1  C   LIG A   1      -8.094  -0.038 127.172  0.00  0.00    -0.004 C 
ATOM      2  C   LIG A   1      -6.991  -0.794 127.272  0.00  0.00    -0.027 C 
ENDROOT
BRANCH   1   4
ATOM      3  C   LIG A   1      -8.373   1.129 125.051  0.00  0.00    +0.067 C 
ATOM      4  C   LIG A   1      -8.155   1.164 126.372  0.00  0.00    +0.005 C 
BRANCH   3   5
ATOM      5  C   LIG A   1      -8.437   2.393 124.271  0.00  0.00    +0.237 C 
ATOM      6  O   LIG A   1      -8.934   3.417 124.702  0.00  0.00    -0.271 OA
ATOM      7  N   LIG A   1      -7.875   2.263 123.023  0.00  0.00    -0.312 N 
ATOM      8  H   LIG A   1      -7.567   1.353 122.710  0.00  0.00    +0.149 HD
BRANCH   7   9
ATOM      9  C   LIG A   1      -7.809   3.382 122.105  0.00  0.00    +0.107 C 
BRANCH   9  10
ATOM     10  C   LIG A   1      -6.371   3.858 121.852  0.00  0.00    +0.000 C 
ATOM     11  C   LIG A   1      -5.619   4.097 123.163  0.00  0.00    +0.009 C 
ATOM     12  C   LIG A   1      -5.621   2.833 120.998  0.00  0.00    +0.009 C 
ENDBRANCH   9  10
ENDBRANCH   7   9
ENDBRANCH   3   5
ENDBRANCH   1   4
BRANCH   2  13
ATOM     13  C   LIG A   1      -6.894  -2.020 128.143  0.00  0.00    +0.027 C 
BRANCH  13  14
ATOM     14  C   LIG A   1      -8.276  -2.659 128.325  0.00  0.00    +0.004 C 
BRANCH  14  15
ATOM     15  C   LIG A   1      -8.536  -3.823 127.360  0.00  0.00    +0.000 C 
BRANCH  15  16
ATOM     16  C   LIG A   1      -9.038  -3.375 125.971  0.00  0.00    +0.000 C 
BRANCH  16  17
ATOM     17  C   LIG A   1      -8.221  -3.966 124.817  0.00  0.00    -0.000 C 
BRANCH  17  18
ATOM     18  C   LIG A   1      -7.390  -2.934 124.041  0.00  0.00    -0.000 C 
BRANCH  18  19
ATOM     19  C   LIG A   1      -5.946  -2.924 124.566  0.00  0.00    -0.000 C 
BRANCH  19  20
ATOM     20  C   LIG A   1      -4.879  -3.310 123.538  0.00  0.00    -0.003 C 
ATOM     21  C   LIG A   1      -4.443  -4.765 123.614  0.00  0.00    +0.004 C 
ENDBRANCH  19  20
ENDBRANCH  18  19
ENDBRANCH  17  18
ENDBRANCH  16  17
ENDBRANCH  15  16
ENDBRANCH  14  15
ENDBRANCH  13  14
ENDBRANCH   2  13
TORSDOF 12
ENDMDL
MODEL 5
REMARK VINA RESULT:      -5.7     10.730     12.810
REMARK  Name = NuBBE_1595
REMARK  15 active torsions:
REMARK  status: ('A' for Active; 'I' for Inactive)
REMARK    1  A    between atoms: C_1  and  C_3
REMARK    2  A    between atoms: C_4  and  C_5
REMARK    3  A    between atoms: C_6  and  C_7
REMARK    4  A    between atoms: C_7  and  C_8
REMARK    5  A    between atoms: C_8  and  C_9
REMARK    6  A    between atoms: C_9  and  C_10
REMARK    7  A    between atoms: C_10  and  C_11
REMARK    8  A    between atoms: C_11  and  C_12
REMARK    9  A    between atoms: C_12  and  C_13
REMARK   10  A    between atoms: C_13  and  C_14
REMARK   11  A    between atoms: C_14  and  C_15
REMARK   12  A    between atoms: N_16  and  C_17
REMARK   13  A    between atoms: C_17  and  C_18
REMARK   14  A    between atoms: C_18  and  C_19
REMARK   15  A    between atoms: C_18  and  C_20
REMARK                            x       y       z     vdW  Elec       q    Type
REMARK                         _______ _______ _______ _____ _____    ______ ____
ROOT
ATOM      1  C   LIG A   1      -7.905   6.377 131.653  0.00  0.00    -0.004 C 
ATOM      2  C   LIG A   1      -6.777   6.906 131.157  0.00  0.00    -0.027 C 
ENDROOT
BRANCH   1   4
ATOM      3  C   LIG A   1     -10.339   6.272 131.717  0.00  0.00    +0.067 C 
ATOM      4  C   LIG A   1      -9.212   6.647 131.097  0.00  0.00    +0.005 C 
BRANCH   3   5
ATOM      5  C   LIG A   1     -11.661   6.580 131.111  0.00  0.00    +0.237 C 
ATOM      6  O   LIG A   1     -12.651   6.842 131.771  0.00  0.00    -0.271 OA
ATOM      7  N   LIG A   1     -11.628   6.532 129.738  0.00  0.00    -0.312 N 
ATOM      8  H   LIG A   1     -10.789   6.217 129.272  0.00  0.00    +0.149 HD
BRANCH   7   9
ATOM      9  C   LIG A   1     -12.805   6.823 128.944  0.00  0.00    +0.107 C 
BRANCH   9  10
ATOM     10  C   LIG A   1     -12.670   8.121 128.135  0.00  0.00    +0.000 C 
ATOM     11  C   LIG A   1     -13.052   9.346 128.970  0.00  0.00    +0.009 C 
ATOM     12  C   LIG A   1     -11.238   8.269 127.616  0.00  0.00    +0.009 C 
ENDBRANCH   9  10
ENDBRANCH   7   9
ENDBRANCH   3   5
ENDBRANCH   1   4
BRANCH   2  13
ATOM     13  C   LIG A   1      -5.413   6.678 131.754  0.00  0.00    +0.027 C 
BRANCH  13  14
ATOM     14  C   LIG A   1      -5.476   5.592 132.835  0.00  0.00    +0.004 C 
BRANCH  14  15
ATOM     15  C   LIG A   1      -4.587   5.894 134.049  0.00  0.00    +0.000 C 
BRANCH  15  16
ATOM     16  C   LIG A   1      -3.532   4.803 134.330  0.00  0.00    +0.000 C 
BRANCH  16  17
ATOM     17  C   LIG A   1      -2.998   4.141 133.054  0.00  0.00    -0.000 C 
BRANCH  17  18
ATOM     18  C   LIG A   1      -1.592   4.606 132.647  0.00  0.00    -0.000 C 
BRANCH  18  19
ATOM     19  C   LIG A   1      -1.692   5.834 131.729  0.00  0.00    -0.000 C 
BRANCH  19  20
ATOM     20  C   LIG A   1      -1.086   7.120 132.297  0.00  0.00    -0.003 C 
ATOM     21  C   LIG A   1      -2.109   8.200 132.615  0.00  0.00    +0.004 C 
ENDBRANCH  19  20
ENDBRANCH  18  19
ENDBRANCH  17  18
ENDBRANCH  16  17
ENDBRANCH  15  16
ENDBRANCH  14  15
ENDBRANCH  13  14
ENDBRANCH   2  13
TORSDOF 12
ENDMDL
MODEL 6
REMARK VINA RESULT:      -5.6      1.712      2.298
REMARK  Name = NuBBE_1595
REMARK  15 active torsions:
REMARK  status: ('A' for Active; 'I' for Inactive)
REMARK    1  A    between atoms: C_1  and  C_3
REMARK    2  A    between atoms: C_4  and  C_5
REMARK    3  A    between atoms: C_6  and  C_7
REMARK    4  A    between atoms: C_7  and  C_8
REMARK    5  A    between atoms: C_8  and  C_9
REMARK    6  A    between atoms: C_9  and  C_10
REMARK    7  A    between atoms: C_10  and  C_11
REMARK    8  A    between atoms: C_11  and  C_12
REMARK    9  A    between atoms: C_12  and  C_13
REMARK   10  A    between atoms: C_13  and  C_14
REMARK   11  A    between atoms: C_14  and  C_15
REMARK   12  A    between atoms: N_16  and  C_17
REMARK   13  A    between atoms: C_17  and  C_18
REMARK   14  A    between atoms: C_18  and  C_19
REMARK   15  A    between atoms: C_18  and  C_20
REMARK                            x       y       z     vdW  Elec       q    Type
REMARK                         _______ _______ _______ _____ _____    ______ ____
ROOT
ATOM      1  C   LIG A   1      -8.931  -3.823 126.155  0.00  0.00    -0.004 C 
ATOM      2  C   LIG A   1      -9.202  -2.901 125.220  0.00  0.00    -0.027 C 
ENDROOT
BRANCH   1   4
ATOM      3  C   LIG A   1      -7.595  -2.752 127.889  0.00  0.00    +0.067 C 
ATOM      4  C   LIG A   1      -8.655  -3.489 127.534  0.00  0.00    +0.005 C 
BRANCH   3   5
ATOM      5  C   LIG A   1      -7.357  -2.426 129.320  0.00  0.00    +0.237 C 
ATOM      6  O   LIG A   1      -8.158  -1.818 130.007  0.00  0.00    -0.271 OA
ATOM      7  N   LIG A   1      -6.141  -2.888 129.763  0.00  0.00    -0.312 N 
ATOM      8  H   LIG A   1      -5.497  -3.303 129.104  0.00  0.00    +0.149 HD
BRANCH   7   9
ATOM      9  C   LIG A   1      -5.717  -2.700 131.137  0.00  0.00    +0.107 C 
BRANCH   9  10
ATOM     10  C   LIG A   1      -5.673  -4.014 131.929  0.00  0.00    +0.000 C 
ATOM     11  C   LIG A   1      -5.502  -5.222 131.005  0.00  0.00    +0.009 C 
ATOM     12  C   LIG A   1      -4.535  -3.973 132.952  0.00  0.00    +0.009 C 
ENDBRANCH   9  10
ENDBRANCH   7   9
ENDBRANCH   3   5
ENDBRANCH   1   4
BRANCH   2  13
ATOM     13  C   LIG A   1      -9.440  -3.226 123.769  0.00  0.00    +0.027 C 
BRANCH  13  14
ATOM     14  C   LIG A   1      -8.726  -2.211 122.868  0.00  0.00    +0.004 C 
BRANCH  14  15
ATOM     15  C   LIG A   1      -9.327  -0.802 122.950  0.00  0.00    +0.000 C 
BRANCH  15  16
ATOM     16  C   LIG A   1      -8.341   0.260 123.482  0.00  0.00    +0.000 C 
BRANCH  16  17
ATOM     17  C   LIG A   1      -6.909  -0.267 123.624  0.00  0.00    -0.000 C 
BRANCH  17  18
ATOM     18  C   LIG A   1      -6.439  -0.427 125.078  0.00  0.00    -0.000 C 
BRANCH  18  19
ATOM     19  C   LIG A   1      -5.267  -1.418 125.143  0.00  0.00    -0.000 C 
BRANCH  19  20
ATOM     20  C   LIG A   1      -5.606  -2.854 124.735  0.00  0.00    -0.003 C 
ATOM     21  C   LIG A   1      -4.842  -3.349 123.517  0.00  0.00    +0.004 C 
ENDBRANCH  19  20
ENDBRANCH  18  19
ENDBRANCH  17  18
ENDBRANCH  16  17
ENDBRANCH  15  16
ENDBRANCH  14  15
ENDBRANCH  13  14
ENDBRANCH   2  13
TORSDOF 12
ENDMDL
MODEL 7
REMARK VINA RESULT:      -5.6      1.777      2.919
REMARK  Name = NuBBE_1595
REMARK  15 active torsions:
REMARK  status: ('A' for Active; 'I' for Inactive)
REMARK    1  A    between atoms: C_1  and  C_3
REMARK    2  A    between atoms: C_4  and  C_5
REMARK    3  A    between atoms: C_6  and  C_7
REMARK    4  A    between atoms: C_7  and  C_8
REMARK    5  A    between atoms: C_8  and  C_9
REMARK    6  A    between atoms: C_9  and  C_10
REMARK    7  A    between atoms: C_10  and  C_11
REMARK    8  A    between atoms: C_11  and  C_12
REMARK    9  A    between atoms: C_12  and  C_13
REMARK   10  A    between atoms: C_13  and  C_14
REMARK   11  A    between atoms: C_14  and  C_15
REMARK   12  A    between atoms: N_16  and  C_17
REMARK   13  A    between atoms: C_17  and  C_18
REMARK   14  A    between atoms: C_18  and  C_19
REMARK   15  A    between atoms: C_18  and  C_20
REMARK                            x       y       z     vdW  Elec       q    Type
REMARK                         _______ _______ _______ _____ _____    ______ ____
ROOT
ATOM      1  C   LIG A   1      -8.467  -3.320 126.473  0.00  0.00    -0.004 C 
ATOM      2  C   LIG A   1      -9.422  -2.961 125.603  0.00  0.00    -0.027 C 
ENDROOT
BRANCH   1   4
ATOM      3  C   LIG A   1      -7.407  -2.881 128.624  0.00  0.00    +0.067 C 
ATOM      4  C   LIG A   1      -8.515  -2.987 127.879  0.00  0.00    +0.005 C 
BRANCH   3   5
ATOM      5  C   LIG A   1      -7.506  -2.527 130.064  0.00  0.00    +0.237 C 
ATOM      6  O   LIG A   1      -8.080  -1.531 130.467  0.00  0.00    -0.271 OA
ATOM      7  N   LIG A   1      -6.881  -3.448 130.870  0.00  0.00    -0.312 N 
ATOM      8  H   LIG A   1      -6.351  -4.197 130.449  0.00  0.00    +0.149 HD
BRANCH   7   9
ATOM      9  C   LIG A   1      -6.877  -3.308 132.313  0.00  0.00    +0.107 C 
BRANCH   9  10
ATOM     10  C   LIG A   1      -5.825  -4.196 132.993  0.00  0.00    +0.000 C 
ATOM     11  C   LIG A   1      -6.417  -4.962 134.179  0.00  0.00    +0.009 C 
ATOM     12  C   LIG A   1      -5.233  -5.178 131.979  0.00  0.00    +0.009 C 
ENDBRANCH   9  10
ENDBRANCH   7   9
ENDBRANCH   3   5
ENDBRANCH   1   4
BRANCH   2  13
ATOM     13  C   LIG A   1      -9.361  -3.254 124.127  0.00  0.00    +0.027 C 
BRANCH  13  14
ATOM     14  C   LIG A   1      -7.913  -3.190 123.627  0.00  0.00    +0.004 C 
BRANCH  14  15
ATOM     15  C   LIG A   1      -7.608  -1.923 122.816  0.00  0.00    +0.000 C 
BRANCH  15  16
ATOM     16  C   LIG A   1      -6.638  -0.955 123.525  0.00  0.00    +0.000 C 
BRANCH  16  17
ATOM     17  C   LIG A   1      -5.754  -1.646 124.570  0.00  0.00    -0.000 C 
BRANCH  17  18
ATOM     18  C   LIG A   1      -5.635  -0.882 125.896  0.00  0.00    -0.000 C 
BRANCH  18  19
ATOM     19  C   LIG A   1      -6.487   0.396 125.844  0.00  0.00    -0.000 C 
BRANCH  19  20
ATOM     20  C   LIG A   1      -7.690   0.413 126.791  0.00  0.00    -0.003 C 
ATOM     21  C   LIG A   1      -9.026   0.610 126.091  0.00  0.00    +0.004 C 
ENDBRANCH  19  20
ENDBRANCH  18  19
ENDBRANCH  17  18
ENDBRANCH  16  17
ENDBRANCH  15  16
ENDBRANCH  14  15
ENDBRANCH  13  14
ENDBRANCH   2  13
TORSDOF 12
ENDMDL
MODEL 8
REMARK VINA RESULT:      -5.5      1.103      2.021
REMARK  Name = NuBBE_1595
REMARK  15 active torsions:
REMARK  status: ('A' for Active; 'I' for Inactive)
REMARK    1  A    between atoms: C_1  and  C_3
REMARK    2  A    between atoms: C_4  and  C_5
REMARK    3  A    between atoms: C_6  and  C_7
REMARK    4  A    between atoms: C_7  and  C_8
REMARK    5  A    between atoms: C_8  and  C_9
REMARK    6  A    between atoms: C_9  and  C_10
REMARK    7  A    between atoms: C_10  and  C_11
REMARK    8  A    between atoms: C_11  and  C_12
REMARK    9  A    between atoms: C_12  and  C_13
REMARK   10  A    between atoms: C_13  and  C_14
REMARK   11  A    between atoms: C_14  and  C_15
REMARK   12  A    between atoms: N_16  and  C_17
REMARK   13  A    between atoms: C_17  and  C_18
REMARK   14  A    between atoms: C_18  and  C_19
REMARK   15  A    between atoms: C_18  and  C_20
REMARK                            x       y       z     vdW  Elec       q    Type
REMARK                         _______ _______ _______ _____ _____    ______ ____
ROOT
ATOM      1  C   LIG A   1      -8.267  -2.906 127.914  0.00  0.00    -0.004 C 
ATOM      2  C   LIG A   1      -8.895  -3.524 126.903  0.00  0.00    -0.027 C 
ENDROOT
BRANCH   1   4
ATOM      3  C   LIG A   1      -6.563  -3.321 129.606  0.00  0.00    +0.067 C 
ATOM      4  C   LIG A   1      -7.756  -3.608 129.070  0.00  0.00    +0.005 C 
BRANCH   3   5
ATOM      5  C   LIG A   1      -6.084  -4.064 130.802  0.00  0.00    +0.237 C 
ATOM      6  O   LIG A   1      -5.592  -5.176 130.741  0.00  0.00    -0.271 OA
ATOM      7  N   LIG A   1      -6.264  -3.351 131.963  0.00  0.00    -0.312 N 
ATOM      8  H   LIG A   1      -6.763  -2.473 131.935  0.00  0.00    +0.149 HD
BRANCH   7   9
ATOM      9  C   LIG A   1      -5.844  -3.880 133.246  0.00  0.00    +0.107 C 
BRANCH   9  10
ATOM     10  C   LIG A   1      -7.013  -4.437 134.069  0.00  0.00    +0.000 C 
ATOM     11  C   LIG A   1      -6.554  -4.908 135.451  0.00  0.00    +0.009 C 
ATOM     12  C   LIG A   1      -8.105  -3.375 134.216  0.00  0.00    +0.009 C 
ENDBRANCH   9  10
ENDBRANCH   7   9
ENDBRANCH   3   5
ENDBRANCH   1   4
BRANCH   2  13
ATOM     13  C   LIG A   1      -9.479  -2.804 125.716  0.00  0.00    +0.027 C 
BRANCH  13  14
ATOM     14  C   LIG A   1      -9.037  -3.475 124.410  0.00  0.00    +0.004 C 
BRANCH  14  15
ATOM     15  C   LIG A   1      -8.909  -2.493 123.238  0.00  0.00    +0.000 C 
BRANCH  15  16
ATOM     16  C   LIG A   1      -7.456  -2.059 122.951  0.00  0.00    +0.000 C 
BRANCH  16  17
ATOM     17  C   LIG A   1      -6.416  -2.934 123.661  0.00  0.00    -0.000 C 
BRANCH  17  18
ATOM     18  C   LIG A   1      -5.277  -2.144 124.322  0.00  0.00    -0.000 C 
BRANCH  18  19
ATOM     19  C   LIG A   1      -5.635  -1.832 125.783  0.00  0.00    -0.000 C 
BRANCH  19  20
ATOM     20  C   LIG A   1      -5.810  -0.346 126.106  0.00  0.00    -0.003 C 
ATOM     21  C   LIG A   1      -7.242   0.151 125.979  0.00  0.00    +0.004 C 
ENDBRANCH  19  20
ENDBRANCH  18  19
ENDBRANCH  17  18
ENDBRANCH  16  17
ENDBRANCH  15  16
ENDBRANCH  14  15
ENDBRANCH  13  14
ENDBRANCH   2  13
TORSDOF 12
ENDMDL
MODEL 9
REMARK VINA RESULT:      -5.4      2.375      3.373
REMARK  Name = NuBBE_1595
REMARK  15 active torsions:
REMARK  status: ('A' for Active; 'I' for Inactive)
REMARK    1  A    between atoms: C_1  and  C_3
REMARK    2  A    between atoms: C_4  and  C_5
REMARK    3  A    between atoms: C_6  and  C_7
REMARK    4  A    between atoms: C_7  and  C_8
REMARK    5  A    between atoms: C_8  and  C_9
REMARK    6  A    between atoms: C_9  and  C_10
REMARK    7  A    between atoms: C_10  and  C_11
REMARK    8  A    between atoms: C_11  and  C_12
REMARK    9  A    between atoms: C_12  and  C_13
REMARK   10  A    between atoms: C_13  and  C_14
REMARK   11  A    between atoms: C_14  and  C_15
REMARK   12  A    between atoms: N_16  and  C_17
REMARK   13  A    between atoms: C_17  and  C_18
REMARK   14  A    between atoms: C_18  and  C_19
REMARK   15  A    between atoms: C_18  and  C_20
REMARK                            x       y       z     vdW  Elec       q    Type
REMARK                         _______ _______ _______ _____ _____    ______ ____
ROOT
ATOM      1  C   LIG A   1      -8.455  -3.401 126.604  0.00  0.00    -0.004 C 
ATOM      2  C   LIG A   1      -9.346  -2.928 125.721  0.00  0.00    -0.027 C 
ENDROOT
BRANCH   1   4
ATOM      3  C   LIG A   1      -7.311  -2.910 128.700  0.00  0.00    +0.067 C 
ATOM      4  C   LIG A   1      -8.447  -3.017 127.998  0.00  0.00    +0.005 C 
BRANCH   3   5
ATOM      5  C   LIG A   1      -7.353  -2.503 130.129  0.00  0.00    +0.237 C 
ATOM      6  O   LIG A   1      -7.601  -3.278 131.035  0.00  0.00    -0.271 OA
ATOM      7  N   LIG A   1      -7.082  -1.166 130.297  0.00  0.00    -0.312 N 
ATOM      8  H   LIG A   1      -6.977  -0.575 129.485  0.00  0.00    +0.149 HD
BRANCH   7   9
ATOM      9  C   LIG A   1      -7.047  -0.563 131.615  0.00  0.00    +0.107 C 
BRANCH   9  10
ATOM     10  C   LIG A   1      -7.830   0.755 131.685  0.00  0.00    +0.000 C 
ATOM     11  C   LIG A   1      -9.339   0.510 131.755  0.00  0.00    +0.009 C 
ATOM     12  C   LIG A   1      -7.377   1.572 132.898  0.00  0.00    +0.009 C 
ENDBRANCH   9  10
ENDBRANCH   7   9
ENDBRANCH   3   5
ENDBRANCH   1   4
BRANCH   2  13
ATOM     13  C   LIG A   1      -9.336  -3.276 124.255  0.00  0.00    +0.027 C 
BRANCH  13  14
ATOM     14  C   LIG A   1      -9.065  -2.026 123.409  0.00  0.00    +0.004 C 
BRANCH  14  15
ATOM     15  C   LIG A   1      -7.829  -2.161 122.509  0.00  0.00    +0.000 C 
BRANCH  15  16
ATOM     16  C   LIG A   1      -6.597  -1.393 123.030  0.00  0.00    +0.000 C 
BRANCH  16  17
ATOM     17  C   LIG A   1      -5.685  -2.250 123.917  0.00  0.00    -0.000 C 
BRANCH  17  18
ATOM     18  C   LIG A   1      -5.594  -1.771 125.373  0.00  0.00    -0.000 C 
BRANCH  18  19
ATOM     19  C   LIG A   1      -5.934  -0.275 125.455  0.00  0.00    -0.000 C 
BRANCH  19  20
ATOM     20  C   LIG A   1      -6.925   0.107 126.558  0.00  0.00    -0.003 C 
ATOM     21  C   LIG A   1      -8.298   0.512 126.044  0.00  0.00    +0.004 C 
ENDBRANCH  19  20
ENDBRANCH  18  19
ENDBRANCH  17  18
ENDBRANCH  16  17
ENDBRANCH  15  16
ENDBRANCH  14  15
ENDBRANCH  13  14
ENDBRANCH   2  13
TORSDOF 12
ENDMDL
