MODEL 1
REMARK VINA RESULT:      -8.4      0.000      0.000
REMARK  Name = NuBBE_1228
REMARK  17 active torsions:
REMARK  status: ('A' for Active; 'I' for Inactive)
REMARK    1  A    between atoms: C_1  and  C_2
REMARK    2  A    between atoms: C_3  and  O_39
REMARK    3  A    between atoms: C_7  and  O_8
REMARK    4  A    between atoms: C_10  and  O_12
REMARK    5  A    between atoms: C_13  and  O_15
REMARK    6  A    between atoms: C_17  and  C_18
REMARK    7  A    between atoms: C_25  and  C_27
REMARK    8  A    between atoms: C_27  and  C_28
REMARK    9  A    between atoms: C_27  and  O_37
REMARK   10  A    between atoms: C_27  and  C_38
REMARK   11  A    between atoms: C_28  and  O_30
REMARK   12  A    between atoms: C_28  and  C_31
REMARK   13  A    between atoms: C_31  and  C_32
REMARK   14  A    between atoms: C_32  and  C_33
REMARK   15  A    between atoms: C_33  and  C_34
REMARK   16  A    between atoms: C_33  and  C_35
REMARK   17  A    between atoms: C_33  and  O_36
REMARK                            x       y       z     vdW  Elec       q    Type
REMARK                         _______ _______ _______ _____ _____    ______ ____
ROOT
ATOM      1  C   LIG A   1      -6.130  -4.215 123.978  0.00  0.00    +0.014 C 
ATOM      2  C   LIG A   1      -6.826  -2.874 124.421  0.00  0.00    +0.006 C 
ATOM      3  C   LIG A   1      -7.086  -1.935 123.204  0.00  0.00    +0.093 C 
ATOM      4  C   LIG A   1      -7.362  -0.474 123.593  0.00  0.00    -0.031 C 
ATOM      5  C   LIG A   1      -8.402   0.236 123.114  0.00  0.00    +0.051 C 
ATOM      6  C   LIG A   1      -8.511   1.708 123.310  0.00  0.00    +0.188 C 
ATOM      7  C   LIG A   1      -7.260   2.439 123.818  0.00  0.00    +0.136 C 
ATOM      8  C   LIG A   1      -7.542   3.903 124.179  0.00  0.00    +0.077 C 
ATOM      9  C   LIG A   1      -6.271   4.611 124.657  0.00  0.00    +0.146 C 
ATOM     10  C   LIG A   1      -5.514   3.849 125.758  0.00  0.00    +0.144 C 
ATOM     11  C   LIG A   1      -5.352   2.352 125.472  0.00  0.00    +0.044 C 
ATOM     12  C   LIG A   1      -6.661   1.640 125.004  0.00  0.00    +0.013 C 
ATOM     13  C   LIG A   1      -7.675   1.618 126.188  0.00  0.00    +0.015 C 
ATOM     14  C   LIG A   1      -6.308   0.165 124.506  0.00  0.00    +0.027 C 
ATOM     15  C   LIG A   1      -5.997  -0.758 125.698  0.00  0.00    +0.009 C 
ATOM     16  C   LIG A   1      -5.795  -2.230 125.364  0.00  0.00    +0.011 C 
ATOM     17  O   LIG A   1      -9.521   2.289 122.938  0.00  0.00    -0.290 OA
ATOM     18  C   LIG A   1      -8.204  -2.686 122.474  0.00  0.00    +0.040 C 
ATOM     19  C   LIG A   1      -9.134  -3.155 123.589  0.00  0.00    +0.010 C 
ATOM     20  C   LIG A   1      -8.278  -3.316 124.894  0.00  0.00    +0.032 C 
ENDROOT
BRANCH   7  21
ATOM     21  O   LIG A   1      -6.319   2.459 122.724  0.00  0.00    -0.380 OA
ATOM     22  H   LIG A   1      -5.971   3.370 122.666  0.00  0.00    +0.211 HD
ENDBRANCH   7  21
BRANCH   9  23
ATOM     23  O   LIG A   1      -6.614   5.906 125.174  0.00  0.00    -0.389 OA
ATOM     24  H   LIG A   1      -7.065   6.393 124.462  0.00  0.00    +0.210 HD
ENDBRANCH   9  23
BRANCH  10  25
ATOM     25  O   LIG A   1      -6.182   4.032 127.011  0.00  0.00    -0.389 OA
ATOM     26  H   LIG A   1      -5.464   4.006 127.677  0.00  0.00    +0.210 HD
ENDBRANCH  10  25
BRANCH  20  27
ATOM     27  C   LIG A   1      -9.022  -2.737 126.143  0.00  0.00    +0.092 C 
ATOM     28  C   LIG A   1      -9.127  -1.205 126.149  0.00  0.00    +0.044 C 
BRANCH  27  29
ATOM     29  O   LIG A   1     -10.357  -3.253 126.141  0.00  0.00    -0.386 OA
ATOM     30  H   LIG A   1     -10.377  -3.970 125.475  0.00  0.00    +0.210 HD
ENDBRANCH  27  29
BRANCH  27  31
ATOM     31  C   LIG A   1      -8.341  -3.190 127.506  0.00  0.00    +0.146 C 
BRANCH  31  32
ATOM     32  O   LIG A   1      -9.258  -4.057 128.207  0.00  0.00    -0.389 OA
ATOM     33  H   LIG A   1      -9.363  -4.872 127.687  0.00  0.00    +0.210 HD
ENDBRANCH  31  32
BRANCH  31  34
ATOM     34  C   LIG A   1      -7.900  -2.037 128.442  0.00  0.00    +0.037 C 
BRANCH  34  35
ATOM     35  C   LIG A   1      -7.603  -2.516 129.877  0.00  0.00    +0.036 C 
BRANCH  35  36
ATOM     36  C   LIG A   1      -6.130  -2.898 130.160  0.00  0.00    +0.061 C 
ATOM     37  C   LIG A   1      -6.018  -4.418 130.340  0.00  0.00    +0.041 C 
ATOM     38  C   LIG A   1      -5.164  -2.446 129.063  0.00  0.00    +0.041 C 
BRANCH  36  39
ATOM     39  O   LIG A   1      -5.713  -2.270 131.376  0.00  0.00    -0.389 OA
ATOM     40  H   LIG A   1      -4.741  -2.304 131.416  0.00  0.00    +0.210 HD
ENDBRANCH  36  39
ENDBRANCH  35  36
ENDBRANCH  34  35
ENDBRANCH  31  34
ENDBRANCH  27  31
ENDBRANCH  20  27
BRANCH   3  41
ATOM     41  O   LIG A   1      -5.939  -1.904 122.353  0.00  0.00    -0.384 OA
ATOM     42  H   LIG A   1      -5.973  -2.693 121.787  0.00  0.00    +0.211 HD
ENDBRANCH   3  41
TORSDOF 12
ENDMDL
MODEL 2
REMARK VINA RESULT:      -8.0      4.715      7.851
REMARK  Name = NuBBE_1228
REMARK  17 active torsions:
REMARK  status: ('A' for Active; 'I' for Inactive)
REMARK    1  A    between atoms: C_1  and  C_2
REMARK    2  A    between atoms: C_3  and  O_39
REMARK    3  A    between atoms: C_7  and  O_8
REMARK    4  A    between atoms: C_10  and  O_12
REMARK    5  A    between atoms: C_13  and  O_15
REMARK    6  A    between atoms: C_17  and  C_18
REMARK    7  A    between atoms: C_25  and  C_27
REMARK    8  A    between atoms: C_27  and  C_28
REMARK    9  A    between atoms: C_27  and  O_37
REMARK   10  A    between atoms: C_27  and  C_38
REMARK   11  A    between atoms: C_28  and  O_30
REMARK   12  A    between atoms: C_28  and  C_31
REMARK   13  A    between atoms: C_31  and  C_32
REMARK   14  A    between atoms: C_32  and  C_33
REMARK   15  A    between atoms: C_33  and  C_34
REMARK   16  A    between atoms: C_33  and  C_35
REMARK   17  A    between atoms: C_33  and  O_36
REMARK                            x       y       z     vdW  Elec       q    Type
REMARK                         _______ _______ _______ _____ _____    ______ ____
ROOT
ATOM      1  C   LIG A   1      -6.567   3.211 132.391  0.00  0.00    +0.014 C 
ATOM      2  C   LIG A   1      -7.201   3.432 130.967  0.00  0.00    +0.006 C 
ATOM      3  C   LIG A   1      -7.396   2.083 130.211  0.00  0.00    +0.093 C 
ATOM      4  C   LIG A   1      -7.604   2.242 128.697  0.00  0.00    -0.031 C 
ATOM      5  C   LIG A   1      -8.600   1.641 128.019  0.00  0.00    +0.051 C 
ATOM      6  C   LIG A   1      -8.638   1.611 126.530  0.00  0.00    +0.188 C 
ATOM      7  C   LIG A   1      -7.358   2.029 125.792  0.00  0.00    +0.136 C 
ATOM      8  C   LIG A   1      -7.571   2.161 124.278  0.00  0.00    +0.077 C 
ATOM      9  C   LIG A   1      -6.273   2.553 123.567  0.00  0.00    +0.146 C 
ATOM     10  C   LIG A   1      -5.570   3.772 124.190  0.00  0.00    +0.144 C 
ATOM     11  C   LIG A   1      -5.480   3.718 125.719  0.00  0.00    +0.044 C 
ATOM     12  C   LIG A   1      -6.816   3.334 126.430  0.00  0.00    +0.013 C 
ATOM     13  C   LIG A   1      -7.846   4.487 126.225  0.00  0.00    +0.015 C 
ATOM     14  C   LIG A   1      -6.531   3.071 127.978  0.00  0.00    +0.027 C 
ATOM     15  C   LIG A   1      -6.283   4.394 128.725  0.00  0.00    +0.009 C 
ATOM     16  C   LIG A   1      -6.152   4.289 130.238  0.00  0.00    +0.011 C 
ATOM     17  O   LIG A   1      -9.612   1.134 125.965  0.00  0.00    -0.290 OA
ATOM     18  C   LIG A   1      -8.540   1.451 131.009  0.00  0.00    +0.040 C 
ATOM     19  C   LIG A   1      -9.508   2.604 131.260  0.00  0.00    +0.010 C 
ATOM     20  C   LIG A   1      -8.679   3.936 131.262  0.00  0.00    +0.032 C 
ENDROOT
BRANCH   7  21
ATOM     21  O   LIG A   1      -6.403   0.965 125.981  0.00  0.00    -0.380 OA
ATOM     22  H   LIG A   1      -5.902   1.173 126.794  0.00  0.00    +0.211 HD
ENDBRANCH   7  21
BRANCH   9  23
ATOM     23  O   LIG A   1      -6.557   2.863 122.194  0.00  0.00    -0.389 OA
ATOM     24  H   LIG A   1      -5.980   3.604 121.938  0.00  0.00    +0.210 HD
ENDBRANCH   9  23
BRANCH  10  25
ATOM     25  O   LIG A   1      -6.245   4.969 123.788  0.00  0.00    -0.389 OA
ATOM     26  H   LIG A   1      -6.656   4.740 122.928  0.00  0.00    +0.210 HD
ENDBRANCH  10  25
BRANCH  20  27
ATOM     27  C   LIG A   1      -9.410   5.067 130.467  0.00  0.00    +0.092 C 
ATOM     28  C   LIG A   1      -8.733   6.441 130.575  0.00  0.00    +0.044 C 
BRANCH  27  29
ATOM     29  O   LIG A   1      -9.413   4.704 129.082  0.00  0.00    -0.386 OA
ATOM     30  H   LIG A   1      -8.894   3.878 129.010  0.00  0.00    +0.210 HD
ENDBRANCH  27  29
BRANCH  27  31
ATOM     31  C   LIG A   1     -10.927   5.228 130.918  0.00  0.00    +0.146 C 
BRANCH  31  32
ATOM     32  O   LIG A   1     -11.751   4.434 130.037  0.00  0.00    -0.389 OA
ATOM     33  H   LIG A   1     -12.221   3.774 130.575  0.00  0.00    +0.210 HD
ENDBRANCH  31  32
BRANCH  31  34
ATOM     34  C   LIG A   1     -11.458   6.683 130.952  0.00  0.00    +0.037 C 
BRANCH  34  35
ATOM     35  C   LIG A   1     -12.680   6.892 130.036  0.00  0.00    +0.036 C 
BRANCH  35  36
ATOM     36  C   LIG A   1     -12.366   7.427 128.618  0.00  0.00    +0.061 C 
ATOM     37  C   LIG A   1     -13.676   7.661 127.854  0.00  0.00    +0.041 C 
ATOM     38  C   LIG A   1     -11.547   8.719 128.624  0.00  0.00    +0.041 C 
BRANCH  36  39
ATOM     39  O   LIG A   1     -11.603   6.446 127.910  0.00  0.00    -0.389 OA
ATOM     40  H   LIG A   1     -11.342   5.752 128.540  0.00  0.00    +0.210 HD
ENDBRANCH  36  39
ENDBRANCH  35  36
ENDBRANCH  34  35
ENDBRANCH  31  34
ENDBRANCH  27  31
ENDBRANCH  20  27
BRANCH   3  41
ATOM     41  O   LIG A   1      -6.237   1.261 130.364  0.00  0.00    -0.384 OA
ATOM     42  H   LIG A   1      -6.438   0.397 129.969  0.00  0.00    +0.211 HD
ENDBRANCH   3  41
TORSDOF 12
ENDMDL
MODEL 3
REMARK VINA RESULT:      -7.9      6.639      9.920
REMARK  Name = NuBBE_1228
REMARK  17 active torsions:
REMARK  status: ('A' for Active; 'I' for Inactive)
REMARK    1  A    between atoms: C_1  and  C_2
REMARK    2  A    between atoms: C_3  and  O_39
REMARK    3  A    between atoms: C_7  and  O_8
REMARK    4  A    between atoms: C_10  and  O_12
REMARK    5  A    between atoms: C_13  and  O_15
REMARK    6  A    between atoms: C_17  and  C_18
REMARK    7  A    between atoms: C_25  and  C_27
REMARK    8  A    between atoms: C_27  and  C_28
REMARK    9  A    between atoms: C_27  and  O_37
REMARK   10  A    between atoms: C_27  and  C_38
REMARK   11  A    between atoms: C_28  and  O_30
REMARK   12  A    between atoms: C_28  and  C_31
REMARK   13  A    between atoms: C_31  and  C_32
REMARK   14  A    between atoms: C_32  and  C_33
REMARK   15  A    between atoms: C_33  and  C_34
REMARK   16  A    between atoms: C_33  and  C_35
REMARK   17  A    between atoms: C_33  and  O_36
REMARK                            x       y       z     vdW  Elec       q    Type
REMARK                         _______ _______ _______ _____ _____    ______ ____
ROOT
ATOM      1  C   LIG A   1      -9.610   1.920 132.215  0.00  0.00    +0.014 C 
ATOM      2  C   LIG A   1      -8.649   3.147 131.993  0.00  0.00    +0.006 C 
ATOM      3  C   LIG A   1      -7.683   2.909 130.793  0.00  0.00    +0.093 C 
ATOM      4  C   LIG A   1      -6.465   3.846 130.778  0.00  0.00    -0.031 C 
ATOM      5  C   LIG A   1      -6.075   4.535 129.690  0.00  0.00    +0.051 C 
ATOM      6  C   LIG A   1      -4.764   5.239 129.627  0.00  0.00    +0.188 C 
ATOM      7  C   LIG A   1      -3.744   4.912 130.727  0.00  0.00    +0.136 C 
ATOM      8  C   LIG A   1      -2.521   5.838 130.687  0.00  0.00    +0.077 C 
ATOM      9  C   LIG A   1      -1.512   5.470 131.778  0.00  0.00    +0.146 C 
ATOM     10  C   LIG A   1      -2.133   5.344 133.180  0.00  0.00    +0.144 C 
ATOM     11  C   LIG A   1      -3.437   4.540 133.208  0.00  0.00    +0.044 C 
ATOM     12  C   LIG A   1      -4.463   4.938 132.100  0.00  0.00    +0.013 C 
ATOM     13  C   LIG A   1      -4.986   6.378 132.392  0.00  0.00    +0.015 C 
ATOM     14  C   LIG A   1      -5.654   3.876 132.080  0.00  0.00    +0.027 C 
ATOM     15  C   LIG A   1      -6.585   4.068 133.291  0.00  0.00    +0.009 C 
ATOM     16  C   LIG A   1      -7.845   3.214 133.303  0.00  0.00    +0.011 C 
ATOM     17  O   LIG A   1      -4.500   5.929 128.652  0.00  0.00    -0.290 OA
ATOM     18  C   LIG A   1      -8.647   2.998 129.606  0.00  0.00    +0.040 C 
ATOM     19  C   LIG A   1      -9.550   4.182 129.940  0.00  0.00    +0.010 C 
ATOM     20  C   LIG A   1      -9.605   4.318 131.502  0.00  0.00    +0.032 C 
ENDROOT
BRANCH   7  21
ATOM     21  O   LIG A   1      -3.260   3.579 130.461  0.00  0.00    -0.380 OA
ATOM     22  H   LIG A   1      -3.568   3.338 129.566  0.00  0.00    +0.211 HD
ENDBRANCH   7  21
BRANCH   9  23
ATOM     23  O   LIG A   1      -0.489   6.476 131.838  0.00  0.00    -0.389 OA
ATOM     24  H   LIG A   1       0.152   6.199 132.516  0.00  0.00    +0.210 HD
ENDBRANCH   9  23
BRANCH  10  25
ATOM     25  O   LIG A   1      -2.360   6.651 133.719  0.00  0.00    -0.389 OA
ATOM     26  H   LIG A   1      -2.516   6.498 134.675  0.00  0.00    +0.210 HD
ENDBRANCH  10  25
BRANCH  20  27
ATOM     27  C   LIG A   1      -9.488   5.812 131.951  0.00  0.00    +0.092 C 
ATOM     28  C   LIG A   1      -9.127   5.989 133.433  0.00  0.00    +0.044 C 
BRANCH  27  29
ATOM     29  O   LIG A   1      -8.445   6.424 131.185  0.00  0.00    -0.386 OA
ATOM     30  H   LIG A   1      -8.611   7.388 131.209  0.00  0.00    +0.210 HD
ENDBRANCH  27  29
BRANCH  27  31
ATOM     31  C   LIG A   1     -10.824   6.627 131.668  0.00  0.00    +0.146 C 
BRANCH  31  32
ATOM     32  O   LIG A   1     -11.949   5.753 131.904  0.00  0.00    -0.389 OA
ATOM     33  H   LIG A   1     -12.309   5.954 132.785  0.00  0.00    +0.210 HD
ENDBRANCH  31  32
BRANCH  31  34
ATOM     34  C   LIG A   1     -10.936   7.246 130.252  0.00  0.00    +0.037 C 
BRANCH  34  35
ATOM     35  C   LIG A   1     -12.282   7.959 130.019  0.00  0.00    +0.036 C 
BRANCH  35  36
ATOM     36  C   LIG A   1     -12.531   8.457 128.575  0.00  0.00    +0.061 C 
ATOM     37  C   LIG A   1     -11.226   8.379 127.771  0.00  0.00    +0.041 C 
ATOM     38  C   LIG A   1     -13.623   7.674 127.842  0.00  0.00    +0.041 C 
BRANCH  36  39
ATOM     39  O   LIG A   1     -12.949   9.824 128.621  0.00  0.00    -0.389 OA
ATOM     40  H   LIG A   1     -13.922   9.844 128.604  0.00  0.00    +0.210 HD
ENDBRANCH  36  39
ENDBRANCH  35  36
ENDBRANCH  34  35
ENDBRANCH  31  34
ENDBRANCH  27  31
ENDBRANCH  20  27
BRANCH   3  41
ATOM     41  O   LIG A   1      -7.157   1.581 130.842  0.00  0.00    -0.384 OA
ATOM     42  H   LIG A   1      -6.400   1.545 130.235  0.00  0.00    +0.211 HD
ENDBRANCH   3  41
TORSDOF 12
ENDMDL
MODEL 4
REMARK VINA RESULT:      -7.9      6.267      9.963
REMARK  Name = NuBBE_1228
REMARK  17 active torsions:
REMARK  status: ('A' for Active; 'I' for Inactive)
REMARK    1  A    between atoms: C_1  and  C_2
REMARK    2  A    between atoms: C_3  and  O_39
REMARK    3  A    between atoms: C_7  and  O_8
REMARK    4  A    between atoms: C_10  and  O_12
REMARK    5  A    between atoms: C_13  and  O_15
REMARK    6  A    between atoms: C_17  and  C_18
REMARK    7  A    between atoms: C_25  and  C_27
REMARK    8  A    between atoms: C_27  and  C_28
REMARK    9  A    between atoms: C_27  and  O_37
REMARK   10  A    between atoms: C_27  and  C_38
REMARK   11  A    between atoms: C_28  and  O_30
REMARK   12  A    between atoms: C_28  and  C_31
REMARK   13  A    between atoms: C_31  and  C_32
REMARK   14  A    between atoms: C_32  and  C_33
REMARK   15  A    between atoms: C_33  and  C_34
REMARK   16  A    between atoms: C_33  and  C_35
REMARK   17  A    between atoms: C_33  and  O_36
REMARK                            x       y       z     vdW  Elec       q    Type
REMARK                         _______ _______ _______ _____ _____    ______ ____
ROOT
ATOM      1  C   LIG A   1     -10.538   6.166 132.288  0.00  0.00    +0.014 C 
ATOM      2  C   LIG A   1      -9.124   5.552 131.971  0.00  0.00    +0.006 C 
ATOM      3  C   LIG A   1      -8.354   5.182 133.275  0.00  0.00    +0.093 C 
ATOM      4  C   LIG A   1      -6.844   4.982 133.072  0.00  0.00    -0.031 C 
ATOM      5  C   LIG A   1      -6.170   3.912 133.535  0.00  0.00    +0.051 C 
ATOM      6  C   LIG A   1      -4.682   3.857 133.541  0.00  0.00    +0.188 C 
ATOM      7  C   LIG A   1      -3.935   5.172 133.277  0.00  0.00    +0.136 C 
ATOM      8  C   LIG A   1      -2.424   4.964 133.100  0.00  0.00    +0.077 C 
ATOM      9  C   LIG A   1      -1.705   6.294 132.865  0.00  0.00    +0.146 C 
ATOM     10  C   LIG A   1      -2.334   7.151 131.752  0.00  0.00    +0.144 C 
ATOM     11  C   LIG A   1      -3.861   7.247 131.837  0.00  0.00    +0.044 C 
ATOM     12  C   LIG A   1      -4.582   5.880 132.059  0.00  0.00    +0.013 C 
ATOM     13  C   LIG A   1      -4.401   5.001 130.783  0.00  0.00    +0.015 C 
ATOM     14  C   LIG A   1      -6.124   6.144 132.375  0.00  0.00    +0.027 C 
ATOM     15  C   LIG A   1      -6.883   6.563 131.103  0.00  0.00    +0.009 C 
ATOM     16  C   LIG A   1      -8.393   6.694 131.243  0.00  0.00    +0.011 C 
ATOM     17  O   LIG A   1      -4.121   2.825 133.884  0.00  0.00    -0.290 OA
ATOM     18  C   LIG A   1      -9.157   3.975 133.769  0.00  0.00    +0.040 C 
ATOM     19  C   LIG A   1      -9.432   3.162 132.507  0.00  0.00    +0.010 C 
ATOM     20  C   LIG A   1      -9.441   4.152 131.290  0.00  0.00    +0.032 C 
ENDROOT
BRANCH   7  21
ATOM     21  O   LIG A   1      -4.102   5.988 134.455  0.00  0.00    -0.380 OA
ATOM     22  H   LIG A   1      -4.798   5.568 134.995  0.00  0.00    +0.211 HD
ENDBRANCH   7  21
BRANCH   9  23
ATOM     23  O   LIG A   1      -0.339   6.039 132.505  0.00  0.00    -0.389 OA
ATOM     24  H   LIG A   1       0.083   5.594 133.260  0.00  0.00    +0.210 HD
ENDBRANCH   9  23
BRANCH  10  25
ATOM     25  O   LIG A   1      -1.953   6.627 130.475  0.00  0.00    -0.389 OA
ATOM     26  H   LIG A   1      -1.067   6.235 130.626  0.00  0.00    +0.210 HD
ENDBRANCH  10  25
BRANCH  20  27
ATOM     27  C   LIG A   1      -8.666   3.561 130.065  0.00  0.00    +0.092 C 
ATOM     28  C   LIG A   1      -7.463   2.690 130.452  0.00  0.00    +0.044 C 
BRANCH  27  29
ATOM     29  O   LIG A   1      -9.570   2.732 129.328  0.00  0.00    -0.386 OA
ATOM     30  H   LIG A   1      -9.655   1.897 129.831  0.00  0.00    +0.210 HD
ENDBRANCH  27  29
BRANCH  27  31
ATOM     31  C   LIG A   1      -8.154   4.698 129.078  0.00  0.00    +0.146 C 
BRANCH  31  32
ATOM     32  O   LIG A   1      -9.289   5.213 128.349  0.00  0.00    -0.389 OA
ATOM     33  H   LIG A   1      -9.154   6.166 128.211  0.00  0.00    +0.210 HD
ENDBRANCH  31  32
BRANCH  31  34
ATOM     34  C   LIG A   1      -7.050   4.264 128.082  0.00  0.00    +0.037 C 
BRANCH  34  35
ATOM     35  C   LIG A   1      -7.622   3.614 126.807  0.00  0.00    +0.036 C 
BRANCH  35  36
ATOM     36  C   LIG A   1      -7.442   4.431 125.505  0.00  0.00    +0.061 C 
ATOM     37  C   LIG A   1      -6.007   4.970 125.430  0.00  0.00    +0.041 C 
ATOM     38  C   LIG A   1      -7.748   3.630 124.238  0.00  0.00    +0.041 C 
BRANCH  36  39
ATOM     39  O   LIG A   1      -8.339   5.545 125.528  0.00  0.00    -0.389 OA
ATOM     40  H   LIG A   1      -9.228   5.214 125.744  0.00  0.00    +0.210 HD
ENDBRANCH  36  39
ENDBRANCH  35  36
ENDBRANCH  34  35
ENDBRANCH  31  34
ENDBRANCH  27  31
ENDBRANCH  20  27
BRANCH   3  41
ATOM     41  O   LIG A   1      -8.485   6.229 134.238  0.00  0.00    -0.384 OA
ATOM     42  H   LIG A   1      -8.321   7.070 133.779  0.00  0.00    +0.211 HD
ENDBRANCH   3  41
TORSDOF 12
ENDMDL
MODEL 5
REMARK VINA RESULT:      -7.9      3.671      7.263
REMARK  Name = NuBBE_1228
REMARK  17 active torsions:
REMARK  status: ('A' for Active; 'I' for Inactive)
REMARK    1  A    between atoms: C_1  and  C_2
REMARK    2  A    between atoms: C_3  and  O_39
REMARK    3  A    between atoms: C_7  and  O_8
REMARK    4  A    between atoms: C_10  and  O_12
REMARK    5  A    between atoms: C_13  and  O_15
REMARK    6  A    between atoms: C_17  and  C_18
REMARK    7  A    between atoms: C_25  and  C_27
REMARK    8  A    between atoms: C_27  and  C_28
REMARK    9  A    between atoms: C_27  and  O_37
REMARK   10  A    between atoms: C_27  and  C_38
REMARK   11  A    between atoms: C_28  and  O_30
REMARK   12  A    between atoms: C_28  and  C_31
REMARK   13  A    between atoms: C_31  and  C_32
REMARK   14  A    between atoms: C_32  and  C_33
REMARK   15  A    between atoms: C_33  and  C_34
REMARK   16  A    between atoms: C_33  and  C_35
REMARK   17  A    between atoms: C_33  and  O_36
REMARK                            x       y       z     vdW  Elec       q    Type
REMARK                         _______ _______ _______ _____ _____    ______ ____
ROOT
ATOM      1  C   LIG A   1      -4.253   4.037 127.006  0.00  0.00    +0.014 C 
ATOM      2  C   LIG A   1      -5.554   3.153 126.935  0.00  0.00    +0.006 C 
ATOM      3  C   LIG A   1      -5.248   1.657 127.247  0.00  0.00    +0.093 C 
ATOM      4  C   LIG A   1      -6.350   0.688 126.792  0.00  0.00    -0.031 C 
ATOM      5  C   LIG A   1      -6.870  -0.268 127.586  0.00  0.00    +0.051 C 
ATOM      6  C   LIG A   1      -7.753  -1.343 127.056  0.00  0.00    +0.188 C 
ATOM      7  C   LIG A   1      -7.816  -1.504 125.530  0.00  0.00    +0.136 C 
ATOM      8  C   LIG A   1      -8.904  -2.493 125.089  0.00  0.00    +0.077 C 
ATOM      9  C   LIG A   1      -8.925  -2.651 123.567  0.00  0.00    +0.146 C 
ATOM     10  C   LIG A   1      -8.974  -1.315 122.805  0.00  0.00    +0.144 C 
ATOM     11  C   LIG A   1      -7.988  -0.267 123.334  0.00  0.00    +0.044 C 
ATOM     12  C   LIG A   1      -7.991  -0.104 124.887  0.00  0.00    +0.013 C 
ATOM     13  C   LIG A   1      -9.355   0.510 125.327  0.00  0.00    +0.015 C 
ATOM     14  C   LIG A   1      -6.765   0.820 125.321  0.00  0.00    +0.027 C 
ATOM     15  C   LIG A   1      -7.034   2.294 124.968  0.00  0.00    +0.009 C 
ATOM     16  C   LIG A   1      -6.004   3.297 125.470  0.00  0.00    +0.011 C 
ATOM     17  O   LIG A   1      -8.274  -2.130 127.834  0.00  0.00    -0.290 OA
ATOM     18  C   LIG A   1      -4.947   1.716 128.748  0.00  0.00    +0.040 C 
ATOM     19  C   LIG A   1      -6.009   2.656 129.310  0.00  0.00    +0.010 C 
ATOM     20  C   LIG A   1      -6.435   3.640 128.164  0.00  0.00    +0.032 C 
ENDROOT
BRANCH   7  21
ATOM     21  O   LIG A   1      -6.555  -2.070 125.120  0.00  0.00    -0.380 OA
ATOM     22  H   LIG A   1      -5.896  -1.816 125.794  0.00  0.00    +0.211 HD
ENDBRANCH   7  21
BRANCH   9  23
ATOM     23  O   LIG A   1     -10.076  -3.418 123.184  0.00  0.00    -0.389 OA
ATOM     24  H   LIG A   1     -10.253  -3.229 122.245  0.00  0.00    +0.210 HD
ENDBRANCH   9  23
BRANCH  10  25
ATOM     25  O   LIG A   1     -10.306  -0.790 122.849  0.00  0.00    -0.389 OA
ATOM     26  H   LIG A   1     -10.184   0.177 122.957  0.00  0.00    +0.210 HD
ENDBRANCH  10  25
BRANCH  20  27
ATOM     27  C   LIG A   1      -7.987   3.838 128.126  0.00  0.00    +0.092 C 
ATOM     28  C   LIG A   1      -8.451   4.919 127.141  0.00  0.00    +0.044 C 
BRANCH  27  29
ATOM     29  O   LIG A   1      -8.580   2.603 127.711  0.00  0.00    -0.386 OA
ATOM     30  H   LIG A   1      -7.949   1.896 127.955  0.00  0.00    +0.210 HD
ENDBRANCH  27  29
BRANCH  27  31
ATOM     31  C   LIG A   1      -8.579   4.189 129.560  0.00  0.00    +0.146 C 
BRANCH  31  32
ATOM     32  O   LIG A   1      -9.816   3.466 129.731  0.00  0.00    -0.389 OA
ATOM     33  H   LIG A   1      -9.669   2.765 130.389  0.00  0.00    +0.210 HD
ENDBRANCH  31  32
BRANCH  31  34
ATOM     34  C   LIG A   1      -8.817   5.696 129.827  0.00  0.00    +0.037 C 
BRANCH  34  35
ATOM     35  C   LIG A   1     -10.029   5.953 130.744  0.00  0.00    +0.036 C 
BRANCH  35  36
ATOM     36  C   LIG A   1     -11.254   6.609 130.061  0.00  0.00    +0.061 C 
ATOM     37  C   LIG A   1     -12.272   7.034 131.128  0.00  0.00    +0.041 C 
ATOM     38  C   LIG A   1     -10.892   7.818 129.198  0.00  0.00    +0.041 C 
BRANCH  36  39
ATOM     39  O   LIG A   1     -11.877   5.648 129.204  0.00  0.00    -0.389 OA
ATOM     40  H   LIG A   1     -12.313   4.981 129.763  0.00  0.00    +0.210 HD
ENDBRANCH  36  39
ENDBRANCH  35  36
ENDBRANCH  34  35
ENDBRANCH  31  34
ENDBRANCH  27  31
ENDBRANCH  20  27
BRANCH   3  41
ATOM     41  O   LIG A   1      -4.060   1.246 126.569  0.00  0.00    -0.384 OA
ATOM     42  H   LIG A   1      -3.527   0.731 127.197  0.00  0.00    +0.211 HD
ENDBRANCH   3  41
TORSDOF 12
ENDMDL
MODEL 6
REMARK VINA RESULT:      -7.7      3.757      6.859
REMARK  Name = NuBBE_1228
REMARK  17 active torsions:
REMARK  status: ('A' for Active; 'I' for Inactive)
REMARK    1  A    between atoms: C_1  and  C_2
REMARK    2  A    between atoms: C_3  and  O_39
REMARK    3  A    between atoms: C_7  and  O_8
REMARK    4  A    between atoms: C_10  and  O_12
REMARK    5  A    between atoms: C_13  and  O_15
REMARK    6  A    between atoms: C_17  and  C_18
REMARK    7  A    between atoms: C_25  and  C_27
REMARK    8  A    between atoms: C_27  and  C_28
REMARK    9  A    between atoms: C_27  and  O_37
REMARK   10  A    between atoms: C_27  and  C_38
REMARK   11  A    between atoms: C_28  and  O_30
REMARK   12  A    between atoms: C_28  and  C_31
REMARK   13  A    between atoms: C_31  and  C_32
REMARK   14  A    between atoms: C_32  and  C_33
REMARK   15  A    between atoms: C_33  and  C_34
REMARK   16  A    between atoms: C_33  and  C_35
REMARK   17  A    between atoms: C_33  and  O_36
REMARK                            x       y       z     vdW  Elec       q    Type
REMARK                         _______ _______ _______ _____ _____    ______ ____
ROOT
ATOM      1  C   LIG A   1      -2.910   3.189 126.488  0.00  0.00    +0.014 C 
ATOM      2  C   LIG A   1      -4.324   2.922 127.128  0.00  0.00    +0.006 C 
ATOM      3  C   LIG A   1      -5.090   4.252 127.399  0.00  0.00    +0.093 C 
ATOM      4  C   LIG A   1      -6.259   4.107 128.385  0.00  0.00    -0.031 C 
ATOM      5  C   LIG A   1      -7.494   4.587 128.144  0.00  0.00    +0.051 C 
ATOM      6  C   LIG A   1      -8.538   4.652 129.204  0.00  0.00    +0.188 C 
ATOM      7  C   LIG A   1      -8.077   4.430 130.652  0.00  0.00    +0.136 C 
ATOM      8  C   LIG A   1      -9.253   4.311 131.631  0.00  0.00    +0.077 C 
ATOM      9  C   LIG A   1      -8.760   4.117 133.068  0.00  0.00    +0.146 C 
ATOM     10  C   LIG A   1      -7.726   2.988 133.221  0.00  0.00    +0.144 C 
ATOM     11  C   LIG A   1      -6.623   3.013 132.157  0.00  0.00    +0.044 C 
ATOM     12  C   LIG A   1      -7.142   3.193 130.695  0.00  0.00    +0.013 C 
ATOM     13  C   LIG A   1      -7.939   1.918 130.281  0.00  0.00    +0.015 C 
ATOM     14  C   LIG A   1      -5.902   3.451 129.725  0.00  0.00    +0.027 C 
ATOM     15  C   LIG A   1      -5.106   2.153 129.493  0.00  0.00    +0.009 C 
ATOM     16  C   LIG A   1      -3.988   2.234 128.463  0.00  0.00    +0.011 C 
ATOM     17  O   LIG A   1      -9.671   5.007 128.910  0.00  0.00    -0.290 OA
ATOM     18  C   LIG A   1      -5.429   4.703 125.975  0.00  0.00    +0.040 C 
ATOM     19  C   LIG A   1      -5.869   3.424 125.269  0.00  0.00    +0.010 C 
ATOM     20  C   LIG A   1      -5.157   2.216 125.974  0.00  0.00    +0.032 C 
ENDROOT
BRANCH   7  21
ATOM     21  O   LIG A   1      -7.338   5.607 131.037  0.00  0.00    -0.380 OA
ATOM     22  H   LIG A   1      -7.298   5.612 132.013  0.00  0.00    +0.211 HD
ENDBRANCH   7  21
BRANCH   9  23
ATOM     23  O   LIG A   1      -9.877   3.809 133.916  0.00  0.00    -0.389 OA
ATOM     24  H   LIG A   1     -10.526   4.527 133.814  0.00  0.00    +0.210 HD
ENDBRANCH   9  23
BRANCH  10  25
ATOM     25  O   LIG A   1      -8.395   1.722 133.194  0.00  0.00    -0.389 OA
ATOM     26  H   LIG A   1      -7.724   1.085 133.517  0.00  0.00    +0.210 HD
ENDBRANCH  10  25
BRANCH  20  27
ATOM     27  C   LIG A   1      -6.140   1.018 126.190  0.00  0.00    +0.092 C 
ATOM     28  C   LIG A   1      -5.483  -0.220 126.816  0.00  0.00    +0.044 C 
BRANCH  27  29
ATOM     29  O   LIG A   1      -7.172   1.448 127.084  0.00  0.00    -0.386 OA
ATOM     30  H   LIG A   1      -7.983   1.547 126.545  0.00  0.00    +0.210 HD
ENDBRANCH  27  29
BRANCH  27  31
ATOM     31  C   LIG A   1      -6.842   0.571 124.835  0.00  0.00    +0.146 C 
BRANCH  31  32
ATOM     32  O   LIG A   1      -8.259   0.826 124.950  0.00  0.00    -0.389 OA
ATOM     33  H   LIG A   1      -8.714   0.334 124.246  0.00  0.00    +0.210 HD
ENDBRANCH  31  32
BRANCH  31  34
ATOM     34  C   LIG A   1      -6.613  -0.905 124.425  0.00  0.00    +0.037 C 
BRANCH  34  35
ATOM     35  C   LIG A   1      -7.767  -1.472 123.575  0.00  0.00    +0.036 C 
BRANCH  35  36
ATOM     36  C   LIG A   1      -8.655  -2.528 124.277  0.00  0.00    +0.061 C 
ATOM     37  C   LIG A   1      -9.581  -3.189 123.248  0.00  0.00    +0.041 C 
ATOM     38  C   LIG A   1      -7.853  -3.609 125.003  0.00  0.00    +0.041 C 
BRANCH  36  39
ATOM     39  O   LIG A   1      -9.467  -1.874 125.257  0.00  0.00    -0.389 OA
ATOM     40  H   LIG A   1     -10.137  -2.508 125.567  0.00  0.00    +0.210 HD
ENDBRANCH  36  39
ENDBRANCH  35  36
ENDBRANCH  34  35
ENDBRANCH  31  34
ENDBRANCH  27  31
ENDBRANCH  20  27
BRANCH   3  41
ATOM     41  O   LIG A   1      -4.208   5.219 127.975  0.00  0.00    -0.384 OA
ATOM     42  H   LIG A   1      -4.683   6.065 128.006  0.00  0.00    +0.211 HD
ENDBRANCH   3  41
TORSDOF 12
ENDMDL
MODEL 7
REMARK VINA RESULT:      -7.6      3.674      5.384
REMARK  Name = NuBBE_1228
REMARK  17 active torsions:
REMARK  status: ('A' for Active; 'I' for Inactive)
REMARK    1  A    between atoms: C_1  and  C_2
REMARK    2  A    between atoms: C_3  and  O_39
REMARK    3  A    between atoms: C_7  and  O_8
REMARK    4  A    between atoms: C_10  and  O_12
REMARK    5  A    between atoms: C_13  and  O_15
REMARK    6  A    between atoms: C_17  and  C_18
REMARK    7  A    between atoms: C_25  and  C_27
REMARK    8  A    between atoms: C_27  and  C_28
REMARK    9  A    between atoms: C_27  and  O_37
REMARK   10  A    between atoms: C_27  and  C_38
REMARK   11  A    between atoms: C_28  and  O_30
REMARK   12  A    between atoms: C_28  and  C_31
REMARK   13  A    between atoms: C_31  and  C_32
REMARK   14  A    between atoms: C_32  and  C_33
REMARK   15  A    between atoms: C_33  and  C_34
REMARK   16  A    between atoms: C_33  and  C_35
REMARK   17  A    between atoms: C_33  and  O_36
REMARK                            x       y       z     vdW  Elec       q    Type
REMARK                         _______ _______ _______ _____ _____    ______ ____
ROOT
ATOM      1  C   LIG A   1      -4.540  -1.381 130.141  0.00  0.00    +0.014 C 
ATOM      2  C   LIG A   1      -5.619  -0.475 129.440  0.00  0.00    +0.006 C 
ATOM      3  C   LIG A   1      -6.319  -1.223 128.265  0.00  0.00    +0.093 C 
ATOM      4  C   LIG A   1      -7.056  -0.295 127.287  0.00  0.00    -0.031 C 
ATOM      5  C   LIG A   1      -8.323  -0.503 126.881  0.00  0.00    +0.051 C 
ATOM      6  C   LIG A   1      -8.930   0.262 125.757  0.00  0.00    +0.188 C 
ATOM      7  C   LIG A   1      -7.976   1.088 124.882  0.00  0.00    +0.136 C 
ATOM      8  C   LIG A   1      -8.723   1.993 123.892  0.00  0.00    +0.077 C 
ATOM      9  C   LIG A   1      -7.747   2.783 123.017  0.00  0.00    +0.146 C 
ATOM     10  C   LIG A   1      -6.659   3.523 123.815  0.00  0.00    +0.144 C 
ATOM     11  C   LIG A   1      -6.005   2.669 124.906  0.00  0.00    +0.044 C 
ATOM     12  C   LIG A   1      -7.014   1.883 125.801  0.00  0.00    +0.013 C 
ATOM     13  C   LIG A   1      -7.828   2.902 126.657  0.00  0.00    +0.015 C 
ATOM     14  C   LIG A   1      -6.212   0.854 126.720  0.00  0.00    +0.027 C 
ATOM     15  C   LIG A   1      -5.473   1.589 127.853  0.00  0.00    +0.009 C 
ATOM     16  C   LIG A   1      -4.795   0.702 128.889  0.00  0.00    +0.011 C 
ATOM     17  O   LIG A   1     -10.113   0.101 125.491  0.00  0.00    -0.290 OA
ATOM     18  C   LIG A   1      -7.164  -2.252 129.021  0.00  0.00    +0.040 C 
ATOM     19  C   LIG A   1      -7.747  -1.473 130.196  0.00  0.00    +0.010 C 
ATOM     20  C   LIG A   1      -6.762  -0.299 130.530  0.00  0.00    +0.032 C 
ENDROOT
BRANCH   7  21
ATOM     21  O   LIG A   1      -7.221   0.148 124.089  0.00  0.00    -0.380 OA
ATOM     22  H   LIG A   1      -6.419   0.614 123.783  0.00  0.00    +0.211 HD
ENDBRANCH   7  21
BRANCH   9  23
ATOM     23  O   LIG A   1      -8.473   3.758 122.254  0.00  0.00    -0.389 OA
ATOM     24  H   LIG A   1      -8.234   3.632 121.319  0.00  0.00    +0.210 HD
ENDBRANCH   9  23
BRANCH  10  25
ATOM     25  O   LIG A   1      -7.218   4.706 124.398  0.00  0.00    -0.389 OA
ATOM     26  H   LIG A   1      -7.728   5.119 123.670  0.00  0.00    +0.210 HD
ENDBRANCH  10  25
BRANCH  20  27
ATOM     27  C   LIG A   1      -7.533   1.035 130.806  0.00  0.00    +0.092 C 
ATOM     28  C   LIG A   1      -6.637   2.282 130.806  0.00  0.00    +0.044 C 
BRANCH  27  29
ATOM     29  O   LIG A   1      -8.501   1.209 129.767  0.00  0.00    -0.386 OA
ATOM     30  H   LIG A   1      -9.250   1.698 130.164  0.00  0.00    +0.210 HD
ENDBRANCH  27  29
BRANCH  27  31
ATOM     31  C   LIG A   1      -8.321   0.994 132.186  0.00  0.00    +0.146 C 
BRANCH  31  32
ATOM     32  O   LIG A   1      -9.728   0.842 131.903  0.00  0.00    -0.389 OA
ATOM     33  H   LIG A   1      -9.943  -0.106 131.931  0.00  0.00    +0.210 HD
ENDBRANCH  31  32
BRANCH  31  34
ATOM     34  C   LIG A   1      -8.107   2.220 133.109  0.00  0.00    +0.037 C 
BRANCH  34  35
ATOM     35  C   LIG A   1      -9.379   3.076 133.265  0.00  0.00    +0.036 C 
BRANCH  35  36
ATOM     36  C   LIG A   1      -9.356   4.440 132.535  0.00  0.00    +0.061 C 
ATOM     37  C   LIG A   1      -7.995   5.116 132.748  0.00  0.00    +0.041 C 
ATOM     38  C   LIG A   1      -9.637   4.332 131.035  0.00  0.00    +0.041 C 
BRANCH  36  39
ATOM     39  O   LIG A   1     -10.368   5.283 133.095  0.00  0.00    -0.389 OA
ATOM     40  H   LIG A   1     -11.235   4.887 132.900  0.00  0.00    +0.210 HD
ENDBRANCH  36  39
ENDBRANCH  35  36
ENDBRANCH  34  35
ENDBRANCH  31  34
ENDBRANCH  27  31
ENDBRANCH  20  27
BRANCH   3  41
ATOM     41  O   LIG A   1      -5.351  -1.926 127.484  0.00  0.00    -0.384 OA
ATOM     42  H   LIG A   1      -5.444  -2.872 127.685  0.00  0.00    +0.211 HD
ENDBRANCH   3  41
TORSDOF 12
ENDMDL
MODEL 8
REMARK VINA RESULT:      -7.5      3.432      7.086
REMARK  Name = NuBBE_1228
REMARK  17 active torsions:
REMARK  status: ('A' for Active; 'I' for Inactive)
REMARK    1  A    between atoms: C_1  and  C_2
REMARK    2  A    between atoms: C_3  and  O_39
REMARK    3  A    between atoms: C_7  and  O_8
REMARK    4  A    between atoms: C_10  and  O_12
REMARK    5  A    between atoms: C_13  and  O_15
REMARK    6  A    between atoms: C_17  and  C_18
REMARK    7  A    between atoms: C_25  and  C_27
REMARK    8  A    between atoms: C_27  and  C_28
REMARK    9  A    between atoms: C_27  and  O_37
REMARK   10  A    between atoms: C_27  and  C_38
REMARK   11  A    between atoms: C_28  and  O_30
REMARK   12  A    between atoms: C_28  and  C_31
REMARK   13  A    between atoms: C_31  and  C_32
REMARK   14  A    between atoms: C_32  and  C_33
REMARK   15  A    between atoms: C_33  and  C_34
REMARK   16  A    between atoms: C_33  and  C_35
REMARK   17  A    between atoms: C_33  and  O_36
REMARK                            x       y       z     vdW  Elec       q    Type
REMARK                         _______ _______ _______ _____ _____    ______ ____
ROOT
ATOM      1  C   LIG A   1      -5.922  -4.671 130.362  0.00  0.00    +0.014 C 
ATOM      2  C   LIG A   1      -6.188  -3.138 130.119  0.00  0.00    +0.006 C 
ATOM      3  C   LIG A   1      -5.474  -2.256 131.187  0.00  0.00    +0.093 C 
ATOM      4  C   LIG A   1      -6.016  -0.821 131.273  0.00  0.00    -0.031 C 
ATOM      5  C   LIG A   1      -5.226   0.270 131.266  0.00  0.00    +0.051 C 
ATOM      6  C   LIG A   1      -5.748   1.626 131.593  0.00  0.00    +0.188 C 
ATOM      7  C   LIG A   1      -7.145   1.701 132.226  0.00  0.00    +0.136 C 
ATOM      8  C   LIG A   1      -7.665   3.141 132.330  0.00  0.00    +0.077 C 
ATOM      9  C   LIG A   1      -9.047   3.185 132.988  0.00  0.00    +0.146 C 
ATOM     10  C   LIG A   1     -10.063   2.216 132.361  0.00  0.00    +0.144 C 
ATOM     11  C   LIG A   1      -9.506   0.809 132.119  0.00  0.00    +0.044 C 
ATOM     12  C   LIG A   1      -8.105   0.779 131.431  0.00  0.00    +0.013 C 
ATOM     13  C   LIG A   1      -8.249   1.306 129.971  0.00  0.00    +0.015 C 
ATOM     14  C   LIG A   1      -7.534  -0.710 131.464  0.00  0.00    +0.027 C 
ATOM     15  C   LIG A   1      -8.270  -1.604 130.450  0.00  0.00    +0.009 C 
ATOM     16  C   LIG A   1      -7.714  -3.011 130.276  0.00  0.00    +0.011 C 
ATOM     17  O   LIG A   1      -5.011   2.596 131.480  0.00  0.00    -0.290 OA
ATOM     18  C   LIG A   1      -4.005  -2.424 130.786  0.00  0.00    +0.040 C 
ATOM     19  C   LIG A   1      -4.017  -2.335 129.262  0.00  0.00    +0.010 C 
ATOM     20  C   LIG A   1      -5.426  -2.811 128.764  0.00  0.00    +0.032 C 
ENDROOT
BRANCH   7  21
ATOM     21  O   LIG A   1      -7.015   1.213 133.578  0.00  0.00    -0.380 OA
ATOM     22  H   LIG A   1      -7.810   1.505 134.064  0.00  0.00    +0.211 HD
ENDBRANCH   7  21
BRANCH   9  23
ATOM     23  O   LIG A   1      -9.582   4.513 132.882  0.00  0.00    -0.389 OA
ATOM     24  H   LIG A   1     -10.134   4.668 133.669  0.00  0.00    +0.210 HD
ENDBRANCH   9  23
BRANCH  10  25
ATOM     25  O   LIG A   1     -10.545   2.762 131.128  0.00  0.00    -0.389 OA
ATOM     26  H   LIG A   1      -9.960   3.530 130.956  0.00  0.00    +0.210 HD
ENDBRANCH  10  25
BRANCH  20  27
ATOM     27  C   LIG A   1      -5.978  -1.881 127.633  0.00  0.00    +0.092 C 
ATOM     28  C   LIG A   1      -5.626  -0.399 127.820  0.00  0.00    +0.044 C 
BRANCH  27  29
ATOM     29  O   LIG A   1      -5.399  -2.301 126.393  0.00  0.00    -0.386 OA
ATOM     30  H   LIG A   1      -5.849  -3.133 126.144  0.00  0.00    +0.210 HD
ENDBRANCH  27  29
BRANCH  27  31
ATOM     31  C   LIG A   1      -7.557  -1.998 127.482  0.00  0.00    +0.146 C 
BRANCH  31  32
ATOM     32  O   LIG A   1      -7.865  -3.280 126.894  0.00  0.00    -0.389 OA
ATOM     33  H   LIG A   1      -8.785  -3.257 126.581  0.00  0.00    +0.210 HD
ENDBRANCH  31  32
BRANCH  31  34
ATOM     34  C   LIG A   1      -8.229  -0.873 126.656  0.00  0.00    +0.037 C 
BRANCH  34  35
ATOM     35  C   LIG A   1      -8.920  -1.402 125.384  0.00  0.00    +0.036 C 
BRANCH  35  36
ATOM     36  C   LIG A   1      -8.059  -1.377 124.098  0.00  0.00    +0.061 C 
ATOM     37  C   LIG A   1      -8.973  -1.339 122.866  0.00  0.00    +0.041 C 
ATOM     38  C   LIG A   1      -7.087  -0.197 124.042  0.00  0.00    +0.041 C 
BRANCH  36  39
ATOM     39  O   LIG A   1      -7.277  -2.573 124.039  0.00  0.00    -0.389 OA
ATOM     40  H   LIG A   1      -7.884  -3.333 124.056  0.00  0.00    +0.210 HD
ENDBRANCH  36  39
ENDBRANCH  35  36
ENDBRANCH  34  35
ENDBRANCH  31  34
ENDBRANCH  27  31
ENDBRANCH  20  27
BRANCH   3  41
ATOM     41  O   LIG A   1      -5.649  -2.820 132.488  0.00  0.00    -0.384 OA
ATOM     42  H   LIG A   1      -5.444  -2.127 133.137  0.00  0.00    +0.211 HD
ENDBRANCH   3  41
TORSDOF 12
ENDMDL
MODEL 9
REMARK VINA RESULT:      -7.5      4.554      7.118
REMARK  Name = NuBBE_1228
REMARK  17 active torsions:
REMARK  status: ('A' for Active; 'I' for Inactive)
REMARK    1  A    between atoms: C_1  and  C_2
REMARK    2  A    between atoms: C_3  and  O_39
REMARK    3  A    between atoms: C_7  and  O_8
REMARK    4  A    between atoms: C_10  and  O_12
REMARK    5  A    between atoms: C_13  and  O_15
REMARK    6  A    between atoms: C_17  and  C_18
REMARK    7  A    between atoms: C_25  and  C_27
REMARK    8  A    between atoms: C_27  and  C_28
REMARK    9  A    between atoms: C_27  and  O_37
REMARK   10  A    between atoms: C_27  and  C_38
REMARK   11  A    between atoms: C_28  and  O_30
REMARK   12  A    between atoms: C_28  and  C_31
REMARK   13  A    between atoms: C_31  and  C_32
REMARK   14  A    between atoms: C_32  and  C_33
REMARK   15  A    between atoms: C_33  and  C_34
REMARK   16  A    between atoms: C_33  and  C_35
REMARK   17  A    between atoms: C_33  and  O_36
REMARK                            x       y       z     vdW  Elec       q    Type
REMARK                         _______ _______ _______ _____ _____    ______ ____
ROOT
ATOM      1  C   LIG A   1      -5.881   1.505 132.643  0.00  0.00    +0.014 C 
ATOM      2  C   LIG A   1      -6.621   1.931 131.320  0.00  0.00    +0.006 C 
ATOM      3  C   LIG A   1      -6.383   0.902 130.174  0.00  0.00    +0.093 C 
ATOM      4  C   LIG A   1      -6.706   1.445 128.773  0.00  0.00    -0.031 C 
ATOM      5  C   LIG A   1      -7.470   0.786 127.882  0.00  0.00    +0.051 C 
ATOM      6  C   LIG A   1      -7.568   1.210 126.457  0.00  0.00    +0.188 C 
ATOM      7  C   LIG A   1      -6.544   2.243 125.966  0.00  0.00    +0.136 C 
ATOM      8  C   LIG A   1      -6.862   2.759 124.556  0.00  0.00    +0.077 C 
ATOM      9  C   LIG A   1      -5.811   3.767 124.084  0.00  0.00    +0.146 C 
ATOM     10  C   LIG A   1      -5.534   4.893 125.095  0.00  0.00    +0.144 C 
ATOM     11  C   LIG A   1      -5.356   4.399 126.535  0.00  0.00    +0.044 C 
ATOM     12  C   LIG A   1      -6.447   3.386 127.008  0.00  0.00    +0.013 C 
ATOM     13  C   LIG A   1      -7.816   4.127 127.105  0.00  0.00    +0.015 C 
ATOM     14  C   LIG A   1      -6.015   2.767 128.414  0.00  0.00    +0.027 C 
ATOM     15  C   LIG A   1      -6.195   3.794 129.547  0.00  0.00    +0.009 C 
ATOM     16  C   LIG A   1      -5.962   3.274 130.958  0.00  0.00    +0.011 C 
ATOM     17  O   LIG A   1      -8.349   0.634 125.712  0.00  0.00    -0.290 OA
ATOM     18  C   LIG A   1      -7.204  -0.294 130.665  0.00  0.00    +0.040 C 
ATOM     19  C   LIG A   1      -8.493   0.326 131.199  0.00  0.00    +0.010 C 
ATOM     20  C   LIG A   1      -8.166   1.788 131.664  0.00  0.00    +0.032 C 
ENDROOT
BRANCH   7  21
ATOM     21  O   LIG A   1      -5.276   1.561 125.877  0.00  0.00    -0.380 OA
ATOM     22  H   LIG A   1      -4.605   2.234 125.653  0.00  0.00    +0.211 HD
ENDBRANCH   7  21
BRANCH   9  23
ATOM     23  O   LIG A   1      -6.249   4.374 122.859  0.00  0.00    -0.389 OA
ATOM     24  H   LIG A   1      -6.440   3.655 122.231  0.00  0.00    +0.210 HD
ENDBRANCH   9  23
BRANCH  10  25
ATOM     25  O   LIG A   1      -6.594   5.854 125.041  0.00  0.00    -0.389 OA
ATOM     26  H   LIG A   1      -6.349   6.446 124.300  0.00  0.00    +0.210 HD
ENDBRANCH  10  25
BRANCH  20  27
ATOM     27  C   LIG A   1      -9.276   2.794 131.212  0.00  0.00    +0.092 C 
ATOM     28  C   LIG A   1      -9.513   2.819 129.696  0.00  0.00    +0.044 C 
BRANCH  27  29
ATOM     29  O   LIG A   1     -10.507   2.401 131.828  0.00  0.00    -0.386 OA
ATOM     30  H   LIG A   1     -11.218   2.884 131.361  0.00  0.00    +0.210 HD
ENDBRANCH  27  29
BRANCH  27  31
ATOM     31  C   LIG A   1      -8.963   4.280 131.687  0.00  0.00    +0.146 C 
BRANCH  31  32
ATOM     32  O   LIG A   1      -9.767   4.565 132.851  0.00  0.00    -0.389 OA
ATOM     33  H   LIG A   1      -9.487   3.969 133.567  0.00  0.00    +0.210 HD
ENDBRANCH  31  32
BRANCH  31  34
ATOM     34  C   LIG A   1      -9.189   5.378 130.618  0.00  0.00    +0.037 C 
BRANCH  34  35
ATOM     35  C   LIG A   1     -10.006   6.570 131.154  0.00  0.00    +0.036 C 
BRANCH  35  36
ATOM     36  C   LIG A   1     -11.521   6.533 130.841  0.00  0.00    +0.061 C 
ATOM     37  C   LIG A   1     -11.987   7.922 130.383  0.00  0.00    +0.041 C 
ATOM     38  C   LIG A   1     -11.896   5.499 129.778  0.00  0.00    +0.041 C 
BRANCH  36  39
ATOM     39  O   LIG A   1     -12.234   6.192 132.033  0.00  0.00    -0.389 OA
ATOM     40  H   LIG A   1     -11.590   6.116 132.759  0.00  0.00    +0.210 HD
ENDBRANCH  36  39
ENDBRANCH  35  36
ENDBRANCH  34  35
ENDBRANCH  31  34
ENDBRANCH  27  31
ENDBRANCH  20  27
BRANCH   3  41
ATOM     41  O   LIG A   1      -5.008   0.515 130.138  0.00  0.00    -0.384 OA
ATOM     42  H   LIG A   1      -4.971  -0.404 129.826  0.00  0.00    +0.211 HD
ENDBRANCH   3  41
TORSDOF 12
ENDMDL
