MODEL 1
REMARK VINA RESULT:      -8.3      0.000      0.000
REMARK  Name = NuBBE_2324
REMARK  8 active torsions:
REMARK  status: ('A' for Active; 'I' for Inactive)
REMARK    1  A    between atoms: C_1  and  C_29
REMARK    2  A    between atoms: C_3  and  C_20
REMARK    3  A    between atoms: C_5  and  O_18
REMARK    4  A    between atoms: C_6  and  O_17
REMARK    5  A    between atoms: C_7  and  C_14
REMARK    6  A    between atoms: C_11  and  O_13
REMARK    7  A    between atoms: C_14  and  C_15
REMARK    8  A    between atoms: O_18  and  C_19
REMARK                            x       y       z     vdW  Elec       q    Type
REMARK                         _______ _______ _______ _____ _____    ______ ____
ROOT
ATOM      1  C   LIG A   1      -7.372  -2.938 125.060  0.00  0.00    +0.006 C 
ATOM      2  C   LIG A   1      -7.821  -2.014 126.245  0.00  0.00    +0.060 C 
ATOM      3  C   LIG A   1      -7.649  -0.554 125.665  0.00  0.00    +0.135 C 
ATOM      4  C   LIG A   1      -6.377  -0.687 124.805  0.00  0.00    +0.157 C 
ATOM      5  C   LIG A   1      -6.680  -1.986 124.010  0.00  0.00    +0.013 C 
ATOM      6  C   LIG A   1      -7.634  -1.568 122.873  0.00  0.00    +0.087 C 
ATOM      7  C   LIG A   1      -8.901  -0.944 123.408  0.00  0.00    +0.165 C 
ATOM      8  O   LIG A   1      -9.946  -0.976 122.761  0.00  0.00    -0.294 OA
ATOM      9  C   LIG A   1      -8.830  -0.156 124.711  0.00  0.00    +0.215 C 
ATOM     10  C   LIG A   1      -8.524  -3.819 124.559  0.00  0.00    +0.009 C 
ENDROOT
BRANCH   2  11
ATOM     11  C   LIG A   1      -7.070  -2.339 127.554  0.00  0.00    -0.037 A 
ATOM     12  C   LIG A   1      -7.791  -2.455 128.768  0.00  0.00    +0.008 A 
ATOM     13  C   LIG A   1      -7.146  -2.746 129.984  0.00  0.00    +0.050 A 
ATOM     14  C   LIG A   1      -5.779  -2.918 129.971  0.00  0.00    +0.166 A 
ATOM     15  C   LIG A   1      -5.067  -2.826 128.805  0.00  0.00    +0.167 A 
ATOM     16  C   LIG A   1      -5.676  -2.543 127.602  0.00  0.00    +0.053 A 
ATOM     17  O   LIG A   1      -3.734  -3.032 128.981  0.00  0.00    -0.453 OA
ATOM     18  C   LIG A   1      -3.681  -3.203 130.410  0.00  0.00    +0.466 C 
ATOM     19  O   LIG A   1      -4.981  -3.180 131.040  0.00  0.00    -0.453 OA
ENDBRANCH   2  11
BRANCH   9  20
ATOM     20  O   LIG A   1     -10.090  -0.229 125.380  0.00  0.00    -0.381 OA
ATOM     21  H   LIG A   1     -10.489  -1.081 125.108  0.00  0.00    +0.210 HD
ENDBRANCH   9  20
BRANCH   4  22
ATOM     22  O   LIG A   1      -5.199  -0.767 125.592  0.00  0.00    -0.388 OA
ATOM     23  H   LIG A   1      -4.685   0.051 125.420  0.00  0.00    +0.210 HD
ENDBRANCH   4  22
BRANCH   3  24
ATOM     24  O   LIG A   1      -7.469   0.401 126.730  0.00  0.00    -0.370 OA
ATOM     25  C   LIG A   1      -7.444   1.776 126.361  0.00  0.00    +0.195 C 
ENDBRANCH   3  24
BRANCH   5  26
ATOM     26  C   LIG A   1      -5.382  -2.605 123.434  0.00  0.00    +0.037 C 
BRANCH  26  27
ATOM     27  C   LIG A   1      -5.032  -3.953 124.004  0.00  0.00    -0.034 C 
ATOM     28  C   LIG A   1      -4.070  -4.747 123.516  0.00  0.00    +0.004 C 
ENDBRANCH  26  27
ENDBRANCH   5  26
TORSDOF 6
ENDMDL
MODEL 2
REMARK VINA RESULT:      -8.2      0.629      1.389
REMARK  Name = NuBBE_2324
REMARK  8 active torsions:
REMARK  status: ('A' for Active; 'I' for Inactive)
REMARK    1  A    between atoms: C_1  and  C_29
REMARK    2  A    between atoms: C_3  and  C_20
REMARK    3  A    between atoms: C_5  and  O_18
REMARK    4  A    between atoms: C_6  and  O_17
REMARK    5  A    between atoms: C_7  and  C_14
REMARK    6  A    between atoms: C_11  and  O_13
REMARK    7  A    between atoms: C_14  and  C_15
REMARK    8  A    between atoms: O_18  and  C_19
REMARK                            x       y       z     vdW  Elec       q    Type
REMARK                         _______ _______ _______ _____ _____    ______ ____
ROOT
ATOM      1  C   LIG A   1      -7.321  -2.924 125.079  0.00  0.00    +0.006 C 
ATOM      2  C   LIG A   1      -7.770  -1.993 126.258  0.00  0.00    +0.060 C 
ATOM      3  C   LIG A   1      -7.631  -0.538 125.657  0.00  0.00    +0.135 C 
ATOM      4  C   LIG A   1      -6.369  -0.661 124.781  0.00  0.00    +0.157 C 
ATOM      5  C   LIG A   1      -6.661  -1.975 124.008  0.00  0.00    +0.013 C 
ATOM      6  C   LIG A   1      -7.638  -1.589 122.878  0.00  0.00    +0.087 C 
ATOM      7  C   LIG A   1      -8.908  -0.979 123.423  0.00  0.00    +0.165 C 
ATOM      8  O   LIG A   1      -9.961  -1.037 122.792  0.00  0.00    -0.294 OA
ATOM      9  C   LIG A   1      -8.832  -0.172 124.715  0.00  0.00    +0.215 C 
ATOM     10  C   LIG A   1      -8.465  -3.832 124.607  0.00  0.00    +0.009 C 
ENDROOT
BRANCH   2  11
ATOM     11  C   LIG A   1      -6.994  -2.287 127.561  0.00  0.00    -0.037 A 
ATOM     12  C   LIG A   1      -5.590  -2.468 127.518  0.00  0.00    +0.008 A 
ATOM     13  C   LIG A   1      -4.845  -2.740 128.680  0.00  0.00    +0.050 A 
ATOM     14  C   LIG A   1      -5.519  -2.829 129.878  0.00  0.00    +0.166 A 
ATOM     15  C   LIG A   1      -6.874  -2.641 129.943  0.00  0.00    +0.167 A 
ATOM     16  C   LIG A   1      -7.624  -2.373 128.819  0.00  0.00    +0.053 A 
ATOM     17  O   LIG A   1      -7.365  -2.759 131.206  0.00  0.00    -0.453 OA
ATOM     18  C   LIG A   1      -6.165  -3.106 131.924  0.00  0.00    +0.466 C 
ATOM     19  O   LIG A   1      -4.981  -3.106 131.096  0.00  0.00    -0.453 OA
ENDBRANCH   2  11
BRANCH   9  20
ATOM     20  O   LIG A   1     -10.080  -0.258 125.403  0.00  0.00    -0.381 OA
ATOM     21  H   LIG A   1     -10.547   0.582 125.219  0.00  0.00    +0.210 HD
ENDBRANCH   9  20
BRANCH   4  22
ATOM     22  O   LIG A   1      -5.179  -0.710 125.552  0.00  0.00    -0.388 OA
ATOM     23  H   LIG A   1      -4.552  -1.292 125.072  0.00  0.00    +0.210 HD
ENDBRANCH   4  22
BRANCH   3  24
ATOM     24  O   LIG A   1      -7.452   0.435 126.707  0.00  0.00    -0.370 OA
ATOM     25  C   LIG A   1      -7.461   1.805 126.320  0.00  0.00    +0.195 C 
ENDBRANCH   3  24
BRANCH   5  26
ATOM     26  C   LIG A   1      -5.360  -2.580 123.422  0.00  0.00    +0.037 C 
BRANCH  26  27
ATOM     27  C   LIG A   1      -4.922  -3.862 124.076  0.00  0.00    -0.034 C 
ATOM     28  C   LIG A   1      -4.180  -4.797 123.472  0.00  0.00    +0.004 C 
ENDBRANCH  26  27
ENDBRANCH   5  26
TORSDOF 6
ENDMDL
MODEL 3
REMARK VINA RESULT:      -7.4      1.413      1.623
REMARK  Name = NuBBE_2324
REMARK  8 active torsions:
REMARK  status: ('A' for Active; 'I' for Inactive)
REMARK    1  A    between atoms: C_1  and  C_29
REMARK    2  A    between atoms: C_3  and  C_20
REMARK    3  A    between atoms: C_5  and  O_18
REMARK    4  A    between atoms: C_6  and  O_17
REMARK    5  A    between atoms: C_7  and  C_14
REMARK    6  A    between atoms: C_11  and  O_13
REMARK    7  A    between atoms: C_14  and  C_15
REMARK    8  A    between atoms: O_18  and  C_19
REMARK                            x       y       z     vdW  Elec       q    Type
REMARK                         _______ _______ _______ _____ _____    ______ ____
ROOT
ATOM      1  C   LIG A   1      -7.444  -2.656 126.215  0.00  0.00    +0.006 C 
ATOM      2  C   LIG A   1      -7.941  -1.634 127.294  0.00  0.00    +0.060 C 
ATOM      3  C   LIG A   1      -7.358  -0.252 126.795  0.00  0.00    +0.135 C 
ATOM      4  C   LIG A   1      -5.985  -0.659 126.226  0.00  0.00    +0.157 C 
ATOM      5  C   LIG A   1      -6.366  -1.888 125.357  0.00  0.00    +0.013 C 
ATOM      6  C   LIG A   1      -6.950  -1.314 124.051  0.00  0.00    +0.087 C 
ATOM      7  C   LIG A   1      -8.150  -0.436 124.314  0.00  0.00    +0.165 C 
ATOM      8  O   LIG A   1      -9.016  -0.272 123.458  0.00  0.00    -0.294 OA
ATOM      9  C   LIG A   1      -8.202   0.353 125.619  0.00  0.00    +0.215 C 
ATOM     10  C   LIG A   1      -8.616  -3.300 125.461  0.00  0.00    +0.009 C 
ENDROOT
BRANCH   2  11
ATOM     11  C   LIG A   1      -7.568  -2.072 128.728  0.00  0.00    -0.037 A 
ATOM     12  C   LIG A   1      -8.006  -1.303 129.833  0.00  0.00    +0.008 A 
ATOM     13  C   LIG A   1      -7.687  -1.664 131.156  0.00  0.00    +0.050 A 
ATOM     14  C   LIG A   1      -6.929  -2.797 131.356  0.00  0.00    +0.166 A 
ATOM     15  C   LIG A   1      -6.510  -3.562 130.300  0.00  0.00    +0.167 A 
ATOM     16  C   LIG A   1      -6.810  -3.229 128.998  0.00  0.00    +0.053 A 
ATOM     17  O   LIG A   1      -5.780  -4.642 130.687  0.00  0.00    -0.453 OA
ATOM     18  C   LIG A   1      -5.735  -4.434 132.111  0.00  0.00    +0.466 C 
ATOM     19  O   LIG A   1      -6.502  -3.291 132.549  0.00  0.00    -0.453 OA
ENDBRANCH   2  11
BRANCH   9  20
ATOM     20  O   LIG A   1      -9.564   0.550 126.000  0.00  0.00    -0.381 OA
ATOM     21  H   LIG A   1      -9.874  -0.311 126.346  0.00  0.00    +0.210 HD
ENDBRANCH   9  20
BRANCH   4  22
ATOM     22  O   LIG A   1      -5.044  -0.955 127.245  0.00  0.00    -0.388 OA
ATOM     23  H   LIG A   1      -5.195  -0.311 127.969  0.00  0.00    +0.210 HD
ENDBRANCH   4  22
BRANCH   3  24
ATOM     24  O   LIG A   1      -7.221   0.672 127.894  0.00  0.00    -0.370 OA
ATOM     25  C   LIG A   1      -6.831   2.002 127.568  0.00  0.00    +0.195 C 
ENDBRANCH   3  24
BRANCH   5  26
ATOM     26  C   LIG A   1      -5.127  -2.770 125.061  0.00  0.00    +0.037 C 
BRANCH  26  27
ATOM     27  C   LIG A   1      -5.265  -3.647 123.847  0.00  0.00    -0.034 C 
ATOM     28  C   LIG A   1      -4.393  -4.606 123.510  0.00  0.00    +0.004 C 
ENDBRANCH  26  27
ENDBRANCH   5  26
TORSDOF 6
ENDMDL
MODEL 4
REMARK VINA RESULT:      -7.3      2.503      3.422
REMARK  Name = NuBBE_2324
REMARK  8 active torsions:
REMARK  status: ('A' for Active; 'I' for Inactive)
REMARK    1  A    between atoms: C_1  and  C_29
REMARK    2  A    between atoms: C_3  and  C_20
REMARK    3  A    between atoms: C_5  and  O_18
REMARK    4  A    between atoms: C_6  and  O_17
REMARK    5  A    between atoms: C_7  and  C_14
REMARK    6  A    between atoms: C_11  and  O_13
REMARK    7  A    between atoms: C_14  and  C_15
REMARK    8  A    between atoms: O_18  and  C_19
REMARK                            x       y       z     vdW  Elec       q    Type
REMARK                         _______ _______ _______ _____ _____    ______ ____
ROOT
ATOM      1  C   LIG A   1      -8.055  -1.225 125.881  0.00  0.00    +0.006 C 
ATOM      2  C   LIG A   1      -8.658   0.155 126.317  0.00  0.00    +0.060 C 
ATOM      3  C   LIG A   1      -8.318   1.109 125.103  0.00  0.00    +0.135 C 
ATOM      4  C   LIG A   1      -6.924   0.613 124.673  0.00  0.00    +0.157 C 
ATOM      5  C   LIG A   1      -7.147  -0.923 124.628  0.00  0.00    +0.013 C 
ATOM      6  C   LIG A   1      -7.869  -1.203 123.294  0.00  0.00    +0.087 C 
ATOM      7  C   LIG A   1      -9.178  -0.456 123.200  0.00  0.00    +0.165 C 
ATOM      8  O   LIG A   1     -10.095  -0.870 122.494  0.00  0.00    -0.294 OA
ATOM      9  C   LIG A   1      -9.295   0.897 123.895  0.00  0.00    +0.215 C 
ATOM     10  C   LIG A   1      -9.145  -2.294 125.721  0.00  0.00    +0.009 C 
ENDROOT
BRANCH   2  11
ATOM     11  C   LIG A   1      -8.161   0.595 127.711  0.00  0.00    -0.037 A 
ATOM     12  C   LIG A   1      -7.233  -0.213 128.414  0.00  0.00    +0.008 A 
ATOM     13  C   LIG A   1      -6.757   0.148 129.687  0.00  0.00    +0.050 A 
ATOM     14  C   LIG A   1      -7.218   1.320 130.246  0.00  0.00    +0.166 A 
ATOM     15  C   LIG A   1      -8.102   2.122 129.576  0.00  0.00    +0.167 A 
ATOM     16  C   LIG A   1      -8.582   1.790 128.328  0.00  0.00    +0.053 A 
ATOM     17  O   LIG A   1      -8.440   3.238 130.277  0.00  0.00    -0.453 OA
ATOM     18  C   LIG A   1      -7.710   3.013 131.498  0.00  0.00    +0.466 C 
ATOM     19  O   LIG A   1      -6.894   1.821 131.468  0.00  0.00    -0.453 OA
ENDBRANCH   2  11
BRANCH   9  20
ATOM     20  O   LIG A   1     -10.654   1.118 124.275  0.00  0.00    -0.381 OA
ATOM     21  H   LIG A   1     -10.624   1.742 125.029  0.00  0.00    +0.210 HD
ENDBRANCH   9  20
BRANCH   4  22
ATOM     22  O   LIG A   1      -5.906   1.011 125.576  0.00  0.00    -0.388 OA
ATOM     23  H   LIG A   1      -6.208   0.760 126.475  0.00  0.00    +0.210 HD
ENDBRANCH   4  22
BRANCH   3  24
ATOM     24  O   LIG A   1      -8.279   2.487 125.531  0.00  0.00    -0.370 OA
ATOM     25  C   LIG A   1      -8.107   3.469 124.515  0.00  0.00    +0.195 C 
ENDBRANCH   3  24
BRANCH   5  26
ATOM     26  C   LIG A   1      -5.800  -1.686 124.692  0.00  0.00    +0.037 C 
BRANCH  26  27
ATOM     27  C   LIG A   1      -5.554  -2.608 123.529  0.00  0.00    -0.034 C 
ATOM     28  C   LIG A   1      -4.681  -3.623 123.548  0.00  0.00    +0.004 C 
ENDBRANCH  26  27
ENDBRANCH   5  26
TORSDOF 6
ENDMDL
MODEL 5
REMARK VINA RESULT:      -7.3      6.943     10.841
REMARK  Name = NuBBE_2324
REMARK  8 active torsions:
REMARK  status: ('A' for Active; 'I' for Inactive)
REMARK    1  A    between atoms: C_1  and  C_29
REMARK    2  A    between atoms: C_3  and  C_20
REMARK    3  A    between atoms: C_5  and  O_18
REMARK    4  A    between atoms: C_6  and  O_17
REMARK    5  A    between atoms: C_7  and  C_14
REMARK    6  A    between atoms: C_11  and  O_13
REMARK    7  A    between atoms: C_14  and  C_15
REMARK    8  A    between atoms: O_18  and  C_19
REMARK                            x       y       z     vdW  Elec       q    Type
REMARK                         _______ _______ _______ _____ _____    ______ ____
ROOT
ATOM      1  C   LIG A   1      -8.461   5.891 132.204  0.00  0.00    +0.006 C 
ATOM      2  C   LIG A   1      -9.582   5.136 131.410  0.00  0.00    +0.060 C 
ATOM      3  C   LIG A   1      -8.823   3.899 130.781  0.00  0.00    +0.135 C 
ATOM      4  C   LIG A   1      -7.449   4.500 130.428  0.00  0.00    +0.157 C 
ATOM      5  C   LIG A   1      -7.097   5.252 131.739  0.00  0.00    +0.013 C 
ATOM      6  C   LIG A   1      -6.586   4.173 132.717  0.00  0.00    +0.087 C 
ATOM      7  C   LIG A   1      -7.624   3.104 132.960  0.00  0.00    +0.165 C 
ATOM      8  O   LIG A   1      -7.630   2.450 134.000  0.00  0.00    -0.294 OA
ATOM      9  C   LIG A   1      -8.589   2.756 131.830  0.00  0.00    +0.215 C 
ATOM     10  C   LIG A   1      -8.751   5.915 133.711  0.00  0.00    +0.009 C 
ENDROOT
BRANCH   2  11
ATOM     11  C   LIG A   1     -10.332   6.066 130.432  0.00  0.00    -0.037 A 
ATOM     12  C   LIG A   1      -9.703   7.244 129.960  0.00  0.00    +0.008 A 
ATOM     13  C   LIG A   1     -10.351   8.120 129.071  0.00  0.00    +0.050 A 
ATOM     14  C   LIG A   1     -11.628   7.806 128.662  0.00  0.00    +0.166 A 
ATOM     15  C   LIG A   1     -12.247   6.663 129.094  0.00  0.00    +0.167 A 
ATOM     16  C   LIG A   1     -11.633   5.789 129.965  0.00  0.00    +0.053 A 
ATOM     17  O   LIG A   1     -13.498   6.513 128.583  0.00  0.00    -0.453 OA
ATOM     18  C   LIG A   1     -13.621   7.731 127.825  0.00  0.00    +0.466 C 
ATOM     19  O   LIG A   1     -12.420   8.535 127.831  0.00  0.00    -0.453 OA
ENDBRANCH   2  11
BRANCH   9  20
ATOM     20  O   LIG A   1      -9.821   2.294 132.384  0.00  0.00    -0.381 OA
ATOM     21  H   LIG A   1      -9.734   1.322 132.463  0.00  0.00    +0.210 HD
ENDBRANCH   9  20
BRANCH   4  22
ATOM     22  O   LIG A   1      -7.505   5.344 129.289  0.00  0.00    -0.388 OA
ATOM     23  H   LIG A   1      -8.009   6.143 129.551  0.00  0.00    +0.210 HD
ENDBRANCH   4  22
BRANCH   3  24
ATOM     24  O   LIG A   1      -9.509   3.422 129.606  0.00  0.00    -0.370 OA
ATOM     25  C   LIG A   1      -8.950   2.287 128.953  0.00  0.00    +0.195 C 
ENDBRANCH   3  24
BRANCH   5  26
ATOM     26  C   LIG A   1      -6.008   6.326 131.494  0.00  0.00    +0.037 C 
BRANCH  26  27
ATOM     27  C   LIG A   1      -4.659   5.985 132.066  0.00  0.00    -0.034 C 
ATOM     28  C   LIG A   1      -3.781   6.893 132.509  0.00  0.00    +0.004 C 
ENDBRANCH  26  27
ENDBRANCH   5  26
TORSDOF 6
ENDMDL
MODEL 6
REMARK VINA RESULT:      -7.0      7.904     10.866
REMARK  Name = NuBBE_2324
REMARK  8 active torsions:
REMARK  status: ('A' for Active; 'I' for Inactive)
REMARK    1  A    between atoms: C_1  and  C_29
REMARK    2  A    between atoms: C_3  and  C_20
REMARK    3  A    between atoms: C_5  and  O_18
REMARK    4  A    between atoms: C_6  and  O_17
REMARK    5  A    between atoms: C_7  and  C_14
REMARK    6  A    between atoms: C_11  and  O_13
REMARK    7  A    between atoms: C_14  and  C_15
REMARK    8  A    between atoms: O_18  and  C_19
REMARK                            x       y       z     vdW  Elec       q    Type
REMARK                         _______ _______ _______ _____ _____    ______ ____
ROOT
ATOM      1  C   LIG A   1      -4.014   6.991 131.180  0.00  0.00    +0.006 C 
ATOM      2  C   LIG A   1      -4.715   6.209 132.344  0.00  0.00    +0.060 C 
ATOM      3  C   LIG A   1      -4.024   4.788 132.307  0.00  0.00    +0.135 C 
ATOM      4  C   LIG A   1      -3.829   4.554 130.797  0.00  0.00    +0.157 C 
ATOM      5  C   LIG A   1      -3.215   5.910 130.355  0.00  0.00    +0.013 C 
ATOM      6  C   LIG A   1      -1.726   5.845 130.751  0.00  0.00    +0.087 C 
ATOM      7  C   LIG A   1      -1.552   5.623 132.234  0.00  0.00    +0.165 C 
ATOM      8  O   LIG A   1      -0.537   5.996 132.817  0.00  0.00    -0.294 OA
ATOM      9  C   LIG A   1      -2.605   4.805 132.976  0.00  0.00    +0.215 C 
ATOM     10  C   LIG A   1      -3.228   8.201 131.702  0.00  0.00    +0.009 C 
ENDROOT
BRANCH   2  11
ATOM     11  C   LIG A   1      -6.254   6.241 132.223  0.00  0.00    -0.037 A 
ATOM     12  C   LIG A   1      -7.052   5.709 133.266  0.00  0.00    +0.008 A 
ATOM     13  C   LIG A   1      -8.458   5.715 133.195  0.00  0.00    +0.050 A 
ATOM     14  C   LIG A   1      -9.051   6.255 132.076  0.00  0.00    +0.166 A 
ATOM     15  C   LIG A   1      -8.297   6.789 131.065  0.00  0.00    +0.167 A 
ATOM     16  C   LIG A   1      -6.920   6.795 131.111  0.00  0.00    +0.053 A 
ATOM     17  O   LIG A   1      -9.051   7.281 130.046  0.00  0.00    -0.453 OA
ATOM     18  C   LIG A   1     -10.372   6.939 130.506  0.00  0.00    +0.466 C 
ATOM     19  O   LIG A   1     -10.383   6.330 131.816  0.00  0.00    -0.453 OA
ENDBRANCH   2  11
BRANCH   9  20
ATOM     20  O   LIG A   1      -2.672   5.239 134.335  0.00  0.00    -0.381 OA
ATOM     21  H   LIG A   1      -3.194   4.560 134.809  0.00  0.00    +0.210 HD
ENDBRANCH   9  20
BRANCH   4  22
ATOM     22  O   LIG A   1      -5.045   4.240 130.137  0.00  0.00    -0.388 OA
ATOM     23  H   LIG A   1      -5.675   3.942 130.827  0.00  0.00    +0.210 HD
ENDBRANCH   4  22
BRANCH   3  24
ATOM     24  O   LIG A   1      -4.884   3.786 132.890  0.00  0.00    -0.370 OA
ATOM     25  C   LIG A   1      -4.337   2.481 133.040  0.00  0.00    +0.195 C 
ENDBRANCH   3  24
BRANCH   5  26
ATOM     26  C   LIG A   1      -3.366   6.120 128.827  0.00  0.00    +0.037 C 
BRANCH  26  27
ATOM     27  C   LIG A   1      -2.359   5.374 127.995  0.00  0.00    -0.034 C 
ATOM     28  C   LIG A   1      -2.627   4.246 127.325  0.00  0.00    +0.004 C 
ENDBRANCH  26  27
ENDBRANCH   5  26
TORSDOF 6
ENDMDL
MODEL 7
REMARK VINA RESULT:      -6.8      7.549     10.485
REMARK  Name = NuBBE_2324
REMARK  8 active torsions:
REMARK  status: ('A' for Active; 'I' for Inactive)
REMARK    1  A    between atoms: C_1  and  C_29
REMARK    2  A    between atoms: C_3  and  C_20
REMARK    3  A    between atoms: C_5  and  O_18
REMARK    4  A    between atoms: C_6  and  O_17
REMARK    5  A    between atoms: C_7  and  C_14
REMARK    6  A    between atoms: C_11  and  O_13
REMARK    7  A    between atoms: C_14  and  C_15
REMARK    8  A    between atoms: O_18  and  C_19
REMARK                            x       y       z     vdW  Elec       q    Type
REMARK                         _______ _______ _______ _____ _____    ______ ____
ROOT
ATOM      1  C   LIG A   1      -6.843   5.769 131.145  0.00  0.00    +0.006 C 
ATOM      2  C   LIG A   1      -8.167   5.457 131.925  0.00  0.00    +0.060 C 
ATOM      3  C   LIG A   1      -8.225   3.877 131.942  0.00  0.00    +0.135 C 
ATOM      4  C   LIG A   1      -7.661   3.511 130.556  0.00  0.00    +0.157 C 
ATOM      5  C   LIG A   1      -6.394   4.405 130.495  0.00  0.00    +0.013 C 
ATOM      6  C   LIG A   1      -5.324   3.675 131.333  0.00  0.00    +0.087 C 
ATOM      7  C   LIG A   1      -5.779   3.465 132.757  0.00  0.00    +0.165 C 
ATOM      8  O   LIG A   1      -4.967   3.350 133.672  0.00  0.00    -0.294 OA
ATOM      9  C   LIG A   1      -7.268   3.264 133.024  0.00  0.00    +0.215 C 
ATOM     10  C   LIG A   1      -5.823   6.499 132.029  0.00  0.00    +0.009 C 
ENDROOT
BRANCH   2  11
ATOM     11  C   LIG A   1      -9.385   6.194 131.326  0.00  0.00    -0.037 A 
ATOM     12  C   LIG A   1     -10.640   6.122 131.979  0.00  0.00    +0.008 A 
ATOM     13  C   LIG A   1     -11.776   6.776 131.466  0.00  0.00    +0.050 A 
ATOM     14  C   LIG A   1     -11.641   7.497 130.300  0.00  0.00    +0.166 A 
ATOM     15  C   LIG A   1     -10.432   7.591 129.664  0.00  0.00    +0.167 A 
ATOM     16  C   LIG A   1      -9.306   6.960 130.146  0.00  0.00    +0.053 A 
ATOM     17  O   LIG A   1     -10.487   8.347 128.535  0.00  0.00    -0.453 OA
ATOM     18  C   LIG A   1     -11.890   8.668 128.500  0.00  0.00    +0.466 C 
ATOM     19  O   LIG A   1     -12.621   8.172 129.643  0.00  0.00    -0.453 OA
ENDBRANCH   2  11
BRANCH   9  20
ATOM     20  O   LIG A   1      -7.584   3.740 134.332  0.00  0.00    -0.381 OA
ATOM     21  H   LIG A   1      -7.831   4.681 134.224  0.00  0.00    +0.210 HD
ENDBRANCH   9  20
BRANCH   4  22
ATOM     22  O   LIG A   1      -8.586   3.768 129.511  0.00  0.00    -0.388 OA
ATOM     23  H   LIG A   1      -8.859   2.897 129.151  0.00  0.00    +0.210 HD
ENDBRANCH   4  22
BRANCH   3  24
ATOM     24  O   LIG A   1      -9.583   3.417 132.098  0.00  0.00    -0.370 OA
ATOM     25  C   LIG A   1      -9.774   2.011 132.214  0.00  0.00    +0.195 C 
ENDBRANCH   3  24
BRANCH   5  26
ATOM     26  C   LIG A   1      -5.910   4.592 129.034  0.00  0.00    +0.037 C 
BRANCH  26  27
ATOM     27  C   LIG A   1      -4.432   4.836 128.896  0.00  0.00    -0.034 C 
ATOM     28  C   LIG A   1      -3.886   6.040 128.689  0.00  0.00    +0.004 C 
ENDBRANCH  26  27
ENDBRANCH   5  26
TORSDOF 6
ENDMDL
MODEL 8
REMARK VINA RESULT:      -6.7      8.138     10.727
REMARK  Name = NuBBE_2324
REMARK  8 active torsions:
REMARK  status: ('A' for Active; 'I' for Inactive)
REMARK    1  A    between atoms: C_1  and  C_29
REMARK    2  A    between atoms: C_3  and  C_20
REMARK    3  A    between atoms: C_5  and  O_18
REMARK    4  A    between atoms: C_6  and  O_17
REMARK    5  A    between atoms: C_7  and  C_14
REMARK    6  A    between atoms: C_11  and  O_13
REMARK    7  A    between atoms: C_14  and  C_15
REMARK    8  A    between atoms: O_18  and  C_19
REMARK                            x       y       z     vdW  Elec       q    Type
REMARK                         _______ _______ _______ _____ _____    ______ ____
ROOT
ATOM      1  C   LIG A   1      -8.255   6.181 132.107  0.00  0.00    +0.006 C 
ATOM      2  C   LIG A   1      -7.294   5.032 132.570  0.00  0.00    +0.060 C 
ATOM      3  C   LIG A   1      -8.033   3.716 132.097  0.00  0.00    +0.135 C 
ATOM      4  C   LIG A   1      -9.514   4.064 132.336  0.00  0.00    +0.157 C 
ATOM      5  C   LIG A   1      -9.604   5.476 131.696  0.00  0.00    +0.013 C 
ATOM      6  C   LIG A   1      -9.708   5.240 130.175  0.00  0.00    +0.087 C 
ATOM      7  C   LIG A   1      -8.519   4.473 129.646  0.00  0.00    +0.165 C 
ATOM      8  O   LIG A   1      -8.164   4.582 128.475  0.00  0.00    -0.294 OA
ATOM      9  C   LIG A   1      -7.845   3.456 130.561  0.00  0.00    +0.215 C 
ATOM     10  C   LIG A   1      -7.590   7.092 131.066  0.00  0.00    +0.009 C 
ENDROOT
BRANCH   2  11
ATOM     11  C   LIG A   1      -6.943   5.134 134.070  0.00  0.00    -0.037 A 
ATOM     12  C   LIG A   1      -5.788   4.482 134.567  0.00  0.00    +0.008 A 
ATOM     13  C   LIG A   1      -5.432   4.546 135.927  0.00  0.00    +0.050 A 
ATOM     14  C   LIG A   1      -6.242   5.266 136.778  0.00  0.00    +0.166 A 
ATOM     15  C   LIG A   1      -7.354   5.917 136.313  0.00  0.00    +0.167 A 
ATOM     16  C   LIG A   1      -7.722   5.869 134.987  0.00  0.00    +0.053 A 
ATOM     17  O   LIG A   1      -8.026   6.580 137.292  0.00  0.00    -0.453 OA
ATOM     18  C   LIG A   1      -7.240   6.220 138.443  0.00  0.00    +0.466 C 
ATOM     19  O   LIG A   1      -6.078   5.425 138.119  0.00  0.00    -0.453 OA
ENDBRANCH   2  11
BRANCH   9  20
ATOM     20  O   LIG A   1      -6.464   3.347 130.213  0.00  0.00    -0.381 OA
ATOM     21  H   LIG A   1      -6.182   2.457 130.506  0.00  0.00    +0.210 HD
ENDBRANCH   9  20
BRANCH   4  22
ATOM     22  O   LIG A   1      -9.859   4.044 133.712  0.00  0.00    -0.388 OA
ATOM     23  H   LIG A   1     -10.054   3.110 133.943  0.00  0.00    +0.210 HD
ENDBRANCH   4  22
BRANCH   3  24
ATOM     24  O   LIG A   1      -7.621   2.585 132.891  0.00  0.00    -0.370 OA
ATOM     25  C   LIG A   1      -8.063   1.303 132.459  0.00  0.00    +0.195 C 
ENDBRANCH   3  24
BRANCH   5  26
ATOM     26  C   LIG A   1     -10.843   6.248 132.215  0.00  0.00    +0.037 C 
BRANCH  26  27
ATOM     27  C   LIG A   1     -11.905   6.488 131.177  0.00  0.00    -0.034 C 
ATOM     28  C   LIG A   1     -12.788   7.492 131.226  0.00  0.00    +0.004 C 
ENDBRANCH  26  27
ENDBRANCH   5  26
TORSDOF 6
ENDMDL
MODEL 9
REMARK VINA RESULT:      -6.7      2.525      6.772
REMARK  Name = NuBBE_2324
REMARK  8 active torsions:
REMARK  status: ('A' for Active; 'I' for Inactive)
REMARK    1  A    between atoms: C_1  and  C_29
REMARK    2  A    between atoms: C_3  and  C_20
REMARK    3  A    between atoms: C_5  and  O_18
REMARK    4  A    between atoms: C_6  and  O_17
REMARK    5  A    between atoms: C_7  and  C_14
REMARK    6  A    between atoms: C_11  and  O_13
REMARK    7  A    between atoms: C_14  and  C_15
REMARK    8  A    between atoms: O_18  and  C_19
REMARK                            x       y       z     vdW  Elec       q    Type
REMARK                         _______ _______ _______ _____ _____    ______ ____
ROOT
ATOM      1  C   LIG A   1      -7.206  -0.344 130.319  0.00  0.00    +0.006 C 
ATOM      2  C   LIG A   1      -7.645  -1.848 130.276  0.00  0.00    +0.060 C 
ATOM      3  C   LIG A   1      -6.458  -2.603 130.996  0.00  0.00    +0.135 C 
ATOM      4  C   LIG A   1      -5.225  -1.811 130.520  0.00  0.00    +0.157 C 
ATOM      5  C   LIG A   1      -5.691  -0.350 130.756  0.00  0.00    +0.013 C 
ATOM      6  C   LIG A   1      -5.511  -0.091 132.265  0.00  0.00    +0.087 C 
ATOM      7  C   LIG A   1      -6.312  -1.063 133.098  0.00  0.00    +0.165 C 
ATOM      8  O   LIG A   1      -6.686  -0.769 134.231  0.00  0.00    -0.294 OA
ATOM      9  C   LIG A   1      -6.536  -2.471 132.557  0.00  0.00    +0.215 C 
ATOM     10  C   LIG A   1      -8.176   0.507 131.150  0.00  0.00    +0.009 C 
ENDROOT
BRANCH   2  11
ATOM     11  C   LIG A   1      -8.003  -2.311 128.847  0.00  0.00    -0.037 A 
ATOM     12  C   LIG A   1      -8.672  -3.544 128.654  0.00  0.00    +0.008 A 
ATOM     13  C   LIG A   1      -9.014  -4.005 127.369  0.00  0.00    +0.050 A 
ATOM     14  C   LIG A   1      -8.679  -3.222 126.287  0.00  0.00    +0.166 A 
ATOM     15  C   LIG A   1      -8.046  -2.020 126.454  0.00  0.00    +0.167 A 
ATOM     16  C   LIG A   1      -7.701  -1.547 127.701  0.00  0.00    +0.053 A 
ATOM     17  O   LIG A   1      -7.801  -1.383 125.277  0.00  0.00    -0.453 OA
ATOM     18  C   LIG A   1      -8.300  -2.357 124.341  0.00  0.00    +0.466 C 
ATOM     19  O   LIG A   1      -8.902  -3.507 124.976  0.00  0.00    -0.453 OA
ENDBRANCH   2  11
BRANCH   9  20
ATOM     20  O   LIG A   1      -7.769  -2.983 133.064  0.00  0.00    -0.381 OA
ATOM     21  H   LIG A   1      -7.538  -3.500 133.863  0.00  0.00    +0.210 HD
ENDBRANCH   9  20
BRANCH   4  22
ATOM     22  O   LIG A   1      -4.893  -2.089 129.168  0.00  0.00    -0.388 OA
ATOM     23  H   LIG A   1      -4.949  -1.239 128.681  0.00  0.00    +0.210 HD
ENDBRANCH   4  22
BRANCH   3  24
ATOM     24  O   LIG A   1      -6.396  -3.981 130.572  0.00  0.00    -0.370 OA
ATOM     25  C   LIG A   1      -5.443  -4.811 131.227  0.00  0.00    +0.195 C 
ENDBRANCH   3  24
BRANCH   5  26
ATOM     26  C   LIG A   1      -4.845   0.649 129.925  0.00  0.00    +0.037 C 
BRANCH  26  27
ATOM     27  C   LIG A   1      -5.579   1.271 128.769  0.00  0.00    -0.034 C 
ATOM     28  C   LIG A   1      -5.189   1.172 127.492  0.00  0.00    +0.004 C 
ENDBRANCH  26  27
ENDBRANCH   5  26
TORSDOF 6
ENDMDL
