MODEL 1
REMARK VINA RESULT:      -8.4      0.000      0.000
REMARK  Name = NuBBE_1121
REMARK  17 active torsions:
REMARK  status: ('A' for Active; 'I' for Inactive)
REMARK    1  A    between atoms: C_1  and  C_2
REMARK    2  A    between atoms: C_6  and  C_29
REMARK    3  A    between atoms: C_7  and  C_8
REMARK    4  A    between atoms: C_9  and  C_11
REMARK    5  A    between atoms: C_11  and  C_13
REMARK    6  A    between atoms: C_11  and  C_14
REMARK    7  A    between atoms: C_14  and  C_15
REMARK    8  A    between atoms: C_15  and  O_17
REMARK    9  A    between atoms: C_15  and  C_18
REMARK   10  A    between atoms: C_18  and  O_20
REMARK   11  A    between atoms: C_18  and  C_21
REMARK   12  A    between atoms: C_21  and  O_22
REMARK   13  A    between atoms: C_21  and  C_23
REMARK   14  A    between atoms: C_21  and  C_24
REMARK   15  A    between atoms: C_34  and  C_35
REMARK   16  A    between atoms: C_34  and  C_41
REMARK   17  A    between atoms: C_36  and  O_40
REMARK                            x       y       z     vdW  Elec       q    Type
REMARK                         _______ _______ _______ _____ _____    ______ ____
ROOT
ATOM      1  C   LIG A   1      -7.920  -2.063 127.527  0.00  0.00    +0.012 C 
ATOM      2  C   LIG A   1      -7.189  -2.010 128.920  0.00  0.00    -0.022 C 
ATOM      3  C   LIG A   1      -7.769  -0.722 129.644  0.00  0.00    +0.021 C 
ATOM      4  C   LIG A   1      -7.050   0.589 129.331  0.00  0.00    -0.063 C 
ATOM      5  C   LIG A   1      -7.730   1.883 129.866  0.00  0.00    -0.005 C 
ATOM      6  C   LIG A   1      -8.187   1.721 131.401  0.00  0.00    -0.020 C 
ATOM      7  C   LIG A   1      -9.716   1.681 131.616  0.00  0.00    +0.012 C 
ATOM      8  C   LIG A   1      -7.456   2.878 132.205  0.00  0.00    -0.001 C 
ATOM      9  C   LIG A   1      -6.253   3.208 131.316  0.00  0.00    +0.005 C 
ATOM     10  C   LIG A   1      -6.805   3.136 129.909  0.00  0.00    +0.012 C 
ATOM     11  C   LIG A   1      -7.641   0.367 131.957  0.00  0.00    +0.008 C 
ATOM     12  C   LIG A   1      -8.117  -0.832 131.145  0.00  0.00    +0.009 C 
ATOM     13  C   LIG A   1      -8.875   2.202 128.884  0.00  0.00    +0.016 C 
ATOM     14  C   LIG A   1      -5.929   0.593 128.559  0.00  0.00    -0.026 C 
ATOM     15  C   LIG A   1      -5.293  -0.604 127.954  0.00  0.00    +0.031 C 
ATOM     16  C   LIG A   1      -5.646  -1.935 128.637  0.00  0.00    +0.007 C 
ATOM     17  C   LIG A   1      -4.676  -2.371 129.815  0.00  0.00    -0.005 C 
ATOM     18  C   LIG A   1      -3.717  -1.257 130.307  0.00  0.00    +0.014 C 
ATOM     19  C   LIG A   1      -5.455  -2.872 131.051  0.00  0.00    +0.120 C 
ATOM     20  C   LIG A   1      -6.603  -3.817 130.720  0.00  0.00    +0.032 C 
ATOM     21  C   LIG A   1      -7.531  -3.356 129.598  0.00  0.00    +0.010 C 
ATOM     22  C   LIG A   1      -3.767  -3.511 129.278  0.00  0.00    +0.014 C 
ENDROOT
BRANCH   8  23
ATOM     23  C   LIG A   1      -8.266   4.137 132.682  0.00  0.00    -0.008 C 
ATOM     24  C   LIG A   1      -8.532   4.065 134.200  0.00  0.00    +0.008 C 
BRANCH  23  25
ATOM     25  C   LIG A   1      -7.640   5.511 132.369  0.00  0.00    +0.037 C 
BRANCH  25  26
ATOM     26  C   LIG A   1      -8.445   6.452 131.450  0.00  0.00    +0.146 C 
BRANCH  26  27
ATOM     27  O   LIG A   1      -7.464   7.205 130.719  0.00  0.00    -0.389 OA
ATOM     28  H   LIG A   1      -7.747   7.147 129.784  0.00  0.00    +0.210 HD
ENDBRANCH  26  27
BRANCH  26  29
ATOM     29  C   LIG A   1      -9.371   5.713 130.457  0.00  0.00    +0.174 C 
BRANCH  29  30
ATOM     30  C   LIG A   1     -10.841   6.234 130.415  0.00  0.00    +0.089 C 
ATOM     31  C   LIG A   1     -11.475   6.433 131.797  0.00  0.00    +0.044 C 
ATOM     32  C   LIG A   1     -10.879   7.575 129.667  0.00  0.00    +0.044 C 
BRANCH  30  33
ATOM     33  O   LIG A   1     -11.649   5.334 129.647  0.00  0.00    -0.387 OA
ATOM     34  H   LIG A   1     -11.907   5.785 128.822  0.00  0.00    +0.210 HD
ENDBRANCH  30  33
ENDBRANCH  29  30
BRANCH  29  35
ATOM     35  O   LIG A   1      -8.766   5.795 129.155  0.00  0.00    -0.386 OA
ATOM     36  H   LIG A   1      -7.821   5.987 129.290  0.00  0.00    +0.210 HD
ENDBRANCH  29  35
ENDBRANCH  26  29
ENDBRANCH  25  26
ENDBRANCH  23  25
ENDBRANCH   8  23
BRANCH  19  37
ATOM     37  O   LIG A   1      -4.590  -3.531 131.981  0.00  0.00    -0.391 OA
ATOM     38  H   LIG A   1      -3.912  -2.888 132.250  0.00  0.00    +0.210 HD
ENDBRANCH  19  37
TORSDOF 9
ENDMDL
MODEL 2
REMARK VINA RESULT:      -8.1      4.183      6.757
REMARK  Name = NuBBE_1121
REMARK  17 active torsions:
REMARK  status: ('A' for Active; 'I' for Inactive)
REMARK    1  A    between atoms: C_1  and  C_2
REMARK    2  A    between atoms: C_6  and  C_29
REMARK    3  A    between atoms: C_7  and  C_8
REMARK    4  A    between atoms: C_9  and  C_11
REMARK    5  A    between atoms: C_11  and  C_13
REMARK    6  A    between atoms: C_11  and  C_14
REMARK    7  A    between atoms: C_14  and  C_15
REMARK    8  A    between atoms: C_15  and  O_17
REMARK    9  A    between atoms: C_15  and  C_18
REMARK   10  A    between atoms: C_18  and  O_20
REMARK   11  A    between atoms: C_18  and  C_21
REMARK   12  A    between atoms: C_21  and  O_22
REMARK   13  A    between atoms: C_21  and  C_23
REMARK   14  A    between atoms: C_21  and  C_24
REMARK   15  A    between atoms: C_34  and  C_35
REMARK   16  A    between atoms: C_34  and  C_41
REMARK   17  A    between atoms: C_36  and  O_40
REMARK                            x       y       z     vdW  Elec       q    Type
REMARK                         _______ _______ _______ _____ _____    ______ ____
ROOT
ATOM      1  C   LIG A   1      -4.445   0.375 130.829  0.00  0.00    +0.012 C 
ATOM      2  C   LIG A   1      -4.911  -1.045 130.333  0.00  0.00    -0.022 C 
ATOM      3  C   LIG A   1      -5.258  -0.853 128.796  0.00  0.00    +0.021 C 
ATOM      4  C   LIG A   1      -6.683  -0.392 128.495  0.00  0.00    -0.063 C 
ATOM      5  C   LIG A   1      -6.975  -0.003 127.017  0.00  0.00    -0.005 C 
ATOM      6  C   LIG A   1      -6.396  -1.098 125.990  0.00  0.00    -0.020 C 
ATOM      7  C   LIG A   1      -5.204  -0.614 125.136  0.00  0.00    +0.012 C 
ATOM      8  C   LIG A   1      -7.636  -1.602 125.135  0.00  0.00    -0.001 C 
ATOM      9  C   LIG A   1      -8.829  -1.286 126.040  0.00  0.00    +0.005 C 
ATOM     10  C   LIG A   1      -8.487   0.058 126.645  0.00  0.00    +0.012 C 
ATOM     11  C   LIG A   1      -5.873  -2.330 126.797  0.00  0.00    +0.008 C 
ATOM     12  C   LIG A   1      -4.799  -1.949 127.810  0.00  0.00    +0.009 C 
ATOM     13  C   LIG A   1      -6.406   1.418 126.828  0.00  0.00    +0.016 C 
ATOM     14  C   LIG A   1      -7.593  -0.264 129.500  0.00  0.00    -0.026 C 
ATOM     15  C   LIG A   1      -7.337  -0.539 130.936  0.00  0.00    +0.031 C 
ATOM     16  C   LIG A   1      -6.143  -1.466 131.211  0.00  0.00    +0.007 C 
ATOM     17  C   LIG A   1      -6.486  -3.015 131.272  0.00  0.00    -0.005 C 
ATOM     18  C   LIG A   1      -7.894  -3.385 130.742  0.00  0.00    +0.014 C 
ATOM     19  C   LIG A   1      -5.468  -3.865 130.481  0.00  0.00    +0.120 C 
ATOM     20  C   LIG A   1      -4.016  -3.473 130.717  0.00  0.00    +0.032 C 
ATOM     21  C   LIG A   1      -3.716  -1.979 130.626  0.00  0.00    +0.010 C 
ATOM     22  C   LIG A   1      -6.467  -3.442 132.766  0.00  0.00    +0.014 C 
ENDROOT
BRANCH   8  23
ATOM     23  C   LIG A   1      -7.812  -1.123 123.649  0.00  0.00    -0.008 C 
ATOM     24  C   LIG A   1      -7.134  -2.112 122.678  0.00  0.00    +0.008 C 
BRANCH  23  25
ATOM     25  C   LIG A   1      -9.260  -0.897 123.171  0.00  0.00    +0.037 C 
BRANCH  25  26
ATOM     26  C   LIG A   1      -9.644   0.538 122.757  0.00  0.00    +0.146 C 
BRANCH  26  27
ATOM     27  O   LIG A   1     -11.077   0.541 122.670  0.00  0.00    -0.389 OA
ATOM     28  H   LIG A   1     -11.299  -0.246 122.131  0.00  0.00    +0.210 HD
ENDBRANCH  26  27
BRANCH  26  29
ATOM     29  C   LIG A   1      -9.186   1.621 123.761  0.00  0.00    +0.174 C 
BRANCH  29  30
ATOM     30  C   LIG A   1      -8.270   2.731 123.160  0.00  0.00    +0.089 C 
ATOM     31  C   LIG A   1      -6.794   2.330 123.045  0.00  0.00    +0.044 C 
ATOM     32  C   LIG A   1      -8.782   3.103 121.761  0.00  0.00    +0.044 C 
BRANCH  30  33
ATOM     33  O   LIG A   1      -8.378   3.923 123.948  0.00  0.00    -0.387 OA
ATOM     34  H   LIG A   1      -8.381   3.666 124.889  0.00  0.00    +0.210 HD
ENDBRANCH  30  33
ENDBRANCH  29  30
BRANCH  29  35
ATOM     35  O   LIG A   1     -10.367   2.198 124.345  0.00  0.00    -0.386 OA
ATOM     36  H   LIG A   1     -10.940   2.482 123.611  0.00  0.00    +0.210 HD
ENDBRANCH  29  35
ENDBRANCH  26  29
ENDBRANCH  25  26
ENDBRANCH  23  25
ENDBRANCH   8  23
BRANCH  19  37
ATOM     37  O   LIG A   1      -5.608  -5.257 130.780  0.00  0.00    -0.391 OA
ATOM     38  H   LIG A   1      -4.730  -5.664 130.681  0.00  0.00    +0.210 HD
ENDBRANCH  19  37
TORSDOF 9
ENDMDL
MODEL 3
REMARK VINA RESULT:      -7.8      4.944      7.398
REMARK  Name = NuBBE_1121
REMARK  17 active torsions:
REMARK  status: ('A' for Active; 'I' for Inactive)
REMARK    1  A    between atoms: C_1  and  C_2
REMARK    2  A    between atoms: C_6  and  C_29
REMARK    3  A    between atoms: C_7  and  C_8
REMARK    4  A    between atoms: C_9  and  C_11
REMARK    5  A    between atoms: C_11  and  C_13
REMARK    6  A    between atoms: C_11  and  C_14
REMARK    7  A    between atoms: C_14  and  C_15
REMARK    8  A    between atoms: C_15  and  O_17
REMARK    9  A    between atoms: C_15  and  C_18
REMARK   10  A    between atoms: C_18  and  O_20
REMARK   11  A    between atoms: C_18  and  C_21
REMARK   12  A    between atoms: C_21  and  O_22
REMARK   13  A    between atoms: C_21  and  C_23
REMARK   14  A    between atoms: C_21  and  C_24
REMARK   15  A    between atoms: C_34  and  C_35
REMARK   16  A    between atoms: C_34  and  C_41
REMARK   17  A    between atoms: C_36  and  O_40
REMARK                            x       y       z     vdW  Elec       q    Type
REMARK                         _______ _______ _______ _____ _____    ______ ____
ROOT
ATOM      1  C   LIG A   1      -8.309   0.801 126.714  0.00  0.00    +0.012 C 
ATOM      2  C   LIG A   1      -8.008  -0.734 126.533  0.00  0.00    -0.022 C 
ATOM      3  C   LIG A   1      -7.583  -1.245 127.976  0.00  0.00    +0.021 C 
ATOM      4  C   LIG A   1      -6.101  -1.098 128.315  0.00  0.00    -0.063 C 
ATOM      5  C   LIG A   1      -5.707  -1.400 129.791  0.00  0.00    -0.005 C 
ATOM      6  C   LIG A   1      -6.381  -2.764 130.316  0.00  0.00    -0.020 C 
ATOM      7  C   LIG A   1      -7.471  -2.570 131.393  0.00  0.00    +0.012 C 
ATOM      8  C   LIG A   1      -5.184  -3.701 130.774  0.00  0.00    -0.001 C 
ATOM      9  C   LIG A   1      -3.995  -3.152 129.982  0.00  0.00    +0.005 C 
ATOM     10  C   LIG A   1      -4.188  -1.652 130.022  0.00  0.00    +0.012 C 
ATOM     11  C   LIG A   1      -7.086  -3.480 129.119  0.00  0.00    +0.008 C 
ATOM     12  C   LIG A   1      -8.140  -2.603 128.453  0.00  0.00    +0.009 C 
ATOM     13  C   LIG A   1      -6.085  -0.143 130.601  0.00  0.00    +0.016 C 
ATOM     14  C   LIG A   1      -5.220  -0.647 127.380  0.00  0.00    -0.026 C 
ATOM     15  C   LIG A   1      -5.561  -0.263 125.987  0.00  0.00    +0.031 C 
ATOM     16  C   LIG A   1      -6.872  -0.864 125.457  0.00  0.00    +0.007 C 
ATOM     17  C   LIG A   1      -6.730  -2.267 124.729  0.00  0.00    -0.005 C 
ATOM     18  C   LIG A   1      -5.360  -2.964 124.933  0.00  0.00    +0.014 C 
ATOM     19  C   LIG A   1      -7.816  -3.267 125.181  0.00  0.00    +0.120 C 
ATOM     20  C   LIG A   1      -9.215  -2.671 125.256  0.00  0.00    +0.032 C 
ATOM     21  C   LIG A   1      -9.321  -1.333 125.983  0.00  0.00    +0.010 C 
ATOM     22  C   LIG A   1      -6.857  -2.019 123.200  0.00  0.00    +0.014 C 
ENDROOT
BRANCH   8  23
ATOM     23  C   LIG A   1      -4.895  -3.914 132.303  0.00  0.00    -0.008 C 
ATOM     24  C   LIG A   1      -5.617  -5.176 132.820  0.00  0.00    +0.008 C 
BRANCH  23  25
ATOM     25  C   LIG A   1      -3.411  -4.011 132.710  0.00  0.00    +0.037 C 
BRANCH  25  26
ATOM     26  C   LIG A   1      -2.925  -3.049 133.813  0.00  0.00    +0.146 C 
BRANCH  26  27
ATOM     27  O   LIG A   1      -1.766  -3.676 134.385  0.00  0.00    -0.389 OA
ATOM     28  H   LIG A   1      -1.025  -3.070 134.180  0.00  0.00    +0.210 HD
ENDBRANCH  26  27
BRANCH  26  29
ATOM     29  C   LIG A   1      -2.546  -1.643 133.293  0.00  0.00    +0.174 C 
BRANCH  29  30
ATOM     30  C   LIG A   1      -3.318  -0.463 133.961  0.00  0.00    +0.089 C 
ATOM     31  C   LIG A   1      -3.235   0.858 133.187  0.00  0.00    +0.044 C 
ATOM     32  C   LIG A   1      -4.798  -0.848 134.106  0.00  0.00    +0.044 C 
BRANCH  30  33
ATOM     33  O   LIG A   1      -2.833  -0.264 135.295  0.00  0.00    -0.387 OA
ATOM     34  H   LIG A   1      -1.858  -0.250 135.264  0.00  0.00    +0.210 HD
ENDBRANCH  30  33
ENDBRANCH  29  30
BRANCH  29  35
ATOM     35  O   LIG A   1      -1.128  -1.483 133.465  0.00  0.00    -0.386 OA
ATOM     36  H   LIG A   1      -0.702  -1.813 132.653  0.00  0.00    +0.210 HD
ENDBRANCH  29  35
ENDBRANCH  26  29
ENDBRANCH  25  26
ENDBRANCH  23  25
ENDBRANCH   8  23
BRANCH  19  37
ATOM     37  O   LIG A   1      -7.864  -4.409 124.319  0.00  0.00    -0.391 OA
ATOM     38  H   LIG A   1      -6.964  -4.773 124.271  0.00  0.00    +0.210 HD
ENDBRANCH  19  37
TORSDOF 9
ENDMDL
MODEL 4
REMARK VINA RESULT:      -7.7      5.053      8.228
REMARK  Name = NuBBE_1121
REMARK  17 active torsions:
REMARK  status: ('A' for Active; 'I' for Inactive)
REMARK    1  A    between atoms: C_1  and  C_2
REMARK    2  A    between atoms: C_6  and  C_29
REMARK    3  A    between atoms: C_7  and  C_8
REMARK    4  A    between atoms: C_9  and  C_11
REMARK    5  A    between atoms: C_11  and  C_13
REMARK    6  A    between atoms: C_11  and  C_14
REMARK    7  A    between atoms: C_14  and  C_15
REMARK    8  A    between atoms: C_15  and  O_17
REMARK    9  A    between atoms: C_15  and  C_18
REMARK   10  A    between atoms: C_18  and  O_20
REMARK   11  A    between atoms: C_18  and  C_21
REMARK   12  A    between atoms: C_21  and  O_22
REMARK   13  A    between atoms: C_21  and  C_23
REMARK   14  A    between atoms: C_21  and  C_24
REMARK   15  A    between atoms: C_34  and  C_35
REMARK   16  A    between atoms: C_34  and  C_41
REMARK   17  A    between atoms: C_36  and  O_40
REMARK                            x       y       z     vdW  Elec       q    Type
REMARK                         _______ _______ _______ _____ _____    ______ ____
ROOT
ATOM      1  C   LIG A   1      -5.605   0.648 126.062  0.00  0.00    +0.012 C 
ATOM      2  C   LIG A   1      -6.753  -0.387 126.359  0.00  0.00    -0.022 C 
ATOM      3  C   LIG A   1      -6.566  -0.787 127.884  0.00  0.00    +0.021 C 
ATOM      4  C   LIG A   1      -5.598  -1.939 128.148  0.00  0.00    -0.063 C 
ATOM      5  C   LIG A   1      -5.248  -2.205 129.641  0.00  0.00    -0.005 C 
ATOM      6  C   LIG A   1      -6.564  -2.213 130.566  0.00  0.00    -0.020 C 
ATOM      7  C   LIG A   1      -6.672  -1.022 131.542  0.00  0.00    +0.012 C 
ATOM      8  C   LIG A   1      -6.596  -3.632 131.278  0.00  0.00    -0.001 C 
ATOM      9  C   LIG A   1      -5.753  -4.505 130.345  0.00  0.00    +0.005 C 
ATOM     10  C   LIG A   1      -4.615  -3.601 129.924  0.00  0.00    +0.012 C 
ATOM     11  C   LIG A   1      -7.831  -2.136 129.654  0.00  0.00    +0.008 C 
ATOM     12  C   LIG A   1      -7.832  -0.900 128.761  0.00  0.00    +0.009 C 
ATOM     13  C   LIG A   1      -4.196  -1.146 130.029  0.00  0.00    +0.016 C 
ATOM     14  C   LIG A   1      -5.032  -2.616 127.111  0.00  0.00    -0.026 C 
ATOM     15  C   LIG A   1      -5.267  -2.343 125.671  0.00  0.00    +0.031 C 
ATOM     16  C   LIG A   1      -6.570  -1.588 125.363  0.00  0.00    +0.007 C 
ATOM     17  C   LIG A   1      -7.839  -2.504 125.101  0.00  0.00    -0.005 C 
ATOM     18  C   LIG A   1      -7.655  -3.991 125.496  0.00  0.00    +0.014 C 
ATOM     19  C   LIG A   1      -9.089  -1.990 125.848  0.00  0.00    +0.120 C 
ATOM     20  C   LIG A   1      -9.296  -0.485 125.750  0.00  0.00    +0.032 C 
ATOM     21  C   LIG A   1      -8.062   0.368 126.032  0.00  0.00    +0.010 C 
ATOM     22  C   LIG A   1      -8.113  -2.501 123.571  0.00  0.00    +0.014 C 
ENDROOT
BRANCH   8  23
ATOM     23  C   LIG A   1      -6.211  -3.757 132.797  0.00  0.00    -0.008 C 
ATOM     24  C   LIG A   1      -7.438  -3.484 133.690  0.00  0.00    +0.008 C 
BRANCH  23  25
ATOM     25  C   LIG A   1      -5.588  -5.098 133.234  0.00  0.00    +0.037 C 
BRANCH  25  26
ATOM     26  C   LIG A   1      -4.321  -5.026 134.111  0.00  0.00    +0.146 C 
BRANCH  26  27
ATOM     27  O   LIG A   1      -3.952  -6.391 134.363  0.00  0.00    -0.389 OA
ATOM     28  H   LIG A   1      -4.062  -6.845 133.503  0.00  0.00    +0.210 HD
ENDBRANCH  26  27
BRANCH  26  29
ATOM     29  C   LIG A   1      -3.139  -4.288 133.440  0.00  0.00    +0.174 C 
BRANCH  29  30
ATOM     30  C   LIG A   1      -2.690  -2.977 134.155  0.00  0.00    +0.089 C 
ATOM     31  C   LIG A   1      -3.210  -1.694 133.494  0.00  0.00    +0.044 C 
ATOM     32  C   LIG A   1      -3.179  -3.004 135.611  0.00  0.00    +0.044 C 
BRANCH  30  33
ATOM     33  O   LIG A   1      -1.260  -2.929 134.222  0.00  0.00    -0.387 OA
ATOM     34  H   LIG A   1      -0.957  -2.163 133.700  0.00  0.00    +0.210 HD
ENDBRANCH  30  33
ENDBRANCH  29  30
BRANCH  29  35
ATOM     35  O   LIG A   1      -2.044  -5.216 133.348  0.00  0.00    -0.386 OA
ATOM     36  H   LIG A   1      -1.326  -4.868 133.907  0.00  0.00    +0.210 HD
ENDBRANCH  29  35
ENDBRANCH  26  29
ENDBRANCH  25  26
ENDBRANCH  23  25
ENDBRANCH   8  23
BRANCH  19  37
ATOM     37  O   LIG A   1     -10.278  -2.635 125.380  0.00  0.00    -0.391 OA
ATOM     38  H   LIG A   1     -10.936  -1.939 125.210  0.00  0.00    +0.210 HD
ENDBRANCH  19  37
TORSDOF 9
ENDMDL
MODEL 5
REMARK VINA RESULT:      -7.7      1.642      2.952
REMARK  Name = NuBBE_1121
REMARK  17 active torsions:
REMARK  status: ('A' for Active; 'I' for Inactive)
REMARK    1  A    between atoms: C_1  and  C_2
REMARK    2  A    between atoms: C_6  and  C_29
REMARK    3  A    between atoms: C_7  and  C_8
REMARK    4  A    between atoms: C_9  and  C_11
REMARK    5  A    between atoms: C_11  and  C_13
REMARK    6  A    between atoms: C_11  and  C_14
REMARK    7  A    between atoms: C_14  and  C_15
REMARK    8  A    between atoms: C_15  and  O_17
REMARK    9  A    between atoms: C_15  and  C_18
REMARK   10  A    between atoms: C_18  and  O_20
REMARK   11  A    between atoms: C_18  and  C_21
REMARK   12  A    between atoms: C_21  and  O_22
REMARK   13  A    between atoms: C_21  and  C_23
REMARK   14  A    between atoms: C_21  and  C_24
REMARK   15  A    between atoms: C_34  and  C_35
REMARK   16  A    between atoms: C_34  and  C_41
REMARK   17  A    between atoms: C_36  and  O_40
REMARK                            x       y       z     vdW  Elec       q    Type
REMARK                         _______ _______ _______ _____ _____    ______ ____
ROOT
ATOM      1  C   LIG A   1      -7.920  -2.926 133.136  0.00  0.00    +0.012 C 
ATOM      2  C   LIG A   1      -6.686  -2.177 132.507  0.00  0.00    -0.022 C 
ATOM      3  C   LIG A   1      -7.104  -0.646 132.471  0.00  0.00    +0.021 C 
ATOM      4  C   LIG A   1      -7.877  -0.203 131.230  0.00  0.00    -0.063 C 
ATOM      5  C   LIG A   1      -8.470   1.236 131.275  0.00  0.00    -0.005 C 
ATOM      6  C   LIG A   1      -7.392   2.305 131.808  0.00  0.00    -0.020 C 
ATOM      7  C   LIG A   1      -7.706   2.898 133.198  0.00  0.00    +0.012 C 
ATOM      8  C   LIG A   1      -7.246   3.394 130.663  0.00  0.00    -0.001 C 
ATOM      9  C   LIG A   1      -7.705   2.642 129.411  0.00  0.00    +0.005 C 
ATOM     10  C   LIG A   1      -8.879   1.816 129.888  0.00  0.00    +0.012 C 
ATOM     11  C   LIG A   1      -6.002   1.604 131.946  0.00  0.00    +0.008 C 
ATOM     12  C   LIG A   1      -6.045   0.401 132.882  0.00  0.00    +0.009 C 
ATOM     13  C   LIG A   1      -9.755   1.142 132.122  0.00  0.00    +0.016 C 
ATOM     14  C   LIG A   1      -8.084  -1.070 130.201  0.00  0.00    -0.026 C 
ATOM     15  C   LIG A   1      -7.615  -2.477 130.150  0.00  0.00    +0.031 C 
ATOM     16  C   LIG A   1      -6.438  -2.797 131.086  0.00  0.00    +0.007 C 
ATOM     17  C   LIG A   1      -4.995  -2.595 130.455  0.00  0.00    -0.005 C 
ATOM     18  C   LIG A   1      -4.980  -1.817 129.115  0.00  0.00    +0.014 C 
ATOM     19  C   LIG A   1      -4.041  -1.855 131.417  0.00  0.00    +0.120 C 
ATOM     20  C   LIG A   1      -4.099  -2.355 132.854  0.00  0.00    +0.032 C 
ATOM     21  C   LIG A   1      -5.500  -2.514 133.439  0.00  0.00    +0.010 C 
ATOM     22  C   LIG A   1      -4.420  -4.004 130.136  0.00  0.00    +0.014 C 
ENDROOT
BRANCH   8  23
ATOM     23  C   LIG A   1      -7.903   4.811 130.838  0.00  0.00    -0.008 C 
ATOM     24  C   LIG A   1      -6.817   5.899 130.965  0.00  0.00    +0.008 C 
BRANCH  23  25
ATOM     25  C   LIG A   1      -8.891   5.245 129.737  0.00  0.00    +0.037 C 
BRANCH  25  26
ATOM     26  C   LIG A   1     -10.372   5.390 130.145  0.00  0.00    +0.146 C 
BRANCH  26  27
ATOM     27  O   LIG A   1     -10.548   4.507 131.264  0.00  0.00    -0.389 OA
ATOM     28  H   LIG A   1      -9.759   3.928 131.255  0.00  0.00    +0.210 HD
ENDBRANCH  26  27
BRANCH  26  29
ATOM     29  C   LIG A   1     -10.769   6.827 130.555  0.00  0.00    +0.174 C 
BRANCH  29  30
ATOM     30  C   LIG A   1     -11.626   7.598 129.505  0.00  0.00    +0.089 C 
ATOM     31  C   LIG A   1     -10.802   8.327 128.437  0.00  0.00    +0.044 C 
ATOM     32  C   LIG A   1     -12.567   6.610 128.801  0.00  0.00    +0.044 C 
BRANCH  30  33
ATOM     33  O   LIG A   1     -12.474   8.539 130.174  0.00  0.00    -0.387 OA
ATOM     34  H   LIG A   1     -12.381   9.402 129.729  0.00  0.00    +0.210 HD
ENDBRANCH  30  33
ENDBRANCH  29  30
BRANCH  29  35
ATOM     35  O   LIG A   1     -11.460   6.744 131.814  0.00  0.00    -0.386 OA
ATOM     36  H   LIG A   1     -11.549   7.654 132.151  0.00  0.00    +0.210 HD
ENDBRANCH  29  35
ENDBRANCH  26  29
ENDBRANCH  25  26
ENDBRANCH  23  25
ENDBRANCH   8  23
BRANCH  19  37
ATOM     37  O   LIG A   1      -2.684  -1.938 130.971  0.00  0.00    -0.391 OA
ATOM     38  H   LIG A   1      -2.701  -2.233 130.045  0.00  0.00    +0.210 HD
ENDBRANCH  19  37
TORSDOF 9
ENDMDL
MODEL 6
REMARK VINA RESULT:      -7.5      1.970      3.677
REMARK  Name = NuBBE_1121
REMARK  17 active torsions:
REMARK  status: ('A' for Active; 'I' for Inactive)
REMARK    1  A    between atoms: C_1  and  C_2
REMARK    2  A    between atoms: C_6  and  C_29
REMARK    3  A    between atoms: C_7  and  C_8
REMARK    4  A    between atoms: C_9  and  C_11
REMARK    5  A    between atoms: C_11  and  C_13
REMARK    6  A    between atoms: C_11  and  C_14
REMARK    7  A    between atoms: C_14  and  C_15
REMARK    8  A    between atoms: C_15  and  O_17
REMARK    9  A    between atoms: C_15  and  C_18
REMARK   10  A    between atoms: C_18  and  O_20
REMARK   11  A    between atoms: C_18  and  C_21
REMARK   12  A    between atoms: C_21  and  O_22
REMARK   13  A    between atoms: C_21  and  C_23
REMARK   14  A    between atoms: C_21  and  C_24
REMARK   15  A    between atoms: C_34  and  C_35
REMARK   16  A    between atoms: C_34  and  C_41
REMARK   17  A    between atoms: C_36  and  O_40
REMARK                            x       y       z     vdW  Elec       q    Type
REMARK                         _______ _______ _______ _____ _____    ______ ____
ROOT
ATOM      1  C   LIG A   1      -3.097  -1.744 133.025  0.00  0.00    +0.012 C 
ATOM      2  C   LIG A   1      -4.055  -1.599 131.784  0.00  0.00    -0.022 C 
ATOM      3  C   LIG A   1      -4.549  -0.090 131.816  0.00  0.00    +0.021 C 
ATOM      4  C   LIG A   1      -5.784   0.179 132.673  0.00  0.00    -0.063 C 
ATOM      5  C   LIG A   1      -6.155   1.677 132.880  0.00  0.00    -0.005 C 
ATOM      6  C   LIG A   1      -6.112   2.495 131.495  0.00  0.00    -0.020 C 
ATOM      7  C   LIG A   1      -4.969   3.528 131.393  0.00  0.00    +0.012 C 
ATOM      8  C   LIG A   1      -7.559   3.117 131.302  0.00  0.00    -0.001 C 
ATOM      9  C   LIG A   1      -8.443   2.202 132.153  0.00  0.00    +0.005 C 
ATOM     10  C   LIG A   1      -7.608   1.925 133.384  0.00  0.00    +0.012 C 
ATOM     11  C   LIG A   1      -5.888   1.493 130.316  0.00  0.00    +0.008 C 
ATOM     12  C   LIG A   1      -4.611   0.677 130.478  0.00  0.00    +0.009 C 
ATOM     13  C   LIG A   1      -5.203   2.208 133.970  0.00  0.00    +0.016 C 
ATOM     14  C   LIG A   1      -6.446  -0.848 133.272  0.00  0.00    -0.026 C 
ATOM     15  C   LIG A   1      -6.079  -2.284 133.177  0.00  0.00    +0.031 C 
ATOM     16  C   LIG A   1      -5.211  -2.647 131.961  0.00  0.00    +0.007 C 
ATOM     17  C   LIG A   1      -6.012  -3.061 130.655  0.00  0.00    -0.005 C 
ATOM     18  C   LIG A   1      -7.528  -2.741 130.698  0.00  0.00    +0.014 C 
ATOM     19  C   LIG A   1      -5.444  -2.384 129.389  0.00  0.00    +0.120 C 
ATOM     20  C   LIG A   1      -3.924  -2.409 129.300  0.00  0.00    +0.032 C 
ATOM     21  C   LIG A   1      -3.185  -1.981 130.565  0.00  0.00    +0.010 C 
ATOM     22  C   LIG A   1      -5.906  -4.605 130.509  0.00  0.00    +0.014 C 
ENDROOT
BRANCH   8  23
ATOM     23  C   LIG A   1      -7.795   4.650 131.551  0.00  0.00    -0.008 C 
ATOM     24  C   LIG A   1      -7.425   5.465 130.294  0.00  0.00    +0.008 C 
BRANCH  23  25
ATOM     25  C   LIG A   1      -9.215   5.061 131.989  0.00  0.00    +0.037 C 
BRANCH  25  26
ATOM     26  C   LIG A   1     -10.255   5.280 130.871  0.00  0.00    +0.146 C 
BRANCH  26  27
ATOM     27  O   LIG A   1     -11.101   4.119 130.903  0.00  0.00    -0.389 OA
ATOM     28  H   LIG A   1     -11.085   3.771 129.989  0.00  0.00    +0.210 HD
ENDBRANCH  26  27
BRANCH  26  29
ATOM     29  C   LIG A   1     -11.116   6.550 131.059  0.00  0.00    +0.174 C 
BRANCH  29  30
ATOM     30  C   LIG A   1     -11.573   7.237 129.736  0.00  0.00    +0.089 C 
ATOM     31  C   LIG A   1     -12.611   8.349 129.934  0.00  0.00    +0.044 C 
ATOM     32  C   LIG A   1     -10.348   7.839 129.031  0.00  0.00    +0.044 C 
BRANCH  30  33
ATOM     33  O   LIG A   1     -12.099   6.252 128.838  0.00  0.00    -0.387 OA
ATOM     34  H   LIG A   1     -12.025   6.600 127.930  0.00  0.00    +0.210 HD
ENDBRANCH  30  33
ENDBRANCH  29  30
BRANCH  29  35
ATOM     35  O   LIG A   1     -12.252   6.190 131.864  0.00  0.00    -0.386 OA
ATOM     36  H   LIG A   1     -12.526   6.990 132.346  0.00  0.00    +0.210 HD
ENDBRANCH  29  35
ENDBRANCH  26  29
ENDBRANCH  25  26
ENDBRANCH  23  25
ENDBRANCH   8  23
BRANCH  19  37
ATOM     37  O   LIG A   1      -5.970  -2.981 128.198  0.00  0.00    -0.391 OA
ATOM     38  H   LIG A   1      -6.789  -3.444 128.444  0.00  0.00    +0.210 HD
ENDBRANCH  19  37
TORSDOF 9
ENDMDL
MODEL 7
REMARK VINA RESULT:      -7.5      4.663      7.162
REMARK  Name = NuBBE_1121
REMARK  17 active torsions:
REMARK  status: ('A' for Active; 'I' for Inactive)
REMARK    1  A    between atoms: C_1  and  C_2
REMARK    2  A    between atoms: C_6  and  C_29
REMARK    3  A    between atoms: C_7  and  C_8
REMARK    4  A    between atoms: C_9  and  C_11
REMARK    5  A    between atoms: C_11  and  C_13
REMARK    6  A    between atoms: C_11  and  C_14
REMARK    7  A    between atoms: C_14  and  C_15
REMARK    8  A    between atoms: C_15  and  O_17
REMARK    9  A    between atoms: C_15  and  C_18
REMARK   10  A    between atoms: C_18  and  O_20
REMARK   11  A    between atoms: C_18  and  C_21
REMARK   12  A    between atoms: C_21  and  O_22
REMARK   13  A    between atoms: C_21  and  C_23
REMARK   14  A    between atoms: C_21  and  C_24
REMARK   15  A    between atoms: C_34  and  C_35
REMARK   16  A    between atoms: C_34  and  C_41
REMARK   17  A    between atoms: C_36  and  O_40
REMARK                            x       y       z     vdW  Elec       q    Type
REMARK                         _______ _______ _______ _____ _____    ______ ____
ROOT
ATOM      1  C   LIG A   1      -8.341   0.768 126.639  0.00  0.00    +0.012 C 
ATOM      2  C   LIG A   1      -8.050  -0.770 126.467  0.00  0.00    -0.022 C 
ATOM      3  C   LIG A   1      -7.614  -1.272 127.909  0.00  0.00    +0.021 C 
ATOM      4  C   LIG A   1      -6.128  -1.131 128.235  0.00  0.00    -0.063 C 
ATOM      5  C   LIG A   1      -5.723  -1.424 129.709  0.00  0.00    -0.005 C 
ATOM      6  C   LIG A   1      -6.400  -2.780 130.250  0.00  0.00    -0.020 C 
ATOM      7  C   LIG A   1      -7.478  -2.573 131.336  0.00  0.00    +0.012 C 
ATOM      8  C   LIG A   1      -5.204  -3.720 130.704  0.00  0.00    -0.001 C 
ATOM      9  C   LIG A   1      -4.019  -3.184 129.898  0.00  0.00    +0.005 C 
ATOM     10  C   LIG A   1      -4.203  -1.682 129.928  0.00  0.00    +0.012 C 
ATOM     11  C   LIG A   1      -7.119  -3.502 129.066  0.00  0.00    +0.008 C 
ATOM     12  C   LIG A   1      -8.174  -2.624 128.402  0.00  0.00    +0.009 C 
ATOM     13  C   LIG A   1      -6.087  -0.159 130.512  0.00  0.00    +0.016 C 
ATOM     14  C   LIG A   1      -5.254  -0.693 127.288  0.00  0.00    -0.026 C 
ATOM     15  C   LIG A   1      -5.605  -0.317 125.895  0.00  0.00    +0.031 C 
ATOM     16  C   LIG A   1      -6.925  -0.915 125.381  0.00  0.00    +0.007 C 
ATOM     17  C   LIG A   1      -6.796  -2.324 124.663  0.00  0.00    -0.005 C 
ATOM     18  C   LIG A   1      -5.429  -3.027 124.860  0.00  0.00    +0.014 C 
ATOM     19  C   LIG A   1      -7.884  -3.315 125.132  0.00  0.00    +0.120 C 
ATOM     20  C   LIG A   1      -9.279  -2.710 125.215  0.00  0.00    +0.032 C 
ATOM     21  C   LIG A   1      -9.372  -1.367 125.934  0.00  0.00    +0.010 C 
ATOM     22  C   LIG A   1      -6.937  -2.087 123.133  0.00  0.00    +0.014 C 
ENDROOT
BRANCH   8  23
ATOM     23  C   LIG A   1      -4.901  -3.924 132.233  0.00  0.00    -0.008 C 
ATOM     24  C   LIG A   1      -5.264  -5.358 132.670  0.00  0.00    +0.008 C 
BRANCH  23  25
ATOM     25  C   LIG A   1      -3.457  -3.635 132.687  0.00  0.00    +0.037 C 
BRANCH  25  26
ATOM     26  C   LIG A   1      -3.240  -2.396 133.580  0.00  0.00    +0.146 C 
BRANCH  26  27
ATOM     27  O   LIG A   1      -2.142  -1.685 132.989  0.00  0.00    -0.389 OA
ATOM     28  H   LIG A   1      -2.499  -1.318 132.154  0.00  0.00    +0.210 HD
ENDBRANCH  26  27
BRANCH  26  29
ATOM     29  C   LIG A   1      -4.471  -1.464 133.665  0.00  0.00    +0.174 C 
BRANCH  29  30
ATOM     30  C   LIG A   1      -5.225  -1.490 135.030  0.00  0.00    +0.089 C 
ATOM     31  C   LIG A   1      -6.577  -2.211 134.986  0.00  0.00    +0.044 C 
ATOM     32  C   LIG A   1      -4.341  -2.181 136.079  0.00  0.00    +0.044 C 
BRANCH  30  33
ATOM     33  O   LIG A   1      -5.416  -0.150 135.500  0.00  0.00    -0.387 OA
ATOM     34  H   LIG A   1      -5.579   0.422 134.727  0.00  0.00    +0.210 HD
ENDBRANCH  30  33
ENDBRANCH  29  30
BRANCH  29  35
ATOM     35  O   LIG A   1      -4.030  -0.132 133.353  0.00  0.00    -0.386 OA
ATOM     36  H   LIG A   1      -3.110  -0.201 133.039  0.00  0.00    +0.210 HD
ENDBRANCH  29  35
ENDBRANCH  26  29
ENDBRANCH  25  26
ENDBRANCH  23  25
ENDBRANCH   8  23
BRANCH  19  37
ATOM     37  O   LIG A   1      -7.947  -4.463 124.280  0.00  0.00    -0.391 OA
ATOM     38  H   LIG A   1      -7.923  -5.249 124.852  0.00  0.00    +0.210 HD
ENDBRANCH  19  37
TORSDOF 9
ENDMDL
MODEL 8
REMARK VINA RESULT:      -7.4      3.822      6.443
REMARK  Name = NuBBE_1121
REMARK  17 active torsions:
REMARK  status: ('A' for Active; 'I' for Inactive)
REMARK    1  A    between atoms: C_1  and  C_2
REMARK    2  A    between atoms: C_6  and  C_29
REMARK    3  A    between atoms: C_7  and  C_8
REMARK    4  A    between atoms: C_9  and  C_11
REMARK    5  A    between atoms: C_11  and  C_13
REMARK    6  A    between atoms: C_11  and  C_14
REMARK    7  A    between atoms: C_14  and  C_15
REMARK    8  A    between atoms: C_15  and  O_17
REMARK    9  A    between atoms: C_15  and  C_18
REMARK   10  A    between atoms: C_18  and  O_20
REMARK   11  A    between atoms: C_18  and  C_21
REMARK   12  A    between atoms: C_21  and  O_22
REMARK   13  A    between atoms: C_21  and  C_23
REMARK   14  A    between atoms: C_21  and  C_24
REMARK   15  A    between atoms: C_34  and  C_35
REMARK   16  A    between atoms: C_34  and  C_41
REMARK   17  A    between atoms: C_36  and  O_40
REMARK                            x       y       z     vdW  Elec       q    Type
REMARK                         _______ _______ _______ _____ _____    ______ ____
ROOT
ATOM      1  C   LIG A   1      -5.988  -0.827 134.737  0.00  0.00    +0.012 C 
ATOM      2  C   LIG A   1      -5.148  -1.792 133.822  0.00  0.00    -0.022 C 
ATOM      3  C   LIG A   1      -5.474  -1.342 132.334  0.00  0.00    +0.021 C 
ATOM      4  C   LIG A   1      -6.709  -1.986 131.707  0.00  0.00    -0.063 C 
ATOM      5  C   LIG A   1      -7.158  -1.404 130.335  0.00  0.00    -0.005 C 
ATOM      6  C   LIG A   1      -5.914  -1.227 129.331  0.00  0.00    -0.020 C 
ATOM      7  C   LIG A   1      -5.537   0.239 129.025  0.00  0.00    +0.012 C 
ATOM      8  C   LIG A   1      -6.262  -2.082 128.040  0.00  0.00    -0.001 C 
ATOM      9  C   LIG A   1      -7.271  -3.106 128.567  0.00  0.00    +0.005 C 
ATOM     10  C   LIG A   1      -8.130  -2.315 129.528  0.00  0.00    +0.012 C 
ATOM     11  C   LIG A   1      -4.643  -1.871 129.972  0.00  0.00    +0.008 C 
ATOM     12  C   LIG A   1      -4.304  -1.266 131.330  0.00  0.00    +0.009 C 
ATOM     13  C   LIG A   1      -7.919  -0.101 130.652  0.00  0.00    +0.016 C 
ATOM     14  C   LIG A   1      -7.397  -2.953 132.375  0.00  0.00    -0.026 C 
ATOM     15  C   LIG A   1      -7.059  -3.479 133.722  0.00  0.00    +0.031 C 
ATOM     16  C   LIG A   1      -5.599  -3.260 134.150  0.00  0.00    +0.007 C 
ATOM     17  C   LIG A   1      -4.595  -4.426 133.759  0.00  0.00    -0.005 C 
ATOM     18  C   LIG A   1      -5.161  -5.451 132.743  0.00  0.00    +0.014 C 
ATOM     19  C   LIG A   1      -3.279  -3.881 133.164  0.00  0.00    +0.120 C 
ATOM     20  C   LIG A   1      -2.696  -2.699 133.927  0.00  0.00    +0.032 C 
ATOM     21  C   LIG A   1      -3.682  -1.584 134.266  0.00  0.00    +0.010 C 
ATOM     22  C   LIG A   1      -4.285  -5.232 135.051  0.00  0.00    +0.014 C 
ENDROOT
BRANCH   8  23
ATOM     23  C   LIG A   1      -6.710  -1.362 126.717  0.00  0.00    -0.008 C 
ATOM     24  C   LIG A   1      -5.777  -1.746 125.550  0.00  0.00    +0.008 C 
BRANCH  23  25
ATOM     25  C   LIG A   1      -8.165  -1.602 126.268  0.00  0.00    +0.037 C 
BRANCH  25  26
ATOM     26  C   LIG A   1      -8.656  -0.811 125.038  0.00  0.00    +0.146 C 
BRANCH  26  27
ATOM     27  O   LIG A   1      -9.511  -1.714 124.319  0.00  0.00    -0.389 OA
ATOM     28  H   LIG A   1      -9.326  -1.538 123.374  0.00  0.00    +0.210 HD
ENDBRANCH  26  27
BRANCH  26  29
ATOM     29  C   LIG A   1      -9.444   0.470 125.394  0.00  0.00    +0.174 C 
BRANCH  29  30
ATOM     30  C   LIG A   1      -8.581   1.764 125.506  0.00  0.00    +0.089 C 
ATOM     31  C   LIG A   1      -8.088   2.068 126.927  0.00  0.00    +0.044 C 
ATOM     32  C   LIG A   1      -7.358   1.635 124.587  0.00  0.00    +0.044 C 
BRANCH  30  33
ATOM     33  O   LIG A   1      -9.326   2.884 125.013  0.00  0.00    -0.387 OA
ATOM     34  H   LIG A   1      -9.983   3.134 125.689  0.00  0.00    +0.210 HD
ENDBRANCH  30  33
ENDBRANCH  29  30
BRANCH  29  35
ATOM     35  O   LIG A   1     -10.478   0.633 124.408  0.00  0.00    -0.386 OA
ATOM     36  H   LIG A   1     -11.193   1.146 124.825  0.00  0.00    +0.210 HD
ENDBRANCH  29  35
ENDBRANCH  26  29
ENDBRANCH  25  26
ENDBRANCH  23  25
ENDBRANCH   8  23
BRANCH  19  37
ATOM     37  O   LIG A   1      -2.278  -4.901 133.092  0.00  0.00    -0.391 OA
ATOM     38  H   LIG A   1      -2.734  -5.758 133.149  0.00  0.00    +0.210 HD
ENDBRANCH  19  37
TORSDOF 9
ENDMDL
MODEL 9
REMARK VINA RESULT:      -7.4      3.838      7.543
REMARK  Name = NuBBE_1121
REMARK  17 active torsions:
REMARK  status: ('A' for Active; 'I' for Inactive)
REMARK    1  A    between atoms: C_1  and  C_2
REMARK    2  A    between atoms: C_6  and  C_29
REMARK    3  A    between atoms: C_7  and  C_8
REMARK    4  A    between atoms: C_9  and  C_11
REMARK    5  A    between atoms: C_11  and  C_13
REMARK    6  A    between atoms: C_11  and  C_14
REMARK    7  A    between atoms: C_14  and  C_15
REMARK    8  A    between atoms: C_15  and  O_17
REMARK    9  A    between atoms: C_15  and  C_18
REMARK   10  A    between atoms: C_18  and  O_20
REMARK   11  A    between atoms: C_18  and  C_21
REMARK   12  A    between atoms: C_21  and  O_22
REMARK   13  A    between atoms: C_21  and  C_23
REMARK   14  A    between atoms: C_21  and  C_24
REMARK   15  A    between atoms: C_34  and  C_35
REMARK   16  A    between atoms: C_34  and  C_41
REMARK   17  A    between atoms: C_36  and  O_40
REMARK                            x       y       z     vdW  Elec       q    Type
REMARK                         _______ _______ _______ _____ _____    ______ ____
ROOT
ATOM      1  C   LIG A   1      -3.897   7.474 129.337  0.00  0.00    +0.012 C 
ATOM      2  C   LIG A   1      -3.726   6.176 130.211  0.00  0.00    -0.022 C 
ATOM      3  C   LIG A   1      -4.139   4.976 129.256  0.00  0.00    +0.021 C 
ATOM      4  C   LIG A   1      -5.629   4.640 129.229  0.00  0.00    -0.063 C 
ATOM      5  C   LIG A   1      -6.075   3.610 128.150  0.00  0.00    -0.005 C 
ATOM      6  C   LIG A   1      -5.100   2.331 128.113  0.00  0.00    -0.020 C 
ATOM      7  C   LIG A   1      -4.233   2.219 126.840  0.00  0.00    +0.012 C 
ATOM      8  C   LIG A   1      -6.021   1.065 128.376  0.00  0.00    -0.001 C 
ATOM      9  C   LIG A   1      -7.226   1.662 129.107  0.00  0.00    +0.005 C 
ATOM     10  C   LIG A   1      -7.475   2.974 128.395  0.00  0.00    +0.012 C 
ATOM     11  C   LIG A   1      -4.097   2.417 129.308  0.00  0.00    +0.008 C 
ATOM     12  C   LIG A   1      -3.272   3.699 129.285  0.00  0.00    +0.009 C 
ATOM     13  C   LIG A   1      -6.161   4.392 126.823  0.00  0.00    +0.016 C 
ATOM     14  C   LIG A   1      -6.496   5.282 130.059  0.00  0.00    -0.026 C 
ATOM     15  C   LIG A   1      -6.133   6.332 131.043  0.00  0.00    +0.031 C 
ATOM     16  C   LIG A   1      -4.655   6.332 131.467  0.00  0.00    +0.007 C 
ATOM     17  C   LIG A   1      -4.313   5.435 132.731  0.00  0.00    -0.005 C 
ATOM     18  C   LIG A   1      -5.440   4.458 133.154  0.00  0.00    +0.014 C 
ATOM     19  C   LIG A   1      -3.041   4.587 132.512  0.00  0.00    +0.120 C 
ATOM     20  C   LIG A   1      -1.887   5.353 131.880  0.00  0.00    +0.032 C 
ATOM     21  C   LIG A   1      -2.245   6.186 130.652  0.00  0.00    +0.010 C 
ATOM     22  C   LIG A   1      -4.099   6.388 133.940  0.00  0.00    +0.014 C 
ENDROOT
BRANCH   8  23
ATOM     23  C   LIG A   1      -6.399   0.108 127.188  0.00  0.00    -0.008 C 
ATOM     24  C   LIG A   1      -5.559  -1.184 127.246  0.00  0.00    +0.008 C 
BRANCH  23  25
ATOM     25  C   LIG A   1      -7.885  -0.289 127.078  0.00  0.00    +0.037 C 
BRANCH  25  26
ATOM     26  C   LIG A   1      -8.536  -0.179 125.684  0.00  0.00    +0.146 C 
BRANCH  26  27
ATOM     27  O   LIG A   1      -9.403  -1.320 125.576  0.00  0.00    -0.389 OA
ATOM     28  H   LIG A   1      -9.684  -1.510 126.494  0.00  0.00    +0.210 HD
ENDBRANCH  26  27
BRANCH  26  29
ATOM     29  C   LIG A   1      -9.359   1.114 125.480  0.00  0.00    +0.174 C 
BRANCH  29  30
ATOM     30  C   LIG A   1      -8.751   2.128 124.463  0.00  0.00    +0.089 C 
ATOM     31  C   LIG A   1      -7.233   2.002 124.285  0.00  0.00    +0.044 C 
ATOM     32  C   LIG A   1      -9.418   1.927 123.094  0.00  0.00    +0.044 C 
BRANCH  30  33
ATOM     33  O   LIG A   1      -9.073   3.465 124.864  0.00  0.00    -0.387 OA
ATOM     34  H   LIG A   1      -8.440   4.071 124.436  0.00  0.00    +0.210 HD
ENDBRANCH  30  33
ENDBRANCH  29  30
BRANCH  29  35
ATOM     35  O   LIG A   1     -10.685   0.727 125.081  0.00  0.00    -0.386 OA
ATOM     36  H   LIG A   1     -11.302   1.103 125.734  0.00  0.00    +0.210 HD
ENDBRANCH  29  35
ENDBRANCH  26  29
ENDBRANCH  25  26
ENDBRANCH  23  25
ENDBRANCH   8  23
BRANCH  19  37
ATOM     37  O   LIG A   1      -2.577   4.016 133.740  0.00  0.00    -0.391 OA
ATOM     38  H   LIG A   1      -1.700   3.634 133.567  0.00  0.00    +0.210 HD
ENDBRANCH  19  37
TORSDOF 9
ENDMDL
