MODEL 1
REMARK VINA RESULT:      -6.2      0.000      0.000
REMARK  Name = NuBBE_909
REMARK  8 active torsions:
REMARK  status: ('A' for Active; 'I' for Inactive)
REMARK    1  A    between atoms: S_1  and  C_2
REMARK    2  A    between atoms: S_1  and  C_3
REMARK    3  A    between atoms: C_11  and  O_13
REMARK    4  A    between atoms: C_17  and  C_22
REMARK    5  A    between atoms: C_17  and  S_24
REMARK    6  A    between atoms: N_18  and  C_21
REMARK    7  A    between atoms: C_22  and  O_23
REMARK    8  A    between atoms: S_24  and  C_25
REMARK                            x       y       z     vdW  Elec       q    Type
REMARK                         _______ _______ _______ _____ _____    ______ ____
ROOT
ATOM      1  C   LIG A   1      -6.503   3.022 124.749  0.00  0.00    +0.164 C 
ATOM      2  N   LIG A   1      -7.162   2.777 123.472  0.00  0.00    -0.266 N 
ATOM      3  C   LIG A   1      -6.877   3.847 122.532  0.00  0.00    +0.137 C 
ATOM      4  C   LIG A   1      -5.473   4.214 122.960  0.00  0.00    -0.043 C 
ATOM      5  C   LIG A   1      -4.588   4.742 122.100  0.00  0.00    +0.001 C 
ATOM      6  C   LIG A   1      -4.977   4.980 120.727  0.00  0.00    -0.002 C 
ATOM      7  C   LIG A   1      -6.055   4.376 120.198  0.00  0.00    +0.006 C 
ATOM      8  C   LIG A   1      -6.963   3.495 121.018  0.00  0.00    +0.162 C 
ATOM      9  C   LIG A   1      -5.182   3.699 124.347  0.00  0.00    +0.079 C 
ATOM     10  C   LIG A   1      -8.270   1.960 123.401  0.00  0.00    +0.254 C 
ATOM     11  O   LIG A   1      -9.129   2.123 122.537  0.00  0.00    -0.272 OA
ATOM     12  C   LIG A   1      -8.139   0.643 124.258  0.00  0.00    +0.183 C 
ATOM     13  N   LIG A   1      -7.453   0.886 125.564  0.00  0.00    -0.278 N 
ATOM     14  C   LIG A   1      -6.326   1.733 125.593  0.00  0.00    +0.251 C 
ATOM     15  O   LIG A   1      -5.417   1.620 126.412  0.00  0.00    -0.272 OA
ATOM     16  C   LIG A   1      -7.536  -0.133 126.602  0.00  0.00    +0.134 C 
ENDROOT
BRANCH   1  17
ATOM     17  S   LIG A   1      -7.599   4.191 125.740  0.00  0.00    -0.129 S 
ATOM     18  C   LIG A   1      -6.756   4.171 127.347  0.00  0.00    +0.087 C 
ENDBRANCH   1  17
BRANCH   8  19
ATOM     19  O   LIG A   1      -8.290   3.696 120.530  0.00  0.00    -0.386 OA
ATOM     20  H   LIG A   1      -8.546   2.849 120.102  0.00  0.00    +0.210 HD
ENDBRANCH   8  19
BRANCH  12  21
ATOM     21  S   LIG A   1      -6.989  -0.504 123.274  0.00  0.00    -0.127 S 
ATOM     22  C   LIG A   1      -8.079  -1.901 122.906  0.00  0.00    +0.087 C 
ENDBRANCH  12  21
BRANCH  12  23
ATOM     23  C   LIG A   1      -9.580   0.066 124.396  0.00  0.00    +0.202 C 
BRANCH  23  24
ATOM     24  O   LIG A   1     -10.595   1.054 124.596  0.00  0.00    -0.392 OA
ATOM     25  H   LIG A   1     -10.151   1.920 124.624  0.00  0.00    +0.209 HD
ENDBRANCH  23  24
ENDBRANCH  12  23
TORSDOF 5
ENDMDL
MODEL 2
REMARK VINA RESULT:      -6.2      2.546      5.520
REMARK  Name = NuBBE_909
REMARK  8 active torsions:
REMARK  status: ('A' for Active; 'I' for Inactive)
REMARK    1  A    between atoms: S_1  and  C_2
REMARK    2  A    between atoms: S_1  and  C_3
REMARK    3  A    between atoms: C_11  and  O_13
REMARK    4  A    between atoms: C_17  and  C_22
REMARK    5  A    between atoms: C_17  and  S_24
REMARK    6  A    between atoms: N_18  and  C_21
REMARK    7  A    between atoms: C_22  and  O_23
REMARK    8  A    between atoms: S_24  and  C_25
REMARK                            x       y       z     vdW  Elec       q    Type
REMARK                         _______ _______ _______ _____ _____    ______ ____
ROOT
ATOM      1  C   LIG A   1      -7.339   0.760 126.609  0.00  0.00    +0.164 C 
ATOM      2  N   LIG A   1      -7.556   0.038 125.362  0.00  0.00    -0.266 N 
ATOM      3  C   LIG A   1      -7.363  -1.389 125.553  0.00  0.00    +0.137 C 
ATOM      4  C   LIG A   1      -7.853  -1.538 126.978  0.00  0.00    -0.043 C 
ATOM      5  C   LIG A   1      -8.380  -2.688 127.426  0.00  0.00    +0.001 C 
ATOM      6  C   LIG A   1      -8.479  -3.826 126.538  0.00  0.00    -0.002 C 
ATOM      7  C   LIG A   1      -8.395  -3.674 125.206  0.00  0.00    +0.006 C 
ATOM      8  C   LIG A   1      -8.107  -2.338 124.568  0.00  0.00    +0.162 C 
ATOM      9  C   LIG A   1      -7.874  -0.205 127.681  0.00  0.00    +0.079 C 
ATOM     10  C   LIG A   1      -7.427   0.679 124.149  0.00  0.00    +0.254 C 
ATOM     11  O   LIG A   1      -7.089   0.069 123.137  0.00  0.00    -0.272 OA
ATOM     12  C   LIG A   1      -8.083   2.112 124.120  0.00  0.00    +0.183 C 
ATOM     13  N   LIG A   1      -7.873   2.854 125.401  0.00  0.00    -0.278 N 
ATOM     14  C   LIG A   1      -8.009   2.158 126.620  0.00  0.00    +0.251 C 
ATOM     15  O   LIG A   1      -8.363   2.694 127.668  0.00  0.00    -0.272 OA
ATOM     16  C   LIG A   1      -8.123   4.289 125.432  0.00  0.00    +0.134 C 
ENDROOT
BRANCH   1  17
ATOM     17  S   LIG A   1      -5.483   1.031 126.793  0.00  0.00    -0.129 S 
ATOM     18  C   LIG A   1      -5.296   0.901 128.594  0.00  0.00    +0.087 C 
ENDBRANCH   1  17
BRANCH   8  19
ATOM     19  O   LIG A   1      -7.306  -2.593 123.414  0.00  0.00    -0.386 OA
ATOM     20  H   LIG A   1      -7.410  -3.551 123.224  0.00  0.00    +0.210 HD
ENDBRANCH   8  19
BRANCH  12  21
ATOM     21  S   LIG A   1      -9.955   1.825 123.989  0.00  0.00    -0.127 S 
ATOM     22  C   LIG A   1     -10.057   0.636 122.628  0.00  0.00    +0.087 C 
ENDBRANCH  12  21
BRANCH  12  23
ATOM     23  C   LIG A   1      -7.502   2.835 122.867  0.00  0.00    +0.202 C 
BRANCH  23  24
ATOM     24  O   LIG A   1      -8.452   3.626 122.148  0.00  0.00    -0.392 OA
ATOM     25  H   LIG A   1      -9.296   3.139 122.156  0.00  0.00    +0.209 HD
ENDBRANCH  23  24
ENDBRANCH  12  23
TORSDOF 5
ENDMDL
MODEL 3
REMARK VINA RESULT:      -6.2      2.791      5.588
REMARK  Name = NuBBE_909
REMARK  8 active torsions:
REMARK  status: ('A' for Active; 'I' for Inactive)
REMARK    1  A    between atoms: S_1  and  C_2
REMARK    2  A    between atoms: S_1  and  C_3
REMARK    3  A    between atoms: C_11  and  O_13
REMARK    4  A    between atoms: C_17  and  C_22
REMARK    5  A    between atoms: C_17  and  S_24
REMARK    6  A    between atoms: N_18  and  C_21
REMARK    7  A    between atoms: C_22  and  O_23
REMARK    8  A    between atoms: S_24  and  C_25
REMARK                            x       y       z     vdW  Elec       q    Type
REMARK                         _______ _______ _______ _____ _____    ______ ____
ROOT
ATOM      1  C   LIG A   1      -7.891   1.210 124.268  0.00  0.00    +0.164 C 
ATOM      2  N   LIG A   1      -7.308   0.455 125.371  0.00  0.00    -0.266 N 
ATOM      3  C   LIG A   1      -7.155  -0.944 125.013  0.00  0.00    +0.137 C 
ATOM      4  C   LIG A   1      -6.867  -0.814 123.533  0.00  0.00    -0.043 C 
ATOM      5  C   LIG A   1      -6.138  -1.727 122.873  0.00  0.00    +0.001 C 
ATOM      6  C   LIG A   1      -5.616  -2.876 123.580  0.00  0.00    -0.002 C 
ATOM      7  C   LIG A   1      -5.532  -2.883 124.922  0.00  0.00    +0.006 C 
ATOM      8  C   LIG A   1      -6.052  -1.746 125.764  0.00  0.00    +0.162 C 
ATOM      9  C   LIG A   1      -7.297   0.537 123.019  0.00  0.00    +0.079 C 
ATOM     10  C   LIG A   1      -7.411   0.916 126.666  0.00  0.00    +0.254 C 
ATOM     11  O   LIG A   1      -7.422   0.140 127.619  0.00  0.00    -0.272 OA
ATOM     12  C   LIG A   1      -7.148   2.463 126.808  0.00  0.00    +0.183 C 
ATOM     13  N   LIG A   1      -7.734   3.241 125.674  0.00  0.00    -0.278 N 
ATOM     14  C   LIG A   1      -7.611   2.731 124.365  0.00  0.00    +0.251 C 
ATOM     15  O   LIG A   1      -7.571   3.444 123.364  0.00  0.00    -0.272 OA
ATOM     16  C   LIG A   1      -7.867   4.686 125.807  0.00  0.00    +0.134 C 
ENDROOT
BRANCH   1  17
ATOM     17  S   LIG A   1      -9.760   0.980 124.348  0.00  0.00    -0.129 S 
ATOM     18  C   LIG A   1     -10.149   0.732 122.592  0.00  0.00    +0.087 C 
ENDBRANCH   1  17
BRANCH   8  19
ATOM     19  O   LIG A   1      -6.575  -2.321 126.962  0.00  0.00    -0.386 OA
ATOM     20  H   LIG A   1      -7.258  -1.691 127.282  0.00  0.00    +0.210 HD
ENDBRANCH   8  19
BRANCH  12  21
ATOM     21  S   LIG A   1      -5.267   2.686 126.672  0.00  0.00    -0.127 S 
ATOM     22  C   LIG A   1      -4.926   3.831 128.031  0.00  0.00    +0.087 C 
ENDBRANCH  12  21
BRANCH  12  23
ATOM     23  C   LIG A   1      -7.696   2.873 128.209  0.00  0.00    +0.202 C 
BRANCH  23  24
ATOM     24  O   LIG A   1      -9.030   2.429 128.473  0.00  0.00    -0.392 OA
ATOM     25  H   LIG A   1      -8.978   1.777 129.194  0.00  0.00    +0.209 HD
ENDBRANCH  23  24
ENDBRANCH  12  23
TORSDOF 5
ENDMDL
MODEL 4
REMARK VINA RESULT:      -5.9      1.942      2.668
REMARK  Name = NuBBE_909
REMARK  8 active torsions:
REMARK  status: ('A' for Active; 'I' for Inactive)
REMARK    1  A    between atoms: S_1  and  C_2
REMARK    2  A    between atoms: S_1  and  C_3
REMARK    3  A    between atoms: C_11  and  O_13
REMARK    4  A    between atoms: C_17  and  C_22
REMARK    5  A    between atoms: C_17  and  S_24
REMARK    6  A    between atoms: N_18  and  C_21
REMARK    7  A    between atoms: C_22  and  O_23
REMARK    8  A    between atoms: S_24  and  C_25
REMARK                            x       y       z     vdW  Elec       q    Type
REMARK                         _______ _______ _______ _____ _____    ______ ____
ROOT
ATOM      1  C   LIG A   1      -6.702   1.210 126.757  0.00  0.00    +0.164 C 
ATOM      2  N   LIG A   1      -7.083   1.101 125.353  0.00  0.00    -0.266 N 
ATOM      3  C   LIG A   1      -7.061   2.404 124.711  0.00  0.00    +0.137 C 
ATOM      4  C   LIG A   1      -5.923   3.057 125.466  0.00  0.00    -0.043 C 
ATOM      5  C   LIG A   1      -5.170   4.019 124.912  0.00  0.00    +0.001 C 
ATOM      6  C   LIG A   1      -5.448   4.461 123.562  0.00  0.00    -0.002 C 
ATOM      7  C   LIG A   1      -6.189   3.711 122.728  0.00  0.00    +0.006 C 
ATOM      8  C   LIG A   1      -6.841   2.426 123.171  0.00  0.00    +0.162 C 
ATOM      9  C   LIG A   1      -5.646   2.328 126.756  0.00  0.00    +0.079 C 
ATOM     10  C   LIG A   1      -7.835   0.034 124.912  0.00  0.00    +0.254 C 
ATOM     11  O   LIG A   1      -8.588   0.140 123.946  0.00  0.00    -0.272 OA
ATOM     12  C   LIG A   1      -7.375  -1.352 125.506  0.00  0.00    +0.183 C 
ATOM     13  N   LIG A   1      -6.972  -1.244 126.942  0.00  0.00    -0.278 N 
ATOM     14  C   LIG A   1      -6.207  -0.133 127.352  0.00  0.00    +0.251 C 
ATOM     15  O   LIG A   1      -5.418  -0.167 128.294  0.00  0.00    -0.272 OA
ATOM     16  C   LIG A   1      -6.834  -2.463 127.727  0.00  0.00    +0.134 C 
ENDROOT
BRANCH   1  17
ATOM     17  S   LIG A   1      -8.238   1.716 127.723  0.00  0.00    -0.129 S 
ATOM     18  C   LIG A   1      -7.515   2.843 128.948  0.00  0.00    +0.087 C 
ENDBRANCH   1  17
BRANCH   8  19
ATOM     19  O   LIG A   1      -8.089   2.335 122.483  0.00  0.00    -0.386 OA
ATOM     20  H   LIG A   1      -8.611   1.659 122.968  0.00  0.00    +0.210 HD
ENDBRANCH   8  19
BRANCH  12  21
ATOM     21  S   LIG A   1      -5.798  -1.824 124.560  0.00  0.00    -0.127 S 
ATOM     22  C   LIG A   1      -6.123  -3.550 124.127  0.00  0.00    +0.087 C 
ENDBRANCH  12  21
BRANCH  12  23
ATOM     23  C   LIG A   1      -8.545  -2.349 125.248  0.00  0.00    +0.202 C 
BRANCH  23  24
ATOM     24  O   LIG A   1      -9.829  -1.870 125.657  0.00  0.00    -0.392 OA
ATOM     25  H   LIG A   1     -10.305  -2.623 126.051  0.00  0.00    +0.209 HD
ENDBRANCH  23  24
ENDBRANCH  12  23
TORSDOF 5
ENDMDL
MODEL 5
REMARK VINA RESULT:      -5.9      5.599      7.978
REMARK  Name = NuBBE_909
REMARK  8 active torsions:
REMARK  status: ('A' for Active; 'I' for Inactive)
REMARK    1  A    between atoms: S_1  and  C_2
REMARK    2  A    between atoms: S_1  and  C_3
REMARK    3  A    between atoms: C_11  and  O_13
REMARK    4  A    between atoms: C_17  and  C_22
REMARK    5  A    between atoms: C_17  and  S_24
REMARK    6  A    between atoms: N_18  and  C_21
REMARK    7  A    between atoms: C_22  and  O_23
REMARK    8  A    between atoms: S_24  and  C_25
REMARK                            x       y       z     vdW  Elec       q    Type
REMARK                         _______ _______ _______ _____ _____    ______ ____
ROOT
ATOM      1  C   LIG A   1      -6.815  -2.330 129.858  0.00  0.00    +0.164 C 
ATOM      2  N   LIG A   1      -6.855  -1.432 128.710  0.00  0.00    -0.266 N 
ATOM      3  C   LIG A   1      -7.243  -2.150 127.509  0.00  0.00    +0.137 C 
ATOM      4  C   LIG A   1      -8.185  -3.176 128.101  0.00  0.00    -0.043 C 
ATOM      5  C   LIG A   1      -9.192  -3.703 127.388  0.00  0.00    +0.001 C 
ATOM      6  C   LIG A   1      -9.389  -3.296 126.014  0.00  0.00    -0.002 C 
ATOM      7  C   LIG A   1      -8.833  -2.168 125.540  0.00  0.00    +0.006 C 
ATOM      8  C   LIG A   1      -7.911  -1.317 126.376  0.00  0.00    +0.162 C 
ATOM      9  C   LIG A   1      -7.966  -3.313 129.586  0.00  0.00    +0.079 C 
ATOM     10  C   LIG A   1      -6.129  -0.261 128.711  0.00  0.00    +0.254 C 
ATOM     11  O   LIG A   1      -5.718   0.235 127.664  0.00  0.00    -0.272 OA
ATOM     12  C   LIG A   1      -6.199   0.526 130.075  0.00  0.00    +0.183 C 
ATOM     13  N   LIG A   1      -6.169  -0.391 131.256  0.00  0.00    -0.278 N 
ATOM     14  C   LIG A   1      -6.923  -1.582 131.212  0.00  0.00    +0.251 C 
ATOM     15  O   LIG A   1      -7.386  -2.125 132.213  0.00  0.00    -0.272 OA
ATOM     16  C   LIG A   1      -5.901   0.169 132.574  0.00  0.00    +0.134 C 
ENDROOT
BRANCH   1  17
ATOM     17  S   LIG A   1      -5.146  -3.204 129.837  0.00  0.00    -0.129 S 
ATOM     18  C   LIG A   1      -5.567  -4.765 130.661  0.00  0.00    +0.087 C 
ENDBRANCH   1  17
BRANCH   8  19
ATOM     19  O   LIG A   1      -6.922  -0.786 125.493  0.00  0.00    -0.386 OA
ATOM     20  H   LIG A   1      -7.209  -1.040 124.588  0.00  0.00    +0.210 HD
ENDBRANCH   8  19
BRANCH  12  21
ATOM     21  S   LIG A   1      -7.906   1.357 130.108  0.00  0.00    -0.127 S 
ATOM     22  C   LIG A   1      -7.497   3.030 130.663  0.00  0.00    +0.087 C 
ENDBRANCH  12  21
BRANCH  12  23
ATOM     23  C   LIG A   1      -5.033   1.560 130.045  0.00  0.00    +0.202 C 
BRANCH  23  24
ATOM     24  O   LIG A   1      -3.823   1.067 129.464  0.00  0.00    -0.392 OA
ATOM     25  H   LIG A   1      -3.539   0.303 129.996  0.00  0.00    +0.209 HD
ENDBRANCH  23  24
ENDBRANCH  12  23
TORSDOF 5
ENDMDL
MODEL 6
REMARK VINA RESULT:      -5.9      2.329      6.267
REMARK  Name = NuBBE_909
REMARK  8 active torsions:
REMARK  status: ('A' for Active; 'I' for Inactive)
REMARK    1  A    between atoms: S_1  and  C_2
REMARK    2  A    between atoms: S_1  and  C_3
REMARK    3  A    between atoms: C_11  and  O_13
REMARK    4  A    between atoms: C_17  and  C_22
REMARK    5  A    between atoms: C_17  and  S_24
REMARK    6  A    between atoms: N_18  and  C_21
REMARK    7  A    between atoms: C_22  and  O_23
REMARK    8  A    between atoms: S_24  and  C_25
REMARK                            x       y       z     vdW  Elec       q    Type
REMARK                         _______ _______ _______ _____ _____    ______ ____
ROOT
ATOM      1  C   LIG A   1      -8.034   0.790 124.884  0.00  0.00    +0.164 C 
ATOM      2  N   LIG A   1      -7.881   1.337 126.227  0.00  0.00    -0.266 N 
ATOM      3  C   LIG A   1      -8.344   0.388 127.225  0.00  0.00    +0.137 C 
ATOM      4  C   LIG A   1      -7.974  -0.915 126.549  0.00  0.00    -0.043 C 
ATOM      5  C   LIG A   1      -7.695  -2.021 127.255  0.00  0.00    +0.001 C 
ATOM      6  C   LIG A   1      -7.755  -1.985 128.701  0.00  0.00    -0.002 C 
ATOM      7  C   LIG A   1      -7.732  -0.816 129.365  0.00  0.00    +0.006 C 
ATOM      8  C   LIG A   1      -7.732   0.511 128.651  0.00  0.00    +0.162 C 
ATOM      9  C   LIG A   1      -7.750  -0.709 125.073  0.00  0.00    +0.079 C 
ATOM     10  C   LIG A   1      -7.818   2.699 126.426  0.00  0.00    +0.254 C 
ATOM     11  O   LIG A   1      -8.203   3.209 127.477  0.00  0.00    -0.272 OA
ATOM     12  C   LIG A   1      -6.910   3.449 125.379  0.00  0.00    +0.183 C 
ATOM     13  N   LIG A   1      -7.053   2.885 124.001  0.00  0.00    -0.278 N 
ATOM     14  C   LIG A   1      -7.120   1.486 123.843  0.00  0.00    +0.251 C 
ATOM     15  O   LIG A   1      -6.735   0.901 122.832  0.00  0.00    -0.272 OA
ATOM     16  C   LIG A   1      -6.546   3.651 122.871  0.00  0.00    +0.134 C 
ENDROOT
BRANCH   1  17
ATOM     17  S   LIG A   1      -9.816   1.089 124.349  0.00  0.00    -0.129 S 
ATOM     18  C   LIG A   1      -9.873   0.138 122.804  0.00  0.00    +0.087 C 
ENDBRANCH   1  17
BRANCH   8  19
ATOM     19  O   LIG A   1      -8.497   1.414 129.451  0.00  0.00    -0.386 OA
ATOM     20  H   LIG A   1      -8.229   1.238 130.379  0.00  0.00    +0.210 HD
ENDBRANCH   8  19
BRANCH  12  21
ATOM     21  S   LIG A   1      -5.118   3.095 125.898  0.00  0.00    -0.127 S 
ATOM     22  C   LIG A   1      -4.656   4.638 126.723  0.00  0.00    +0.087 C 
ENDBRANCH  12  21
BRANCH  12  23
ATOM     23  C   LIG A   1      -7.273   4.961 125.487  0.00  0.00    +0.202 C 
BRANCH  23  24
ATOM     24  O   LIG A   1      -8.678   5.231 125.490  0.00  0.00    -0.392 OA
ATOM     25  H   LIG A   1      -9.038   4.870 126.320  0.00  0.00    +0.209 HD
ENDBRANCH  23  24
ENDBRANCH  12  23
TORSDOF 5
ENDMDL
MODEL 7
REMARK VINA RESULT:      -5.9      4.506      6.880
REMARK  Name = NuBBE_909
REMARK  8 active torsions:
REMARK  status: ('A' for Active; 'I' for Inactive)
REMARK    1  A    between atoms: S_1  and  C_2
REMARK    2  A    between atoms: S_1  and  C_3
REMARK    3  A    between atoms: C_11  and  O_13
REMARK    4  A    between atoms: C_17  and  C_22
REMARK    5  A    between atoms: C_17  and  S_24
REMARK    6  A    between atoms: N_18  and  C_21
REMARK    7  A    between atoms: C_22  and  O_23
REMARK    8  A    between atoms: S_24  and  C_25
REMARK                            x       y       z     vdW  Elec       q    Type
REMARK                         _______ _______ _______ _____ _____    ______ ____
ROOT
ATOM      1  C   LIG A   1      -7.047  -1.685 128.565  0.00  0.00    +0.164 C 
ATOM      2  N   LIG A   1      -6.695  -1.125 127.266  0.00  0.00    -0.266 N 
ATOM      3  C   LIG A   1      -6.803  -2.131 126.225  0.00  0.00    +0.137 C 
ATOM      4  C   LIG A   1      -7.957  -2.950 126.762  0.00  0.00    -0.043 C 
ATOM      5  C   LIG A   1      -8.776  -3.634 125.947  0.00  0.00    +0.001 C 
ATOM      6  C   LIG A   1      -8.555  -3.605 124.517  0.00  0.00    -0.002 C 
ATOM      7  C   LIG A   1      -7.793  -2.651 123.955  0.00  0.00    +0.006 C 
ATOM      8  C   LIG A   1      -7.061  -1.621 124.777  0.00  0.00    +0.162 C 
ATOM      9  C   LIG A   1      -8.163  -2.689 128.232  0.00  0.00    +0.079 C 
ATOM     10  C   LIG A   1      -5.895  -0.006 127.180  0.00  0.00    +0.254 C 
ATOM     11  O   LIG A   1      -5.172   0.188 126.204  0.00  0.00    -0.272 OA
ATOM     12  C   LIG A   1      -6.264   1.116 128.224  0.00  0.00    +0.183 C 
ATOM     13  N   LIG A   1      -6.638   0.547 129.555  0.00  0.00    -0.278 N 
ATOM     14  C   LIG A   1      -7.453  -0.602 129.598  0.00  0.00    +0.251 C 
ATOM     15  O   LIG A   1      -8.217  -0.854 130.528  0.00  0.00    -0.272 OA
ATOM     16  C   LIG A   1      -6.689   1.434 130.709  0.00  0.00    +0.134 C 
ENDROOT
BRANCH   1  17
ATOM     17  S   LIG A   1      -5.519  -2.556 129.242  0.00  0.00    -0.129 S 
ATOM     18  C   LIG A   1      -6.283  -3.921 130.162  0.00  0.00    +0.087 C 
ENDBRANCH   1  17
BRANCH   8  19
ATOM     19  O   LIG A   1      -5.826  -1.357 124.109  0.00  0.00    -0.386 OA
ATOM     20  H   LIG A   1      -5.736  -0.379 124.094  0.00  0.00    +0.210 HD
ENDBRANCH   8  19
BRANCH  12  21
ATOM     21  S   LIG A   1      -7.834   1.950 127.558  0.00  0.00    -0.127 S 
ATOM     22  C   LIG A   1      -7.308   3.674 127.407  0.00  0.00    +0.087 C 
ENDBRANCH  12  21
BRANCH  12  23
ATOM     23  C   LIG A   1      -5.047   2.089 128.269  0.00  0.00    +0.202 C 
BRANCH  23  24
ATOM     24  O   LIG A   1      -3.801   1.461 128.582  0.00  0.00    -0.392 OA
ATOM     25  H   LIG A   1      -3.865   0.534 128.292  0.00  0.00    +0.209 HD
ENDBRANCH  23  24
ENDBRANCH  12  23
TORSDOF 5
ENDMDL
MODEL 8
REMARK VINA RESULT:      -5.7      4.058      7.192
REMARK  Name = NuBBE_909
REMARK  8 active torsions:
REMARK  status: ('A' for Active; 'I' for Inactive)
REMARK    1  A    between atoms: S_1  and  C_2
REMARK    2  A    between atoms: S_1  and  C_3
REMARK    3  A    between atoms: C_11  and  O_13
REMARK    4  A    between atoms: C_17  and  C_22
REMARK    5  A    between atoms: C_17  and  S_24
REMARK    6  A    between atoms: N_18  and  C_21
REMARK    7  A    between atoms: C_22  and  O_23
REMARK    8  A    between atoms: S_24  and  C_25
REMARK                            x       y       z     vdW  Elec       q    Type
REMARK                         _______ _______ _______ _____ _____    ______ ____
ROOT
ATOM      1  C   LIG A   1      -6.322  -0.535 129.446  0.00  0.00    +0.164 C 
ATOM      2  N   LIG A   1      -6.549  -0.725 128.018  0.00  0.00    -0.266 N 
ATOM      3  C   LIG A   1      -6.917  -2.101 127.735  0.00  0.00    +0.137 C 
ATOM      4  C   LIG A   1      -7.681  -2.441 128.997  0.00  0.00    -0.043 C 
ATOM      5  C   LIG A   1      -8.656  -3.363 129.005  0.00  0.00    +0.001 C 
ATOM      6  C   LIG A   1      -8.990  -4.065 127.784  0.00  0.00    -0.002 C 
ATOM      7  C   LIG A   1      -8.613  -3.587 126.586  0.00  0.00    +0.006 C 
ATOM      8  C   LIG A   1      -7.756  -2.355 126.448  0.00  0.00    +0.162 C 
ATOM      9  C   LIG A   1      -7.353  -1.469 130.101  0.00  0.00    +0.079 C 
ATOM     10  C   LIG A   1      -5.979   0.128 127.098  0.00  0.00    +0.254 C 
ATOM     11  O   LIG A   1      -5.702  -0.251 125.963  0.00  0.00    -0.272 OA
ATOM     12  C   LIG A   1      -6.063   1.648 127.510  0.00  0.00    +0.183 C 
ATOM     13  N   LIG A   1      -5.843   1.848 128.975  0.00  0.00    -0.278 N 
ATOM     14  C   LIG A   1      -6.439   0.948 129.882  0.00  0.00    +0.251 C 
ATOM     15  O   LIG A   1      -6.765   1.259 131.026  0.00  0.00    -0.272 OA
ATOM     16  C   LIG A   1      -5.565   3.191 129.467  0.00  0.00    +0.134 C 
ENDROOT
BRANCH   1  17
ATOM     17  S   LIG A   1      -4.559  -1.087 129.819  0.00  0.00    -0.129 S 
ATOM     18  C   LIG A   1      -4.796  -1.938 131.404  0.00  0.00    +0.087 C 
ENDBRANCH   1  17
BRANCH   8  19
ATOM     19  O   LIG A   1      -6.901  -2.567 125.324  0.00  0.00    -0.386 OA
ATOM     20  H   LIG A   1      -7.455  -3.017 124.650  0.00  0.00    +0.210 HD
ENDBRANCH   8  19
BRANCH  12  21
ATOM     21  S   LIG A   1      -7.857   2.177 127.180  0.00  0.00    -0.127 S 
ATOM     22  C   LIG A   1      -7.790   2.660 125.437  0.00  0.00    +0.087 C 
ENDBRANCH  12  21
BRANCH  12  23
ATOM     23  C   LIG A   1      -5.043   2.403 126.605  0.00  0.00    +0.202 C 
BRANCH  23  24
ATOM     24  O   LIG A   1      -3.739   1.819 126.572  0.00  0.00    -0.392 OA
ATOM     25  H   LIG A   1      -3.840   0.908 126.242  0.00  0.00    +0.209 HD
ENDBRANCH  23  24
ENDBRANCH  12  23
TORSDOF 5
ENDMDL
MODEL 9
REMARK VINA RESULT:      -5.7      7.600      8.427
REMARK  Name = NuBBE_909
REMARK  8 active torsions:
REMARK  status: ('A' for Active; 'I' for Inactive)
REMARK    1  A    between atoms: S_1  and  C_2
REMARK    2  A    between atoms: S_1  and  C_3
REMARK    3  A    between atoms: C_11  and  O_13
REMARK    4  A    between atoms: C_17  and  C_22
REMARK    5  A    between atoms: C_17  and  S_24
REMARK    6  A    between atoms: N_18  and  C_21
REMARK    7  A    between atoms: C_22  and  O_23
REMARK    8  A    between atoms: S_24  and  C_25
REMARK                            x       y       z     vdW  Elec       q    Type
REMARK                         _______ _______ _______ _____ _____    ______ ____
ROOT
ATOM      1  C   LIG A   1      -5.309   3.997 131.705  0.00  0.00    +0.164 C 
ATOM      2  N   LIG A   1      -5.629   5.267 131.064  0.00  0.00    -0.266 N 
ATOM      3  C   LIG A   1      -4.427   5.904 130.555  0.00  0.00    +0.137 C 
ATOM      4  C   LIG A   1      -3.617   4.684 130.172  0.00  0.00    -0.043 C 
ATOM      5  C   LIG A   1      -2.701   4.724 129.193  0.00  0.00    +0.001 C 
ATOM      6  C   LIG A   1      -2.463   5.962 128.483  0.00  0.00    -0.002 C 
ATOM      7  C   LIG A   1      -3.358   6.964 128.521  0.00  0.00    +0.006 C 
ATOM      8  C   LIG A   1      -4.604   6.894 129.368  0.00  0.00    +0.162 C 
ATOM      9  C   LIG A   1      -4.147   3.450 130.858  0.00  0.00    +0.079 C 
ATOM     10  C   LIG A   1      -6.785   5.944 131.388  0.00  0.00    +0.254 C 
ATOM     11  O   LIG A   1      -6.852   7.168 131.304  0.00  0.00    -0.272 OA
ATOM     12  C   LIG A   1      -8.050   5.011 131.509  0.00  0.00    +0.183 C 
ATOM     13  N   LIG A   1      -7.726   3.702 132.156  0.00  0.00    -0.278 N 
ATOM     14  C   LIG A   1      -6.530   3.046 131.799  0.00  0.00    +0.251 C 
ATOM     15  O   LIG A   1      -6.393   1.825 131.836  0.00  0.00    -0.272 OA
ATOM     16  C   LIG A   1      -8.817   2.866 132.636  0.00  0.00    +0.134 C 
ENDROOT
BRANCH   1  17
ATOM     17  S   LIG A   1      -4.758   4.373 133.467  0.00  0.00    -0.129 S 
ATOM     18  C   LIG A   1      -3.360   3.229 133.640  0.00  0.00    +0.087 C 
ENDBRANCH   1  17
BRANCH   8  19
ATOM     19  O   LIG A   1      -4.855   8.216 129.848  0.00  0.00    -0.386 OA
ATOM     20  H   LIG A   1      -4.976   8.127 130.819  0.00  0.00    +0.210 HD
ENDBRANCH   8  19
BRANCH  12  21
ATOM     21  S   LIG A   1      -8.562   4.596 129.729  0.00  0.00    -0.127 S 
ATOM     22  C   LIG A   1      -9.733   5.925 129.357  0.00  0.00    +0.087 C 
ENDBRANCH  12  21
BRANCH  12  23
ATOM     23  C   LIG A   1      -9.134   5.840 132.263  0.00  0.00    +0.202 C 
BRANCH  23  24
ATOM     24  O   LIG A   1      -8.785   6.183 133.607  0.00  0.00    -0.392 OA
ATOM     25  H   LIG A   1      -9.612   6.410 134.069  0.00  0.00    +0.209 HD
ENDBRANCH  23  24
ENDBRANCH  12  23
TORSDOF 5
ENDMDL
