MODEL 1
REMARK VINA RESULT:      -8.7      0.000      0.000
REMARK  Name = NuBBE_2269
REMARK  6 active torsions:
REMARK  status: ('A' for Active; 'I' for Inactive)
REMARK    1  A    between atoms: C_1  and  C_24
REMARK    2  A    between atoms: C_4  and  C_7
REMARK    3  A    between atoms: C_10  and  C_12
REMARK    4  A    between atoms: C_12  and  C_13
REMARK    5  A    between atoms: C_12  and  C_14
REMARK    6  A    between atoms: C_12  and  O_15
REMARK                            x       y       z     vdW  Elec       q    Type
REMARK                         _______ _______ _______ _____ _____    ______ ____
ROOT
ATOM      1  C   LIG A   1      -8.389  -2.904 128.278  0.00  0.00    -0.043 A 
ATOM      2  C   LIG A   1      -8.180  -2.017 127.184  0.00  0.00    -0.012 A 
ATOM      3  C   LIG A   1      -7.545  -0.759 127.378  0.00  0.00    +0.013 A 
ATOM      4  C   LIG A   1      -7.134  -0.432 128.716  0.00  0.00    -0.041 A 
ATOM      5  C   LIG A   1      -7.352  -1.327 129.777  0.00  0.00    +0.004 A 
ATOM      6  C   LIG A   1      -7.971  -2.545 129.561  0.00  0.00    +0.004 A 
ATOM      7  C   LIG A   1      -6.453   0.869 129.074  0.00  0.00    +0.044 C 
ATOM      8  C   LIG A   1      -7.349   0.093 126.246  0.00  0.00    +0.098 A 
ATOM      9  C   LIG A   1      -7.792  -0.304 124.955  0.00  0.00    +0.096 A 
ATOM     10  C   LIG A   1      -8.428  -1.533 124.773  0.00  0.00    +0.011 A 
ATOM     11  C   LIG A   1      -8.597  -2.367 125.889  0.00  0.00    +0.017 A 
ATOM     12  N   LIG A   1      -7.611   0.491 123.875  0.00  0.00    -0.243 NA
ATOM     13  C   LIG A   1      -6.999   1.674 124.034  0.00  0.00    +0.090 A 
ATOM     14  C   LIG A   1      -6.557   2.082 125.298  0.00  0.00    +0.090 A 
ATOM     15  N   LIG A   1      -6.737   1.296 126.372  0.00  0.00    -0.243 NA
ATOM     16  C   LIG A   1      -5.927   3.314 125.433  0.00  0.00    +0.030 A 
ATOM     17  C   LIG A   1      -5.727   4.151 124.334  0.00  0.00    +0.002 A 
ATOM     18  C   LIG A   1      -6.165   3.746 123.081  0.00  0.00    +0.002 A 
ATOM     19  C   LIG A   1      -6.797   2.510 122.941  0.00  0.00    +0.030 A 
ATOM     20  C   LIG A   1      -9.058  -4.248 128.116  0.00  0.00    +0.044 C 
ENDROOT
BRANCH  10  21
ATOM     21  C   LIG A   1      -8.886  -1.993 123.376  0.00  0.00    +0.087 C 
ATOM     22  C   LIG A   1      -7.671  -2.108 122.444  0.00  0.00    +0.046 C 
ATOM     23  C   LIG A   1      -9.655  -3.324 123.352  0.00  0.00    +0.046 C 
BRANCH  21  24
ATOM     24  O   LIG A   1      -9.796  -1.052 122.792  0.00  0.00    -0.384 OA
ATOM     25  H   LIG A   1      -9.906  -1.325 121.858  0.00  0.00    +0.211 HD
ENDBRANCH  21  24
ENDBRANCH  10  21
TORSDOF 2
ENDMDL
MODEL 2
REMARK VINA RESULT:      -7.9      2.091      4.734
REMARK  Name = NuBBE_2269
REMARK  6 active torsions:
REMARK  status: ('A' for Active; 'I' for Inactive)
REMARK    1  A    between atoms: C_1  and  C_24
REMARK    2  A    between atoms: C_4  and  C_7
REMARK    3  A    between atoms: C_10  and  C_12
REMARK    4  A    between atoms: C_12  and  C_13
REMARK    5  A    between atoms: C_12  and  C_14
REMARK    6  A    between atoms: C_12  and  O_15
REMARK                            x       y       z     vdW  Elec       q    Type
REMARK                         _______ _______ _______ _____ _____    ______ ____
ROOT
ATOM      1  C   LIG A   1      -8.285  -2.266 123.976  0.00  0.00    -0.043 A 
ATOM      2  C   LIG A   1      -8.260  -1.102 124.795  0.00  0.00    -0.012 A 
ATOM      3  C   LIG A   1      -8.227  -1.209 126.214  0.00  0.00    +0.013 A 
ATOM      4  C   LIG A   1      -8.224  -2.535 126.769  0.00  0.00    -0.041 A 
ATOM      5  C   LIG A   1      -8.249  -3.667 125.937  0.00  0.00    +0.004 A 
ATOM      6  C   LIG A   1      -8.278  -3.534 124.561  0.00  0.00    +0.004 A 
ATOM      7  C   LIG A   1      -8.196  -2.805 128.257  0.00  0.00    +0.044 C 
ATOM      8  C   LIG A   1      -8.193  -0.011 126.993  0.00  0.00    +0.098 A 
ATOM      9  C   LIG A   1      -8.205   1.263 126.364  0.00  0.00    +0.096 A 
ATOM     10  C   LIG A   1      -8.253   1.364 124.972  0.00  0.00    +0.011 A 
ATOM     11  C   LIG A   1      -8.266   0.180 124.219  0.00  0.00    +0.017 A 
ATOM     12  N   LIG A   1      -8.170   2.406 127.089  0.00  0.00    -0.243 NA
ATOM     13  C   LIG A   1      -8.122   2.324 128.427  0.00  0.00    +0.090 A 
ATOM     14  C   LIG A   1      -8.111   1.078 129.064  0.00  0.00    +0.090 A 
ATOM     15  N   LIG A   1      -8.146  -0.056 128.348  0.00  0.00    -0.243 NA
ATOM     16  C   LIG A   1      -8.061   1.025 130.452  0.00  0.00    +0.030 A 
ATOM     17  C   LIG A   1      -8.023   2.189 131.222  0.00  0.00    +0.002 A 
ATOM     18  C   LIG A   1      -8.034   3.424 130.590  0.00  0.00    +0.002 A 
ATOM     19  C   LIG A   1      -8.083   3.482 129.197  0.00  0.00    +0.030 A 
ATOM     20  C   LIG A   1      -8.320  -2.196 122.468  0.00  0.00    +0.044 C 
ENDROOT
BRANCH  10  21
ATOM     21  C   LIG A   1      -8.234   2.735 124.272  0.00  0.00    +0.087 C 
ATOM     22  C   LIG A   1      -6.811   3.314 124.303  0.00  0.00    +0.046 C 
ATOM     23  C   LIG A   1      -8.733   2.728 122.818  0.00  0.00    +0.046 C 
BRANCH  21  24
ATOM     24  O   LIG A   1      -9.099   3.668 124.935  0.00  0.00    -0.384 OA
ATOM     25  H   LIG A   1      -9.306   3.272 125.806  0.00  0.00    +0.211 HD
ENDBRANCH  21  24
ENDBRANCH  10  21
TORSDOF 2
ENDMDL
MODEL 3
REMARK VINA RESULT:      -7.8      1.252      5.412
REMARK  Name = NuBBE_2269
REMARK  6 active torsions:
REMARK  status: ('A' for Active; 'I' for Inactive)
REMARK    1  A    between atoms: C_1  and  C_24
REMARK    2  A    between atoms: C_4  and  C_7
REMARK    3  A    between atoms: C_10  and  C_12
REMARK    4  A    between atoms: C_12  and  C_13
REMARK    5  A    between atoms: C_12  and  C_14
REMARK    6  A    between atoms: C_12  and  O_15
REMARK                            x       y       z     vdW  Elec       q    Type
REMARK                         _______ _______ _______ _____ _____    ______ ____
ROOT
ATOM      1  C   LIG A   1      -6.325   3.122 123.512  0.00  0.00    -0.043 A 
ATOM      2  C   LIG A   1      -6.766   1.941 124.174  0.00  0.00    -0.012 A 
ATOM      3  C   LIG A   1      -6.411   1.691 125.529  0.00  0.00    +0.013 A 
ATOM      4  C   LIG A   1      -5.593   2.675 126.184  0.00  0.00    -0.041 A 
ATOM      5  C   LIG A   1      -5.172   3.831 125.507  0.00  0.00    +0.004 A 
ATOM      6  C   LIG A   1      -5.533   4.051 124.189  0.00  0.00    +0.004 A 
ATOM      7  C   LIG A   1      -5.135   2.542 127.619  0.00  0.00    +0.044 C 
ATOM      8  C   LIG A   1      -6.887   0.495 126.154  0.00  0.00    +0.098 A 
ATOM      9  C   LIG A   1      -7.687  -0.430 125.431  0.00  0.00    +0.096 A 
ATOM     10  C   LIG A   1      -8.019  -0.188 124.097  0.00  0.00    +0.011 A 
ATOM     11  C   LIG A   1      -7.562   0.999 123.502  0.00  0.00    +0.017 A 
ATOM     12  N   LIG A   1      -8.147  -1.564 126.011  0.00  0.00    -0.243 NA
ATOM     13  C   LIG A   1      -7.837  -1.810 127.293  0.00  0.00    +0.090 A 
ATOM     14  C   LIG A   1      -7.049  -0.910 128.019  0.00  0.00    +0.090 A 
ATOM     15  N   LIG A   1      -6.591   0.214 127.447  0.00  0.00    -0.243 NA
ATOM     16  C   LIG A   1      -6.743  -1.192 129.346  0.00  0.00    +0.030 A 
ATOM     17  C   LIG A   1      -7.206  -2.353 129.966  0.00  0.00    +0.002 A 
ATOM     18  C   LIG A   1      -7.988  -3.245 129.246  0.00  0.00    +0.002 A 
ATOM     19  C   LIG A   1      -8.298  -2.966 127.914  0.00  0.00    +0.030 A 
ATOM     20  C   LIG A   1      -6.678   3.426 122.075  0.00  0.00    +0.044 C 
ENDROOT
BRANCH  10  21
ATOM     21  C   LIG A   1      -8.912  -1.164 123.309  0.00  0.00    +0.087 C 
ATOM     22  C   LIG A   1      -9.879  -0.374 122.413  0.00  0.00    +0.046 C 
ATOM     23  C   LIG A   1      -8.153  -2.181 122.441  0.00  0.00    +0.046 C 
BRANCH  21  24
ATOM     24  O   LIG A   1      -9.700  -1.975 124.191  0.00  0.00    -0.384 OA
ATOM     25  H   LIG A   1     -10.635  -1.788 123.968  0.00  0.00    +0.211 HD
ENDBRANCH  21  24
ENDBRANCH  10  21
TORSDOF 2
ENDMDL
MODEL 4
REMARK VINA RESULT:      -7.8      2.436      4.319
REMARK  Name = NuBBE_2269
REMARK  6 active torsions:
REMARK  status: ('A' for Active; 'I' for Inactive)
REMARK    1  A    between atoms: C_1  and  C_24
REMARK    2  A    between atoms: C_4  and  C_7
REMARK    3  A    between atoms: C_10  and  C_12
REMARK    4  A    between atoms: C_12  and  C_13
REMARK    5  A    between atoms: C_12  and  C_14
REMARK    6  A    between atoms: C_12  and  O_15
REMARK                            x       y       z     vdW  Elec       q    Type
REMARK                         _______ _______ _______ _____ _____    ______ ____
ROOT
ATOM      1  C   LIG A   1      -7.743  -1.827 123.802  0.00  0.00    -0.043 A 
ATOM      2  C   LIG A   1      -7.246  -0.565 124.236  0.00  0.00    -0.012 A 
ATOM      3  C   LIG A   1      -6.422  -0.465 125.392  0.00  0.00    +0.013 A 
ATOM      4  C   LIG A   1      -6.124  -1.685 126.091  0.00  0.00    -0.041 A 
ATOM      5  C   LIG A   1      -6.628  -2.917 125.641  0.00  0.00    +0.004 A 
ATOM      6  C   LIG A   1      -7.425  -2.986 124.512  0.00  0.00    +0.004 A 
ATOM      7  C   LIG A   1      -5.267  -1.734 127.336  0.00  0.00    +0.044 C 
ATOM      8  C   LIG A   1      -5.939   0.824 125.782  0.00  0.00    +0.098 A 
ATOM      9  C   LIG A   1      -6.286   1.983 125.037  0.00  0.00    +0.096 A 
ATOM     10  C   LIG A   1      -7.107   1.882 123.913  0.00  0.00    +0.011 A 
ATOM     11  C   LIG A   1      -7.558   0.609 123.530  0.00  0.00    +0.017 A 
ATOM     12  N   LIG A   1      -5.834   3.208 125.393  0.00  0.00    -0.243 NA
ATOM     13  C   LIG A   1      -5.042   3.321 126.470  0.00  0.00    +0.090 A 
ATOM     14  C   LIG A   1      -4.691   2.190 127.216  0.00  0.00    +0.090 A 
ATOM     15  N   LIG A   1      -5.139   0.974 126.866  0.00  0.00    -0.243 NA
ATOM     16  C   LIG A   1      -3.869   2.337 128.328  0.00  0.00    +0.030 A 
ATOM     17  C   LIG A   1      -3.389   3.590 128.714  0.00  0.00    +0.002 A 
ATOM     18  C   LIG A   1      -3.737   4.711 127.974  0.00  0.00    +0.002 A 
ATOM     19  C   LIG A   1      -4.561   4.567 126.857  0.00  0.00    +0.030 A 
ATOM     20  C   LIG A   1      -8.619  -1.977 122.582  0.00  0.00    +0.044 C 
ENDROOT
BRANCH  10  21
ATOM     21  C   LIG A   1      -7.468   3.123 123.076  0.00  0.00    +0.087 C 
ATOM     22  C   LIG A   1      -6.236   3.591 122.286  0.00  0.00    +0.046 C 
ATOM     23  C   LIG A   1      -8.638   2.928 122.098  0.00  0.00    +0.046 C 
BRANCH  21  24
ATOM     24  O   LIG A   1      -7.888   4.209 123.912  0.00  0.00    -0.384 OA
ATOM     25  H   LIG A   1      -7.123   4.818 123.970  0.00  0.00    +0.211 HD
ENDBRANCH  21  24
ENDBRANCH  10  21
TORSDOF 2
ENDMDL
MODEL 5
REMARK VINA RESULT:      -7.8      6.072      8.474
REMARK  Name = NuBBE_2269
REMARK  6 active torsions:
REMARK  status: ('A' for Active; 'I' for Inactive)
REMARK    1  A    between atoms: C_1  and  C_24
REMARK    2  A    between atoms: C_4  and  C_7
REMARK    3  A    between atoms: C_10  and  C_12
REMARK    4  A    between atoms: C_12  and  C_13
REMARK    5  A    between atoms: C_12  and  C_14
REMARK    6  A    between atoms: C_12  and  O_15
REMARK                            x       y       z     vdW  Elec       q    Type
REMARK                         _______ _______ _______ _____ _____    ______ ____
ROOT
ATOM      1  C   LIG A   1      -6.305   2.515 129.325  0.00  0.00    -0.043 A 
ATOM      2  C   LIG A   1      -7.301   3.464 129.691  0.00  0.00    -0.012 A 
ATOM      3  C   LIG A   1      -7.938   4.268 128.704  0.00  0.00    +0.013 A 
ATOM      4  C   LIG A   1      -7.528   4.077 127.340  0.00  0.00    -0.041 A 
ATOM      5  C   LIG A   1      -6.543   3.133 127.007  0.00  0.00    +0.004 A 
ATOM      6  C   LIG A   1      -5.941   2.363 127.986  0.00  0.00    +0.004 A 
ATOM      7  C   LIG A   1      -8.113   4.861 126.187  0.00  0.00    +0.044 C 
ATOM      8  C   LIG A   1      -8.940   5.201 129.120  0.00  0.00    +0.098 A 
ATOM      9  C   LIG A   1      -9.282   5.331 130.493  0.00  0.00    +0.096 A 
ATOM     10  C   LIG A   1      -8.643   4.552 131.459  0.00  0.00    +0.011 A 
ATOM     11  C   LIG A   1      -7.676   3.627 131.035  0.00  0.00    +0.017 A 
ATOM     12  N   LIG A   1     -10.230   6.208 130.901  0.00  0.00    -0.243 NA
ATOM     13  C   LIG A   1     -10.854   6.963 129.984  0.00  0.00    +0.090 A 
ATOM     14  C   LIG A   1     -10.529   6.848 128.628  0.00  0.00    +0.090 A 
ATOM     15  N   LIG A   1      -9.588   5.980 128.221  0.00  0.00    -0.243 NA
ATOM     16  C   LIG A   1     -11.192   7.643 127.700  0.00  0.00    +0.030 A 
ATOM     17  C   LIG A   1     -12.174   8.554 128.095  0.00  0.00    +0.002 A 
ATOM     18  C   LIG A   1     -12.496   8.667 129.440  0.00  0.00    +0.002 A 
ATOM     19  C   LIG A   1     -11.834   7.870 130.374  0.00  0.00    +0.030 A 
ATOM     20  C   LIG A   1      -5.605   1.643 130.340  0.00  0.00    +0.044 C 
ENDROOT
BRANCH  10  21
ATOM     21  C   LIG A   1      -9.023   4.658 132.947  0.00  0.00    +0.087 C 
ATOM     22  C   LIG A   1      -8.785   3.308 133.641  0.00  0.00    +0.046 C 
ATOM     23  C   LIG A   1      -8.282   5.753 133.730  0.00  0.00    +0.046 C 
BRANCH  21  24
ATOM     24  O   LIG A   1     -10.409   4.991 133.106  0.00  0.00    -0.384 OA
ATOM     25  H   LIG A   1     -10.889   4.138 133.148  0.00  0.00    +0.211 HD
ENDBRANCH  21  24
ENDBRANCH  10  21
TORSDOF 2
ENDMDL
MODEL 6
REMARK VINA RESULT:      -7.8      2.074      4.414
REMARK  Name = NuBBE_2269
REMARK  6 active torsions:
REMARK  status: ('A' for Active; 'I' for Inactive)
REMARK    1  A    between atoms: C_1  and  C_24
REMARK    2  A    between atoms: C_4  and  C_7
REMARK    3  A    between atoms: C_10  and  C_12
REMARK    4  A    between atoms: C_12  and  C_13
REMARK    5  A    between atoms: C_12  and  C_14
REMARK    6  A    between atoms: C_12  and  O_15
REMARK                            x       y       z     vdW  Elec       q    Type
REMARK                         _______ _______ _______ _____ _____    ______ ____
ROOT
ATOM      1  C   LIG A   1      -7.852  -2.873 128.721  0.00  0.00    -0.043 A 
ATOM      2  C   LIG A   1      -7.327  -1.683 128.143  0.00  0.00    -0.012 A 
ATOM      3  C   LIG A   1      -7.654  -1.315 126.808  0.00  0.00    +0.013 A 
ATOM      4  C   LIG A   1      -8.528  -2.197 126.082  0.00  0.00    -0.041 A 
ATOM      5  C   LIG A   1      -9.033  -3.365 126.677  0.00  0.00    +0.004 A 
ATOM      6  C   LIG A   1      -8.700  -3.698 127.978  0.00  0.00    +0.004 A 
ATOM      7  C   LIG A   1      -8.958  -1.939 124.656  0.00  0.00    +0.044 C 
ATOM      8  C   LIG A   1      -7.109  -0.105 126.274  0.00  0.00    +0.098 A 
ATOM      9  C   LIG A   1      -6.247   0.707 127.059  0.00  0.00    +0.096 A 
ATOM     10  C   LIG A   1      -5.916   0.335 128.363  0.00  0.00    +0.011 A 
ATOM     11  C   LIG A   1      -6.473  -0.845 128.880  0.00  0.00    +0.017 A 
ATOM     12  N   LIG A   1      -5.726   1.857 126.568  0.00  0.00    -0.243 NA
ATOM     13  C   LIG A   1      -6.036   2.228 125.317  0.00  0.00    +0.090 A 
ATOM     14  C   LIG A   1      -6.883   1.440 124.531  0.00  0.00    +0.090 A 
ATOM     15  N   LIG A   1      -7.400   0.299 125.014  0.00  0.00    -0.243 NA
ATOM     16  C   LIG A   1      -7.186   1.850 123.237  0.00  0.00    +0.030 A 
ATOM     17  C   LIG A   1      -6.663   3.032 122.709  0.00  0.00    +0.002 A 
ATOM     18  C   LIG A   1      -5.824   3.813 123.490  0.00  0.00    +0.002 A 
ATOM     19  C   LIG A   1      -5.517   3.406 124.789  0.00  0.00    +0.030 A 
ATOM     20  C   LIG A   1      -7.530  -3.299 130.133  0.00  0.00    +0.044 C 
ENDROOT
BRANCH  10  21
ATOM     21  C   LIG A   1      -5.008   1.219 129.238  0.00  0.00    +0.087 C 
ATOM     22  C   LIG A   1      -5.760   2.498 129.637  0.00  0.00    +0.046 C 
ATOM     23  C   LIG A   1      -4.474   0.542 130.510  0.00  0.00    +0.046 C 
BRANCH  21  24
ATOM     24  O   LIG A   1      -3.826   1.612 128.528  0.00  0.00    -0.384 OA
ATOM     25  H   LIG A   1      -3.699   2.564 128.720  0.00  0.00    +0.211 HD
ENDBRANCH  21  24
ENDBRANCH  10  21
TORSDOF 2
ENDMDL
MODEL 7
REMARK VINA RESULT:      -7.7      1.910      4.964
REMARK  Name = NuBBE_2269
REMARK  6 active torsions:
REMARK  status: ('A' for Active; 'I' for Inactive)
REMARK    1  A    between atoms: C_1  and  C_24
REMARK    2  A    between atoms: C_4  and  C_7
REMARK    3  A    between atoms: C_10  and  C_12
REMARK    4  A    between atoms: C_12  and  C_13
REMARK    5  A    between atoms: C_12  and  C_14
REMARK    6  A    between atoms: C_12  and  O_15
REMARK                            x       y       z     vdW  Elec       q    Type
REMARK                         _______ _______ _______ _____ _____    ______ ____
ROOT
ATOM      1  C   LIG A   1      -7.401   2.180 130.109  0.00  0.00    -0.043 A 
ATOM      2  C   LIG A   1      -7.669   1.714 128.790  0.00  0.00    -0.012 A 
ATOM      3  C   LIG A   1      -7.847   0.326 128.531  0.00  0.00    +0.013 A 
ATOM      4  C   LIG A   1      -7.741  -0.568 129.651  0.00  0.00    -0.041 A 
ATOM      5  C   LIG A   1      -7.476  -0.081 130.942  0.00  0.00    +0.004 A 
ATOM      6  C   LIG A   1      -7.309   1.274 131.167  0.00  0.00    +0.004 A 
ATOM      7  C   LIG A   1      -7.902  -2.067 129.527  0.00  0.00    +0.044 C 
ATOM      8  C   LIG A   1      -8.124  -0.092 127.191  0.00  0.00    +0.098 A 
ATOM      9  C   LIG A   1      -8.207   0.858 126.139  0.00  0.00    +0.096 A 
ATOM     10  C   LIG A   1      -8.015   2.217 126.395  0.00  0.00    +0.011 A 
ATOM     11  C   LIG A   1      -7.763   2.616 127.717  0.00  0.00    +0.017 A 
ATOM     12  N   LIG A   1      -8.471   0.477 124.867  0.00  0.00    -0.243 NA
ATOM     13  C   LIG A   1      -8.658  -0.825 124.605  0.00  0.00    +0.090 A 
ATOM     14  C   LIG A   1      -8.580  -1.775 125.629  0.00  0.00    +0.090 A 
ATOM     15  N   LIG A   1      -8.317  -1.400 126.891  0.00  0.00    -0.243 NA
ATOM     16  C   LIG A   1      -8.779  -3.118 125.328  0.00  0.00    +0.030 A 
ATOM     17  C   LIG A   1      -9.054  -3.536 124.025  0.00  0.00    +0.002 A 
ATOM     18  C   LIG A   1      -9.132  -2.594 123.009  0.00  0.00    +0.002 A 
ATOM     19  C   LIG A   1      -8.934  -1.245 123.307  0.00  0.00    +0.030 A 
ATOM     20  C   LIG A   1      -7.205   3.643 130.427  0.00  0.00    +0.044 C 
ENDROOT
BRANCH  10  21
ATOM     21  C   LIG A   1      -8.132   3.264 125.272  0.00  0.00    +0.087 C 
ATOM     22  C   LIG A   1      -8.106   4.677 125.875  0.00  0.00    +0.046 C 
ATOM     23  C   LIG A   1      -7.051   3.171 124.183  0.00  0.00    +0.046 C 
BRANCH  21  24
ATOM     24  O   LIG A   1      -9.365   3.119 124.555  0.00  0.00    -0.384 OA
ATOM     25  H   LIG A   1      -9.912   3.895 124.798  0.00  0.00    +0.211 HD
ENDBRANCH  21  24
ENDBRANCH  10  21
TORSDOF 2
ENDMDL
MODEL 8
REMARK VINA RESULT:      -7.6      2.074      6.331
REMARK  Name = NuBBE_2269
REMARK  6 active torsions:
REMARK  status: ('A' for Active; 'I' for Inactive)
REMARK    1  A    between atoms: C_1  and  C_24
REMARK    2  A    between atoms: C_4  and  C_7
REMARK    3  A    between atoms: C_10  and  C_12
REMARK    4  A    between atoms: C_12  and  C_13
REMARK    5  A    between atoms: C_12  and  C_14
REMARK    6  A    between atoms: C_12  and  O_15
REMARK                            x       y       z     vdW  Elec       q    Type
REMARK                         _______ _______ _______ _____ _____    ______ ____
ROOT
ATOM      1  C   LIG A   1      -4.987   3.889 125.834  0.00  0.00    -0.043 A 
ATOM      2  C   LIG A   1      -5.529   2.575 125.928  0.00  0.00    -0.012 A 
ATOM      3  C   LIG A   1      -6.312   2.033 124.871  0.00  0.00    +0.013 A 
ATOM      4  C   LIG A   1      -6.527   2.868 123.721  0.00  0.00    -0.041 A 
ATOM      5  C   LIG A   1      -5.980   4.160 123.654  0.00  0.00    +0.004 A 
ATOM      6  C   LIG A   1      -5.221   4.663 124.696  0.00  0.00    +0.004 A 
ATOM      7  C   LIG A   1      -7.340   2.428 122.525  0.00  0.00    +0.044 C 
ATOM      8  C   LIG A   1      -6.826   0.705 125.009  0.00  0.00    +0.098 A 
ATOM      9  C   LIG A   1      -6.571  -0.052 126.184  0.00  0.00    +0.096 A 
ATOM     10  C   LIG A   1      -5.816   0.491 127.225  0.00  0.00    +0.011 A 
ATOM     11  C   LIG A   1      -5.301   1.787 127.069  0.00  0.00    +0.017 A 
ATOM     12  N   LIG A   1      -7.049  -1.310 126.327  0.00  0.00    -0.243 NA
ATOM     13  C   LIG A   1      -7.775  -1.846 125.334  0.00  0.00    +0.090 A 
ATOM     14  C   LIG A   1      -8.037  -1.114 124.170  0.00  0.00    +0.090 A 
ATOM     15  N   LIG A   1      -7.565   0.134 124.026  0.00  0.00    -0.243 NA
ATOM     16  C   LIG A   1      -8.793  -1.695 123.158  0.00  0.00    +0.030 A 
ATOM     17  C   LIG A   1      -9.296  -2.991 123.280  0.00  0.00    +0.002 A 
ATOM     18  C   LIG A   1      -9.036  -3.716 124.434  0.00  0.00    +0.002 A 
ATOM     19  C   LIG A   1      -8.277  -3.138 125.452  0.00  0.00    +0.030 A 
ATOM     20  C   LIG A   1      -4.152   4.502 126.932  0.00  0.00    +0.044 C 
ENDROOT
BRANCH  10  21
ATOM     21  C   LIG A   1      -5.503  -0.327 128.492  0.00  0.00    +0.087 C 
ATOM     22  C   LIG A   1      -4.595   0.489 129.425  0.00  0.00    +0.046 C 
ATOM     23  C   LIG A   1      -6.736  -0.792 129.285  0.00  0.00    +0.046 C 
BRANCH  21  24
ATOM     24  O   LIG A   1      -4.816  -1.543 128.168  0.00  0.00    -0.384 OA
ATOM     25  H   LIG A   1      -4.242  -1.742 128.936  0.00  0.00    +0.211 HD
ENDBRANCH  21  24
ENDBRANCH  10  21
TORSDOF 2
ENDMDL
MODEL 9
REMARK VINA RESULT:      -7.5      3.097      5.727
REMARK  Name = NuBBE_2269
REMARK  6 active torsions:
REMARK  status: ('A' for Active; 'I' for Inactive)
REMARK    1  A    between atoms: C_1  and  C_24
REMARK    2  A    between atoms: C_4  and  C_7
REMARK    3  A    between atoms: C_10  and  C_12
REMARK    4  A    between atoms: C_12  and  C_13
REMARK    5  A    between atoms: C_12  and  C_14
REMARK    6  A    between atoms: C_12  and  O_15
REMARK                            x       y       z     vdW  Elec       q    Type
REMARK                         _______ _______ _______ _____ _____    ______ ____
ROOT
ATOM      1  C   LIG A   1      -5.460  -2.694 124.030  0.00  0.00    -0.043 A 
ATOM      2  C   LIG A   1      -5.700  -2.119 125.311  0.00  0.00    -0.012 A 
ATOM      3  C   LIG A   1      -6.599  -1.027 125.462  0.00  0.00    +0.013 A 
ATOM      4  C   LIG A   1      -7.241  -0.538 124.271  0.00  0.00    -0.041 A 
ATOM      5  C   LIG A   1      -6.986  -1.124 123.020  0.00  0.00    +0.004 A 
ATOM      6  C   LIG A   1      -6.108  -2.187 122.902  0.00  0.00    +0.004 A 
ATOM      7  C   LIG A   1      -8.215   0.618 124.277  0.00  0.00    +0.044 C 
ATOM      8  C   LIG A   1      -6.815  -0.490 126.770  0.00  0.00    +0.098 A 
ATOM      9  C   LIG A   1      -6.135  -1.029 127.894  0.00  0.00    +0.096 A 
ATOM     10  C   LIG A   1      -5.241  -2.091 127.739  0.00  0.00    +0.011 A 
ATOM     11  C   LIG A   1      -5.054  -2.620 126.453  0.00  0.00    +0.017 A 
ATOM     12  N   LIG A   1      -6.331  -0.533 129.139  0.00  0.00    -0.243 NA
ATOM     13  C   LIG A   1      -7.188   0.486 129.304  0.00  0.00    +0.090 A 
ATOM     14  C   LIG A   1      -7.866   1.030 128.207  0.00  0.00    +0.090 A 
ATOM     15  N   LIG A   1      -7.672   0.541 126.972  0.00  0.00    -0.243 NA
ATOM     16  C   LIG A   1      -8.747   2.086 128.409  0.00  0.00    +0.030 A 
ATOM     17  C   LIG A   1      -8.968   2.614 129.682  0.00  0.00    +0.002 A 
ATOM     18  C   LIG A   1      -8.296   2.074 130.769  0.00  0.00    +0.002 A 
ATOM     19  C   LIG A   1      -7.411   1.013 130.572  0.00  0.00    +0.030 A 
ATOM     20  C   LIG A   1      -4.514  -3.853 123.827  0.00  0.00    +0.044 C 
ENDROOT
BRANCH  10  21
ATOM     21  C   LIG A   1      -4.519  -2.708 128.952  0.00  0.00    +0.087 C 
ATOM     22  C   LIG A   1      -5.540  -3.407 129.862  0.00  0.00    +0.046 C 
ATOM     23  C   LIG A   1      -3.403  -3.705 128.602  0.00  0.00    +0.046 C 
BRANCH  21  24
ATOM     24  O   LIG A   1      -3.859  -1.701 129.730  0.00  0.00    -0.384 OA
ATOM     25  H   LIG A   1      -3.314  -2.181 130.388  0.00  0.00    +0.211 HD
ENDBRANCH  21  24
ENDBRANCH  10  21
TORSDOF 2
ENDMDL
