MODEL 1
REMARK VINA RESULT:      -7.5      0.000      0.000
REMARK  Name = NuBBE_406
REMARK  3 active torsions:
REMARK  status: ('A' for Active; 'I' for Inactive)
REMARK    1  A    between atoms: C_1  and  C_2
REMARK    2  A    between atoms: C_4  and  O_5
REMARK    3  A    between atoms: C_16  and  O_17
REMARK                            x       y       z     vdW  Elec       q    Type
REMARK                         _______ _______ _______ _____ _____    ______ ____
ROOT
ATOM      1  C   LIG A   1     -13.285   9.603 128.736  0.00  0.00    +0.044 C 
ATOM      2  C   LIG A   1     -12.236   8.533 128.804  0.00  0.00    -0.046 A 
ATOM      3  C   LIG A   1     -11.564   8.096 127.659  0.00  0.00    +0.049 A 
ATOM      4  C   LIG A   1     -10.589   7.094 127.748  0.00  0.00    +0.129 A 
ATOM      5  C   LIG A   1     -11.918   7.954 130.034  0.00  0.00    +0.016 A 
ATOM      6  C   LIG A   1     -10.940   6.949 130.123  0.00  0.00    +0.037 A 
ATOM      7  C   LIG A   1     -10.263   6.508 128.983  0.00  0.00    +0.074 A 
ATOM      8  C   LIG A   1      -9.232   5.440 129.117  0.00  0.00    +0.198 C 
ATOM      9  C   LIG A   1      -8.948   4.872 130.454  0.00  0.00    +0.037 A 
ATOM     10  C   LIG A   1      -9.633   5.324 131.578  0.00  0.00    +0.033 A 
ATOM     11  C   LIG A   1     -10.650   6.378 131.452  0.00  0.00    +0.195 C 
ATOM     12  O   LIG A   1     -11.250   6.774 132.444  0.00  0.00    -0.287 OA
ATOM     13  C   LIG A   1      -9.356   4.780 132.841  0.00  0.00    +0.016 A 
ATOM     14  C   LIG A   1      -8.394   3.780 132.978  0.00  0.00    +0.046 A 
ATOM     15  C   LIG A   1      -7.714   3.333 131.851  0.00  0.00    +0.118 A 
ATOM     16  C   LIG A   1      -7.981   3.867 130.594  0.00  0.00    +0.057 A 
ATOM     17  O   LIG A   1      -8.602   5.008 128.161  0.00  0.00    -0.286 OA
ENDROOT
BRANCH   4  18
ATOM     18  O   LIG A   1      -9.962   6.702 126.600  0.00  0.00    -0.506 OA
ATOM     19  H   LIG A   1      -9.006   6.615 126.741  0.00  0.00    +0.292 HD
ENDBRANCH   4  18
BRANCH  15  20
ATOM     20  O   LIG A   1      -6.765   2.358 131.938  0.00  0.00    -0.507 OA
ATOM     21  H   LIG A   1      -6.373   2.375 132.827  0.00  0.00    +0.292 HD
ENDBRANCH  15  20
TORSDOF 2
ENDMDL
MODEL 2
REMARK VINA RESULT:      -7.5      6.974      9.605
REMARK  Name = NuBBE_406
REMARK  3 active torsions:
REMARK  status: ('A' for Active; 'I' for Inactive)
REMARK    1  A    between atoms: C_1  and  C_2
REMARK    2  A    between atoms: C_4  and  O_5
REMARK    3  A    between atoms: C_16  and  O_17
REMARK                            x       y       z     vdW  Elec       q    Type
REMARK                         _______ _______ _______ _____ _____    ______ ____
ROOT
ATOM      1  C   LIG A   1      -7.992  -3.661 128.855  0.00  0.00    +0.044 C 
ATOM      2  C   LIG A   1      -8.290  -2.864 127.619  0.00  0.00    -0.046 A 
ATOM      3  C   LIG A   1      -9.005  -3.415 126.552  0.00  0.00    +0.049 A 
ATOM      4  C   LIG A   1      -9.272  -2.651 125.408  0.00  0.00    +0.129 A 
ATOM      5  C   LIG A   1      -7.848  -1.544 127.524  0.00  0.00    +0.016 A 
ATOM      6  C   LIG A   1      -8.115  -0.779 126.376  0.00  0.00    +0.037 A 
ATOM      7  C   LIG A   1      -8.830  -1.322 125.306  0.00  0.00    +0.074 A 
ATOM      8  C   LIG A   1      -9.094  -0.478 124.105  0.00  0.00    +0.198 C 
ATOM      9  C   LIG A   1      -8.593   0.914 124.074  0.00  0.00    +0.037 A 
ATOM     10  C   LIG A   1      -7.882   1.437 125.150  0.00  0.00    +0.033 A 
ATOM     11  C   LIG A   1      -7.620   0.610 126.337  0.00  0.00    +0.195 C 
ATOM     12  O   LIG A   1      -6.995   1.076 127.284  0.00  0.00    -0.287 OA
ATOM     13  C   LIG A   1      -7.412   2.758 125.112  0.00  0.00    +0.016 A 
ATOM     14  C   LIG A   1      -7.652   3.556 123.993  0.00  0.00    +0.046 A 
ATOM     15  C   LIG A   1      -8.363   3.026 122.922  0.00  0.00    +0.118 A 
ATOM     16  C   LIG A   1      -8.834   1.718 122.951  0.00  0.00    +0.057 A 
ATOM     17  O   LIG A   1      -9.713  -0.890 123.134  0.00  0.00    -0.286 OA
ENDROOT
BRANCH   4  18
ATOM     18  O   LIG A   1      -9.973  -3.237 124.392  0.00  0.00    -0.506 OA
ATOM     19  H   LIG A   1     -10.876  -3.451 124.676  0.00  0.00    +0.292 HD
ENDBRANCH   4  18
BRANCH  15  20
ATOM     20  O   LIG A   1      -8.621   3.770 121.809  0.00  0.00    -0.507 OA
ATOM     21  H   LIG A   1      -9.039   4.606 122.075  0.00  0.00    +0.292 HD
ENDBRANCH  15  20
TORSDOF 2
ENDMDL
MODEL 3
REMARK VINA RESULT:      -7.3      7.546     10.242
REMARK  Name = NuBBE_406
REMARK  3 active torsions:
REMARK  status: ('A' for Active; 'I' for Inactive)
REMARK    1  A    between atoms: C_1  and  C_2
REMARK    2  A    between atoms: C_4  and  O_5
REMARK    3  A    between atoms: C_16  and  O_17
REMARK                            x       y       z     vdW  Elec       q    Type
REMARK                         _______ _______ _______ _____ _____    ______ ____
ROOT
ATOM      1  C   LIG A   1      -8.413   1.442 126.603  0.00  0.00    +0.044 C 
ATOM      2  C   LIG A   1      -7.655   2.159 125.526  0.00  0.00    -0.046 A 
ATOM      3  C   LIG A   1      -6.374   2.670 125.752  0.00  0.00    +0.049 A 
ATOM      4  C   LIG A   1      -5.685   3.336 124.729  0.00  0.00    +0.129 A 
ATOM      5  C   LIG A   1      -8.234   2.326 124.266  0.00  0.00    +0.016 A 
ATOM      6  C   LIG A   1      -7.543   2.994 123.242  0.00  0.00    +0.037 A 
ATOM      7  C   LIG A   1      -6.262   3.506 123.460  0.00  0.00    +0.074 A 
ATOM      8  C   LIG A   1      -5.561   4.209 122.348  0.00  0.00    +0.198 C 
ATOM      9  C   LIG A   1      -6.237   4.349 121.039  0.00  0.00    +0.037 A 
ATOM     10  C   LIG A   1      -7.514   3.833 120.841  0.00  0.00    +0.033 A 
ATOM     11  C   LIG A   1      -8.210   3.137 121.934  0.00  0.00    +0.195 C 
ATOM     12  O   LIG A   1      -9.334   2.683 121.754  0.00  0.00    -0.287 OA
ATOM     13  C   LIG A   1      -8.147   3.969 119.596  0.00  0.00    +0.016 A 
ATOM     14  C   LIG A   1      -7.501   4.626 118.549  0.00  0.00    +0.046 A 
ATOM     15  C   LIG A   1      -6.225   5.139 118.755  0.00  0.00    +0.118 A 
ATOM     16  C   LIG A   1      -5.589   5.008 119.985  0.00  0.00    +0.057 A 
ATOM     17  O   LIG A   1      -4.438   4.681 122.470  0.00  0.00    -0.286 OA
ENDROOT
BRANCH   4  18
ATOM     18  O   LIG A   1      -4.436   3.817 125.002  0.00  0.00    -0.506 OA
ATOM     19  H   LIG A   1      -4.449   4.784 125.082  0.00  0.00    +0.292 HD
ENDBRANCH   4  18
BRANCH  15  20
ATOM     20  O   LIG A   1      -5.556   5.788 117.760  0.00  0.00    -0.507 OA
ATOM     21  H   LIG A   1      -5.763   5.365 116.909  0.00  0.00    +0.292 HD
ENDBRANCH  15  20
TORSDOF 2
ENDMDL
MODEL 4
REMARK VINA RESULT:      -7.1      9.413     10.736
REMARK  Name = NuBBE_406
REMARK  3 active torsions:
REMARK  status: ('A' for Active; 'I' for Inactive)
REMARK    1  A    between atoms: C_1  and  C_2
REMARK    2  A    between atoms: C_4  and  O_5
REMARK    3  A    between atoms: C_16  and  O_17
REMARK                            x       y       z     vdW  Elec       q    Type
REMARK                         _______ _______ _______ _____ _____    ______ ____
ROOT
ATOM      1  C   LIG A   1      -7.024  -3.263 132.357  0.00  0.00    +0.044 C 
ATOM      2  C   LIG A   1      -6.792  -2.897 130.921  0.00  0.00    -0.046 A 
ATOM      3  C   LIG A   1      -5.666  -2.169 130.527  0.00  0.00    +0.049 A 
ATOM      4  C   LIG A   1      -5.471  -1.838 129.179  0.00  0.00    +0.129 A 
ATOM      5  C   LIG A   1      -7.715  -3.288 129.949  0.00  0.00    +0.016 A 
ATOM      6  C   LIG A   1      -7.519  -2.957 128.599  0.00  0.00    +0.037 A 
ATOM      7  C   LIG A   1      -6.395  -2.230 128.197  0.00  0.00    +0.074 A 
ATOM      8  C   LIG A   1      -6.222  -1.897 126.754  0.00  0.00    +0.198 C 
ATOM      9  C   LIG A   1      -7.243  -2.344 125.780  0.00  0.00    +0.037 A 
ATOM     10  C   LIG A   1      -8.355  -3.067 126.199  0.00  0.00    +0.033 A 
ATOM     11  C   LIG A   1      -8.531  -3.399 127.621  0.00  0.00    +0.195 C 
ATOM     12  O   LIG A   1      -9.512  -4.037 127.986  0.00  0.00    -0.287 OA
ATOM     13  C   LIG A   1      -9.317  -3.488 125.269  0.00  0.00    +0.016 A 
ATOM     14  C   LIG A   1      -9.166  -3.181 123.916  0.00  0.00    +0.046 A 
ATOM     15  C   LIG A   1      -8.052  -2.458 123.506  0.00  0.00    +0.118 A 
ATOM     16  C   LIG A   1      -7.092  -2.038 124.421  0.00  0.00    +0.057 A 
ATOM     17  O   LIG A   1      -5.263  -1.264 126.334  0.00  0.00    -0.286 OA
ENDROOT
BRANCH   4  18
ATOM     18  O   LIG A   1      -4.355  -1.124 128.847  0.00  0.00    -0.506 OA
ATOM     19  H   LIG A   1      -3.994  -1.424 127.998  0.00  0.00    +0.292 HD
ENDBRANCH   4  18
BRANCH  15  20
ATOM     20  O   LIG A   1      -7.862  -2.138 122.194  0.00  0.00    -0.507 OA
ATOM     21  H   LIG A   1      -7.127  -2.666 121.840  0.00  0.00    +0.292 HD
ENDBRANCH  15  20
TORSDOF 2
ENDMDL
MODEL 5
REMARK VINA RESULT:      -7.0      7.403      9.117
REMARK  Name = NuBBE_406
REMARK  3 active torsions:
REMARK  status: ('A' for Active; 'I' for Inactive)
REMARK    1  A    between atoms: C_1  and  C_2
REMARK    2  A    between atoms: C_4  and  O_5
REMARK    3  A    between atoms: C_16  and  O_17
REMARK                            x       y       z     vdW  Elec       q    Type
REMARK                         _______ _______ _______ _____ _____    ______ ____
ROOT
ATOM      1  C   LIG A   1      -4.180   4.173 126.231  0.00  0.00    +0.044 C 
ATOM      2  C   LIG A   1      -5.252   3.334 125.599  0.00  0.00    -0.046 A 
ATOM      3  C   LIG A   1      -6.238   3.901 124.787  0.00  0.00    +0.049 A 
ATOM      4  C   LIG A   1      -7.228   3.097 124.208  0.00  0.00    +0.129 A 
ATOM      5  C   LIG A   1      -5.273   1.956 125.821  0.00  0.00    +0.016 A 
ATOM      6  C   LIG A   1      -6.266   1.151 125.240  0.00  0.00    +0.037 A 
ATOM      7  C   LIG A   1      -7.254   1.710 124.427  0.00  0.00    +0.074 A 
ATOM      8  C   LIG A   1      -8.292   0.822 123.828  0.00  0.00    +0.198 C 
ATOM      9  C   LIG A   1      -8.252  -0.630 124.108  0.00  0.00    +0.037 A 
ATOM     10  C   LIG A   1      -7.259  -1.169 124.922  0.00  0.00    +0.033 A 
ATOM     11  C   LIG A   1      -6.233  -0.298 125.514  0.00  0.00    +0.195 C 
ATOM     12  O   LIG A   1      -5.360  -0.778 126.229  0.00  0.00    -0.287 OA
ATOM     13  C   LIG A   1      -7.228  -2.547 125.182  0.00  0.00    +0.016 A 
ATOM     14  C   LIG A   1      -8.195  -3.387 124.627  0.00  0.00    +0.046 A 
ATOM     15  C   LIG A   1      -9.183  -2.841 123.816  0.00  0.00    +0.118 A 
ATOM     16  C   LIG A   1      -9.221  -1.476 123.552  0.00  0.00    +0.057 A 
ATOM     17  O   LIG A   1      -9.185   1.246 123.107  0.00  0.00    -0.286 OA
ENDROOT
BRANCH   4  18
ATOM     18  O   LIG A   1      -8.170   3.701 123.423  0.00  0.00    -0.506 OA
ATOM     19  H   LIG A   1      -7.759   4.347 122.826  0.00  0.00    +0.292 HD
ENDBRANCH   4  18
BRANCH  15  20
ATOM     20  O   LIG A   1     -10.147  -3.624 123.253  0.00  0.00    -0.507 OA
ATOM     21  H   LIG A   1      -9.746  -4.458 122.956  0.00  0.00    +0.292 HD
ENDBRANCH  15  20
TORSDOF 2
ENDMDL
MODEL 6
REMARK VINA RESULT:      -6.9      7.178      9.545
REMARK  Name = NuBBE_406
REMARK  3 active torsions:
REMARK  status: ('A' for Active; 'I' for Inactive)
REMARK    1  A    between atoms: C_1  and  C_2
REMARK    2  A    between atoms: C_4  and  O_5
REMARK    3  A    between atoms: C_16  and  O_17
REMARK                            x       y       z     vdW  Elec       q    Type
REMARK                         _______ _______ _______ _____ _____    ______ ____
ROOT
ATOM      1  C   LIG A   1      -7.889  -4.394 124.657  0.00  0.00    +0.044 C 
ATOM      2  C   LIG A   1      -7.985  -2.918 124.411  0.00  0.00    -0.046 A 
ATOM      3  C   LIG A   1      -8.987  -2.378 123.600  0.00  0.00    +0.049 A 
ATOM      4  C   LIG A   1      -9.057  -0.995 123.385  0.00  0.00    +0.129 A 
ATOM      5  C   LIG A   1      -7.058  -2.056 125.000  0.00  0.00    +0.016 A 
ATOM      6  C   LIG A   1      -7.128  -0.670 124.784  0.00  0.00    +0.037 A 
ATOM      7  C   LIG A   1      -8.128  -0.123 123.975  0.00  0.00    +0.074 A 
ATOM      8  C   LIG A   1      -8.170   1.353 123.770  0.00  0.00    +0.198 C 
ATOM      9  C   LIG A   1      -7.153   2.205 124.425  0.00  0.00    +0.037 A 
ATOM     10  C   LIG A   1      -6.164   1.641 125.227  0.00  0.00    +0.033 A 
ATOM     11  C   LIG A   1      -6.119   0.186 125.435  0.00  0.00    +0.195 C 
ATOM     12  O   LIG A   1      -5.247  -0.306 126.143  0.00  0.00    -0.287 OA
ATOM     13  C   LIG A   1      -5.205   2.456 125.846  0.00  0.00    +0.016 A 
ATOM     14  C   LIG A   1      -5.234   3.839 125.659  0.00  0.00    +0.046 A 
ATOM     15  C   LIG A   1      -6.224   4.394 124.857  0.00  0.00    +0.118 A 
ATOM     16  C   LIG A   1      -7.180   3.594 124.240  0.00  0.00    +0.057 A 
ATOM     17  O   LIG A   1      -9.017   1.898 123.075  0.00  0.00    -0.286 OA
ENDROOT
BRANCH   4  18
ATOM     18  O   LIG A   1     -10.055  -0.518 122.583  0.00  0.00    -0.506 OA
ATOM     19  H   LIG A   1      -9.970  -0.867 121.682  0.00  0.00    +0.292 HD
ENDBRANCH   4  18
BRANCH  15  20
ATOM     20  O   LIG A   1      -6.291   5.740 124.648  0.00  0.00    -0.507 OA
ATOM     21  H   LIG A   1      -6.989   5.926 123.998  0.00  0.00    +0.292 HD
ENDBRANCH  15  20
TORSDOF 2
ENDMDL
MODEL 7
REMARK VINA RESULT:      -6.8      4.153      6.566
REMARK  Name = NuBBE_406
REMARK  3 active torsions:
REMARK  status: ('A' for Active; 'I' for Inactive)
REMARK    1  A    between atoms: C_1  and  C_2
REMARK    2  A    between atoms: C_4  and  O_5
REMARK    3  A    between atoms: C_16  and  O_17
REMARK                            x       y       z     vdW  Elec       q    Type
REMARK                         _______ _______ _______ _____ _____    ______ ____
ROOT
ATOM      1  C   LIG A   1      -0.737   6.452 132.013  0.00  0.00    +0.044 C 
ATOM      2  C   LIG A   1      -2.216   6.582 131.800  0.00  0.00    -0.046 A 
ATOM      3  C   LIG A   1      -2.739   7.414 130.807  0.00  0.00    +0.049 A 
ATOM      4  C   LIG A   1      -4.125   7.519 130.626  0.00  0.00    +0.129 A 
ATOM      5  C   LIG A   1      -3.098   5.859 132.606  0.00  0.00    +0.016 A 
ATOM      6  C   LIG A   1      -4.487   5.965 132.424  0.00  0.00    +0.037 A 
ATOM      7  C   LIG A   1      -5.017   6.794 131.433  0.00  0.00    +0.074 A 
ATOM      8  C   LIG A   1      -6.497   6.880 131.271  0.00  0.00    +0.198 C 
ATOM      9  C   LIG A   1      -7.370   6.086 132.163  0.00  0.00    +0.037 A 
ATOM     10  C   LIG A   1      -6.823   5.265 133.145  0.00  0.00    +0.033 A 
ATOM     11  C   LIG A   1      -5.365   5.175 133.309  0.00  0.00    +0.195 C 
ATOM     12  O   LIG A   1      -4.887   4.450 134.175  0.00  0.00    -0.287 OA
ATOM     13  C   LIG A   1      -7.659   4.514 133.986  0.00  0.00    +0.016 A 
ATOM     14  C   LIG A   1      -9.045   4.588 133.844  0.00  0.00    +0.046 A 
ATOM     15  C   LIG A   1      -9.583   5.410 132.861  0.00  0.00    +0.118 A 
ATOM     16  C   LIG A   1      -8.762   6.157 132.022  0.00  0.00    +0.057 A 
ATOM     17  O   LIG A   1      -7.027   7.586 130.424  0.00  0.00    -0.286 OA
ENDROOT
BRANCH   4  18
ATOM     18  O   LIG A   1      -4.585   8.348 129.642  0.00  0.00    -0.506 OA
ATOM     19  H   LIG A   1      -5.554   8.327 129.598  0.00  0.00    +0.292 HD
ENDBRANCH   4  18
BRANCH  15  20
ATOM     20  O   LIG A   1     -10.931   5.512 132.686  0.00  0.00    -0.507 OA
ATOM     21  H   LIG A   1     -11.381   5.208 133.492  0.00  0.00    +0.292 HD
ENDBRANCH  15  20
TORSDOF 2
ENDMDL
MODEL 8
REMARK VINA RESULT:      -6.7      4.140      7.360
REMARK  Name = NuBBE_406
REMARK  3 active torsions:
REMARK  status: ('A' for Active; 'I' for Inactive)
REMARK    1  A    between atoms: C_1  and  C_2
REMARK    2  A    between atoms: C_4  and  O_5
REMARK    3  A    between atoms: C_16  and  O_17
REMARK                            x       y       z     vdW  Elec       q    Type
REMARK                         _______ _______ _______ _____ _____    ______ ____
ROOT
ATOM      1  C   LIG A   1      -0.761   6.531 131.874  0.00  0.00    +0.044 C 
ATOM      2  C   LIG A   1      -2.151   6.219 132.343  0.00  0.00    -0.046 A 
ATOM      3  C   LIG A   1      -2.380   5.516 133.530  0.00  0.00    +0.049 A 
ATOM      4  C   LIG A   1      -3.688   5.236 133.948  0.00  0.00    +0.129 A 
ATOM      5  C   LIG A   1      -3.248   6.635 131.585  0.00  0.00    +0.016 A 
ATOM      6  C   LIG A   1      -4.558   6.354 132.004  0.00  0.00    +0.037 A 
ATOM      7  C   LIG A   1      -4.795   5.653 133.190  0.00  0.00    +0.074 A 
ATOM      8  C   LIG A   1      -6.200   5.374 133.601  0.00  0.00    +0.198 C 
ATOM      9  C   LIG A   1      -7.312   5.845 132.746  0.00  0.00    +0.037 A 
ATOM     10  C   LIG A   1      -7.057   6.541 131.569  0.00  0.00    +0.033 A 
ATOM     11  C   LIG A   1      -5.673   6.820 131.158  0.00  0.00    +0.195 C 
ATOM     12  O   LIG A   1      -5.452   7.435 130.121  0.00  0.00    -0.287 OA
ATOM     13  C   LIG A   1      -8.117   6.985 130.765  0.00  0.00    +0.016 A 
ATOM     14  C   LIG A   1      -9.437   6.728 131.140  0.00  0.00    +0.046 A 
ATOM     15  C   LIG A   1      -9.684   6.032 132.317  0.00  0.00    +0.118 A 
ATOM     16  C   LIG A   1      -8.638   5.589 133.122  0.00  0.00    +0.057 A 
ATOM     17  O   LIG A   1      -6.478   4.766 134.626  0.00  0.00    -0.286 OA
ENDROOT
BRANCH   4  18
ATOM     18  O   LIG A   1      -3.857   4.546 135.114  0.00  0.00    -0.506 OA
ATOM     19  H   LIG A   1      -4.455   5.021 135.713  0.00  0.00    +0.292 HD
ENDBRANCH   4  18
BRANCH  15  20
ATOM     20  O   LIG A   1     -10.956   5.760 132.723  0.00  0.00    -0.507 OA
ATOM     21  H   LIG A   1     -10.930   5.367 133.612  0.00  0.00    +0.292 HD
ENDBRANCH  15  20
TORSDOF 2
ENDMDL
MODEL 9
REMARK VINA RESULT:      -6.5      3.293      6.225
REMARK  Name = NuBBE_406
REMARK  3 active torsions:
REMARK  status: ('A' for Active; 'I' for Inactive)
REMARK    1  A    between atoms: C_1  and  C_2
REMARK    2  A    between atoms: C_4  and  O_5
REMARK    3  A    between atoms: C_16  and  O_17
REMARK                            x       y       z     vdW  Elec       q    Type
REMARK                         _______ _______ _______ _____ _____    ______ ____
ROOT
ATOM      1  C   LIG A   1      -7.266  -2.331 128.395  0.00  0.00    +0.044 C 
ATOM      2  C   LIG A   1      -7.682  -0.923 128.704  0.00  0.00    -0.046 A 
ATOM      3  C   LIG A   1      -7.944  -0.001 127.687  0.00  0.00    +0.049 A 
ATOM      4  C   LIG A   1      -8.331   1.309 128.000  0.00  0.00    +0.129 A 
ATOM      5  C   LIG A   1      -7.814  -0.516 130.033  0.00  0.00    +0.016 A 
ATOM      6  C   LIG A   1      -8.202   0.797 130.345  0.00  0.00    +0.037 A 
ATOM      7  C   LIG A   1      -8.466   1.724 129.335  0.00  0.00    +0.074 A 
ATOM      8  C   LIG A   1      -8.876   3.109 129.707  0.00  0.00    +0.198 C 
ATOM      9  C   LIG A   1      -8.994   3.469 131.137  0.00  0.00    +0.037 A 
ATOM     10  C   LIG A   1      -8.726   2.531 132.130  0.00  0.00    +0.033 A 
ATOM     11  C   LIG A   1      -8.323   1.164 131.769  0.00  0.00    +0.195 C 
ATOM     12  O   LIG A   1      -8.089   0.341 132.647  0.00  0.00    -0.287 OA
ATOM     13  C   LIG A   1      -8.841   2.882 133.484  0.00  0.00    +0.016 A 
ATOM     14  C   LIG A   1      -9.223   4.175 133.843  0.00  0.00    +0.046 A 
ATOM     15  C   LIG A   1      -9.489   5.106 132.845  0.00  0.00    +0.118 A 
ATOM     16  C   LIG A   1      -9.378   4.767 131.501  0.00  0.00    +0.057 A 
ATOM     17  O   LIG A   1      -9.122   3.969 128.873  0.00  0.00    -0.286 OA
ENDROOT
BRANCH   4  18
ATOM     18  O   LIG A   1      -8.574   2.172 126.969  0.00  0.00    -0.506 OA
ATOM     19  H   LIG A   1      -7.760   2.629 126.703  0.00  0.00    +0.292 HD
ENDBRANCH   4  18
BRANCH  15  20
ATOM     20  O   LIG A   1      -9.865   6.380 133.151  0.00  0.00    -0.507 OA
ATOM     21  H   LIG A   1      -9.303   7.004 132.662  0.00  0.00    +0.292 HD
ENDBRANCH  15  20
TORSDOF 2
ENDMDL
