MODEL 1
REMARK VINA RESULT:      -7.7      0.000      0.000
REMARK  Name = NuBBE_565
REMARK  4 active torsions:
REMARK  status: ('A' for Active; 'I' for Inactive)
REMARK    1  A    between atoms: O_1  and  C_2
REMARK    2  A    between atoms: C_8  and  C_9
REMARK    3  A    between atoms: C_11  and  O_12
REMARK    4  A    between atoms: C_13  and  O_14
REMARK                            x       y       z     vdW  Elec       q    Type
REMARK                         _______ _______ _______ _____ _____    ______ ____
ROOT
ATOM      1  C   LIG A   1     -11.625   7.450 126.791  0.00  0.00    +0.120 A 
ATOM      2  C   LIG A   1     -12.881   7.439 127.393  0.00  0.00    +0.046 A 
ATOM      3  C   LIG A   1     -12.980   7.220 128.769  0.00  0.00    +0.019 A 
ATOM      4  C   LIG A   1     -11.819   7.016 129.522  0.00  0.00    +0.064 A 
ATOM      5  C   LIG A   1     -11.892   6.787 130.972  0.00  0.00    +0.193 A 
ATOM      6  C   LIG A   1     -10.613   6.584 131.671  0.00  0.00    +0.098 A 
ATOM      7  C   LIG A   1      -9.469   6.609 130.970  0.00  0.00    +0.139 A 
ATOM      8  O   LIG A   1      -9.398   6.835 129.603  0.00  0.00    -0.455 OA
ATOM      9  O   LIG A   1     -12.955   6.766 131.579  0.00  0.00    -0.287 OA
ATOM     10  C   LIG A   1     -10.567   7.028 128.911  0.00  0.00    +0.143 A 
ATOM     11  C   LIG A   1     -10.467   7.246 127.538  0.00  0.00    +0.092 A 
ENDROOT
BRANCH   7  12
ATOM     12  C   LIG A   1      -8.156   6.422 131.619  0.00  0.00    +0.021 A 
ATOM     13  C   LIG A   1      -6.988   6.858 130.969  0.00  0.00    +0.060 A 
ATOM     14  C   LIG A   1      -5.748   6.673 131.573  0.00  0.00    +0.159 A 
ATOM     15  C   LIG A   1      -5.654   6.054 132.815  0.00  0.00    +0.158 A 
ATOM     16  C   LIG A   1      -6.790   5.606 133.470  0.00  0.00    +0.050 A 
ATOM     17  C   LIG A   1      -8.039   5.787 132.870  0.00  0.00    +0.015 A 
BRANCH  14  18
ATOM     18  O   LIG A   1      -4.586   7.085 130.980  0.00  0.00    -0.503 OA
ATOM     19  H   LIG A   1      -4.212   7.809 131.512  0.00  0.00    +0.292 HD
ENDBRANCH  14  18
BRANCH  15  20
ATOM     20  O   LIG A   1      -4.433   5.876 133.400  0.00  0.00    -0.503 OA
ATOM     21  H   LIG A   1      -3.847   6.511 132.941  0.00  0.00    +0.292 HD
ENDBRANCH  15  20
ENDBRANCH   7  12
BRANCH   1  22
ATOM     22  O   LIG A   1     -11.483   7.660 125.452  0.00  0.00    -0.507 OA
ATOM     23  H   LIG A   1     -12.070   7.052 124.972  0.00  0.00    +0.292 HD
ENDBRANCH   1  22
TORSDOF 4
ENDMDL
MODEL 2
REMARK VINA RESULT:      -7.7      8.289     10.321
REMARK  Name = NuBBE_565
REMARK  4 active torsions:
REMARK  status: ('A' for Active; 'I' for Inactive)
REMARK    1  A    between atoms: O_1  and  C_2
REMARK    2  A    between atoms: C_8  and  C_9
REMARK    3  A    between atoms: C_11  and  O_12
REMARK    4  A    between atoms: C_13  and  O_14
REMARK                            x       y       z     vdW  Elec       q    Type
REMARK                         _______ _______ _______ _____ _____    ______ ____
ROOT
ATOM      1  C   LIG A   1      -8.823  -1.324 124.557  0.00  0.00    +0.120 A 
ATOM      2  C   LIG A   1      -8.560  -1.066 125.900  0.00  0.00    +0.046 A 
ATOM      3  C   LIG A   1      -7.867   0.093 126.253  0.00  0.00    +0.019 A 
ATOM      4  C   LIG A   1      -7.447   0.979 125.254  0.00  0.00    +0.064 A 
ATOM      5  C   LIG A   1      -6.719   2.209 125.594  0.00  0.00    +0.193 A 
ATOM      6  C   LIG A   1      -6.322   3.072 124.470  0.00  0.00    +0.098 A 
ATOM      7  C   LIG A   1      -6.630   2.703 123.218  0.00  0.00    +0.139 A 
ATOM      8  O   LIG A   1      -7.327   1.547 122.895  0.00  0.00    -0.455 OA
ATOM      9  O   LIG A   1      -6.450   2.512 126.750  0.00  0.00    -0.287 OA
ATOM     10  C   LIG A   1      -7.715   0.712 123.913  0.00  0.00    +0.143 A 
ATOM     11  C   LIG A   1      -8.406  -0.445 123.560  0.00  0.00    +0.092 A 
ENDROOT
BRANCH   7  12
ATOM     12  C   LIG A   1      -6.269   3.533 122.051  0.00  0.00    +0.021 A 
ATOM     13  C   LIG A   1      -5.200   4.442 122.144  0.00  0.00    +0.060 A 
ATOM     14  C   LIG A   1      -4.864   5.232 121.050  0.00  0.00    +0.159 A 
ATOM     15  C   LIG A   1      -5.583   5.135 119.863  0.00  0.00    +0.158 A 
ATOM     16  C   LIG A   1      -6.647   4.255 119.750  0.00  0.00    +0.050 A 
ATOM     17  C   LIG A   1      -6.991   3.458 120.845  0.00  0.00    +0.015 A 
BRANCH  14  18
ATOM     18  O   LIG A   1      -3.829   6.127 121.094  0.00  0.00    -0.503 OA
ATOM     19  H   LIG A   1      -4.128   6.914 121.582  0.00  0.00    +0.292 HD
ENDBRANCH  14  18
BRANCH  15  20
ATOM     20  O   LIG A   1      -5.247   5.916 118.795  0.00  0.00    -0.503 OA
ATOM     21  H   LIG A   1      -4.508   6.471 119.119  0.00  0.00    +0.292 HD
ENDBRANCH  15  20
ENDBRANCH   7  12
BRANCH   1  22
ATOM     22  O   LIG A   1      -9.498  -2.443 124.169  0.00  0.00    -0.507 OA
ATOM     23  H   LIG A   1      -9.469  -3.095 124.889  0.00  0.00    +0.292 HD
ENDBRANCH   1  22
TORSDOF 4
ENDMDL
MODEL 3
REMARK VINA RESULT:      -7.4      1.599      6.605
REMARK  Name = NuBBE_565
REMARK  4 active torsions:
REMARK  status: ('A' for Active; 'I' for Inactive)
REMARK    1  A    between atoms: O_1  and  C_2
REMARK    2  A    between atoms: C_8  and  C_9
REMARK    3  A    between atoms: C_11  and  O_12
REMARK    4  A    between atoms: C_13  and  O_14
REMARK                            x       y       z     vdW  Elec       q    Type
REMARK                         _______ _______ _______ _____ _____    ______ ____
ROOT
ATOM      1  C   LIG A   1      -4.377   6.902 131.385  0.00  0.00    +0.120 A 
ATOM      2  C   LIG A   1      -4.350   6.175 132.573  0.00  0.00    +0.046 A 
ATOM      3  C   LIG A   1      -5.550   5.746 133.142  0.00  0.00    +0.019 A 
ATOM      4  C   LIG A   1      -6.762   6.050 132.512  0.00  0.00    +0.064 A 
ATOM      5  C   LIG A   1      -8.041   5.608 133.085  0.00  0.00    +0.193 A 
ATOM      6  C   LIG A   1      -9.258   5.980 132.345  0.00  0.00    +0.098 A 
ATOM      7  C   LIG A   1      -9.147   6.693 131.213  0.00  0.00    +0.139 A 
ATOM      8  O   LIG A   1      -7.939   7.102 130.666  0.00  0.00    -0.455 OA
ATOM      9  O   LIG A   1      -8.105   4.962 134.123  0.00  0.00    -0.287 OA
ATOM     10  C   LIG A   1      -6.780   6.778 131.324  0.00  0.00    +0.143 A 
ATOM     11  C   LIG A   1      -5.581   7.208 130.756  0.00  0.00    +0.092 A 
ENDROOT
BRANCH   7  12
ATOM     12  C   LIG A   1     -10.330   7.086 130.422  0.00  0.00    +0.021 A 
ATOM     13  C   LIG A   1     -10.160   7.726 129.182  0.00  0.00    +0.060 A 
ATOM     14  C   LIG A   1     -11.273   8.106 128.440  0.00  0.00    +0.159 A 
ATOM     15  C   LIG A   1     -12.557   7.863 128.919  0.00  0.00    +0.158 A 
ATOM     16  C   LIG A   1     -12.750   7.244 130.143  0.00  0.00    +0.050 A 
ATOM     17  C   LIG A   1     -11.636   6.859 130.895  0.00  0.00    +0.015 A 
BRANCH  14  18
ATOM     18  O   LIG A   1     -11.156   8.728 127.227  0.00  0.00    -0.503 OA
ATOM     19  H   LIG A   1     -10.588   9.510 127.339  0.00  0.00    +0.292 HD
ENDBRANCH  14  18
BRANCH  15  20
ATOM     20  O   LIG A   1     -13.644   8.241 128.184  0.00  0.00    -0.503 OA
ATOM     21  H   LIG A   1     -13.585   9.217 128.143  0.00  0.00    +0.292 HD
ENDBRANCH  15  20
ENDBRANCH   7  12
BRANCH   1  22
ATOM     22  O   LIG A   1      -3.228   7.340 130.796  0.00  0.00    -0.507 OA
ATOM     23  H   LIG A   1      -3.008   8.219 131.148  0.00  0.00    +0.292 HD
ENDBRANCH   1  22
TORSDOF 4
ENDMDL
MODEL 4
REMARK VINA RESULT:      -7.2      8.582     10.172
REMARK  Name = NuBBE_565
REMARK  4 active torsions:
REMARK  status: ('A' for Active; 'I' for Inactive)
REMARK    1  A    between atoms: O_1  and  C_2
REMARK    2  A    between atoms: C_8  and  C_9
REMARK    3  A    between atoms: C_11  and  O_12
REMARK    4  A    between atoms: C_13  and  O_14
REMARK                            x       y       z     vdW  Elec       q    Type
REMARK                         _______ _______ _______ _____ _____    ______ ____
ROOT
ATOM      1  C   LIG A   1      -7.933  -3.016 129.189  0.00  0.00    +0.120 A 
ATOM      2  C   LIG A   1      -8.682  -3.967 128.500  0.00  0.00    +0.046 A 
ATOM      3  C   LIG A   1      -9.056  -3.719 127.178  0.00  0.00    +0.019 A 
ATOM      4  C   LIG A   1      -8.673  -2.521 126.564  0.00  0.00    +0.064 A 
ATOM      5  C   LIG A   1      -9.049  -2.234 125.172  0.00  0.00    +0.193 A 
ATOM      6  C   LIG A   1      -8.596  -0.946 124.621  0.00  0.00    +0.098 A 
ATOM      7  C   LIG A   1      -7.886  -0.113 125.396  0.00  0.00    +0.139 A 
ATOM      8  O   LIG A   1      -7.522  -0.387 126.706  0.00  0.00    -0.455 OA
ATOM      9  O   LIG A   1      -9.703  -3.017 124.496  0.00  0.00    -0.287 OA
ATOM     10  C   LIG A   1      -7.924  -1.576 127.261  0.00  0.00    +0.143 A 
ATOM     11  C   LIG A   1      -7.551  -1.822 128.581  0.00  0.00    +0.092 A 
ENDROOT
BRANCH   7  12
ATOM     12  C   LIG A   1      -7.396   1.187 124.894  0.00  0.00    +0.021 A 
ATOM     13  C   LIG A   1      -8.104   1.857 123.881  0.00  0.00    +0.060 A 
ATOM     14  C   LIG A   1      -7.638   3.077 123.400  0.00  0.00    +0.159 A 
ATOM     15  C   LIG A   1      -6.471   3.637 123.910  0.00  0.00    +0.158 A 
ATOM     16  C   LIG A   1      -5.750   2.990 124.901  0.00  0.00    +0.050 A 
ATOM     17  C   LIG A   1      -6.211   1.764 125.390  0.00  0.00    +0.015 A 
BRANCH  14  18
ATOM     18  O   LIG A   1      -8.296   3.766 122.419  0.00  0.00    -0.503 OA
ATOM     19  H   LIG A   1      -9.183   3.377 122.315  0.00  0.00    +0.292 HD
ENDBRANCH  14  18
BRANCH  15  20
ATOM     20  O   LIG A   1      -6.021   4.834 123.431  0.00  0.00    -0.503 OA
ATOM     21  H   LIG A   1      -5.260   4.600 122.863  0.00  0.00    +0.292 HD
ENDBRANCH  15  20
ENDBRANCH   7  12
BRANCH   1  22
ATOM     22  O   LIG A   1      -7.546  -3.218 130.480  0.00  0.00    -0.507 OA
ATOM     23  H   LIG A   1      -7.834  -2.462 131.019  0.00  0.00    +0.292 HD
ENDBRANCH   1  22
TORSDOF 4
ENDMDL
MODEL 5
REMARK VINA RESULT:      -7.0      3.461      6.240
REMARK  Name = NuBBE_565
REMARK  4 active torsions:
REMARK  status: ('A' for Active; 'I' for Inactive)
REMARK    1  A    between atoms: O_1  and  C_2
REMARK    2  A    between atoms: C_8  and  C_9
REMARK    3  A    between atoms: C_11  and  O_12
REMARK    4  A    between atoms: C_13  and  O_14
REMARK                            x       y       z     vdW  Elec       q    Type
REMARK                         _______ _______ _______ _____ _____    ______ ____
ROOT
ATOM      1  C   LIG A   1      -8.238   1.169 129.714  0.00  0.00    +0.120 A 
ATOM      2  C   LIG A   1      -7.933   0.902 131.046  0.00  0.00    +0.046 A 
ATOM      3  C   LIG A   1      -8.299   1.822 132.031  0.00  0.00    +0.019 A 
ATOM      4  C   LIG A   1      -8.968   2.996 131.666  0.00  0.00    +0.064 A 
ATOM      5  C   LIG A   1      -9.370   3.980 132.681  0.00  0.00    +0.193 A 
ATOM      6  C   LIG A   1     -10.067   5.181 132.193  0.00  0.00    +0.098 A 
ATOM      7  C   LIG A   1     -10.292   5.322 130.878  0.00  0.00    +0.139 A 
ATOM      8  O   LIG A   1      -9.922   4.388 129.920  0.00  0.00    -0.455 OA
ATOM      9  O   LIG A   1      -9.144   3.821 133.873  0.00  0.00    -0.287 OA
ATOM     10  C   LIG A   1      -9.268   3.254 130.331  0.00  0.00    +0.143 A 
ATOM     11  C   LIG A   1      -8.902   2.337 129.347  0.00  0.00    +0.092 A 
ENDROOT
BRANCH   7  12
ATOM     12  C   LIG A   1     -10.996   6.499 130.330  0.00  0.00    +0.021 A 
ATOM     13  C   LIG A   1     -10.522   7.114 129.159  0.00  0.00    +0.060 A 
ATOM     14  C   LIG A   1     -11.177   8.230 128.647  0.00  0.00    +0.159 A 
ATOM     15  C   LIG A   1     -12.298   8.746 129.291  0.00  0.00    +0.158 A 
ATOM     16  C   LIG A   1     -12.778   8.163 130.452  0.00  0.00    +0.050 A 
ATOM     17  C   LIG A   1     -12.124   7.042 130.973  0.00  0.00    +0.015 A 
BRANCH  14  18
ATOM     18  O   LIG A   1     -10.754   8.858 127.508  0.00  0.00    -0.503 OA
ATOM     19  H   LIG A   1     -10.679   8.192 126.802  0.00  0.00    +0.292 HD
ENDBRANCH  14  18
BRANCH  15  20
ATOM     20  O   LIG A   1     -12.934   9.841 128.782  0.00  0.00    -0.503 OA
ATOM     21  H   LIG A   1     -12.891  10.505 129.499  0.00  0.00    +0.292 HD
ENDBRANCH  15  20
ENDBRANCH   7  12
BRANCH   1  22
ATOM     22  O   LIG A   1      -7.899   0.298 128.721  0.00  0.00    -0.507 OA
ATOM     23  H   LIG A   1      -8.473  -0.484 128.777  0.00  0.00    +0.292 HD
ENDBRANCH   1  22
TORSDOF 4
ENDMDL
MODEL 6
REMARK VINA RESULT:      -6.9      8.547      9.719
REMARK  Name = NuBBE_565
REMARK  4 active torsions:
REMARK  status: ('A' for Active; 'I' for Inactive)
REMARK    1  A    between atoms: O_1  and  C_2
REMARK    2  A    between atoms: C_8  and  C_9
REMARK    3  A    between atoms: C_11  and  O_12
REMARK    4  A    between atoms: C_13  and  O_14
REMARK                            x       y       z     vdW  Elec       q    Type
REMARK                         _______ _______ _______ _____ _____    ______ ____
ROOT
ATOM      1  C   LIG A   1      -9.194  -3.116 124.008  0.00  0.00    +0.120 A 
ATOM      2  C   LIG A   1      -8.418  -3.976 124.783  0.00  0.00    +0.046 A 
ATOM      3  C   LIG A   1      -7.385  -3.452 125.563  0.00  0.00    +0.019 A 
ATOM      4  C   LIG A   1      -7.145  -2.074 125.557  0.00  0.00    +0.064 A 
ATOM      5  C   LIG A   1      -6.068  -1.493 126.372  0.00  0.00    +0.193 A 
ATOM      6  C   LIG A   1      -5.899  -0.033 126.295  0.00  0.00    +0.098 A 
ATOM      7  C   LIG A   1      -6.710   0.682 125.501  0.00  0.00    +0.139 A 
ATOM      8  O   LIG A   1      -7.734   0.136 124.740  0.00  0.00    -0.455 OA
ATOM      9  O   LIG A   1      -5.343  -2.177 127.082  0.00  0.00    -0.287 OA
ATOM     10  C   LIG A   1      -7.926  -1.222 124.780  0.00  0.00    +0.143 A 
ATOM     11  C   LIG A   1      -8.957  -1.744 124.000  0.00  0.00    +0.092 A 
ENDROOT
BRANCH   7  12
ATOM     12  C   LIG A   1      -6.595   2.150 125.391  0.00  0.00    +0.021 A 
ATOM     13  C   LIG A   1      -7.751   2.948 125.450  0.00  0.00    +0.060 A 
ATOM     14  C   LIG A   1      -7.647   4.330 125.337  0.00  0.00    +0.159 A 
ATOM     15  C   LIG A   1      -6.405   4.931 125.159  0.00  0.00    +0.158 A 
ATOM     16  C   LIG A   1      -5.253   4.166 125.087  0.00  0.00    +0.050 A 
ATOM     17  C   LIG A   1      -5.349   2.776 125.200  0.00  0.00    +0.015 A 
BRANCH  14  18
ATOM     18  O   LIG A   1      -8.744   5.146 125.393  0.00  0.00    -0.503 OA
ATOM     19  H   LIG A   1      -8.777   5.552 126.277  0.00  0.00    +0.292 HD
ENDBRANCH  14  18
BRANCH  15  20
ATOM     20  O   LIG A   1      -6.312   6.289 125.048  0.00  0.00    -0.503 OA
ATOM     21  H   LIG A   1      -6.295   6.610 125.972  0.00  0.00    +0.292 HD
ENDBRANCH  15  20
ENDBRANCH   7  12
BRANCH   1  22
ATOM     22  O   LIG A   1     -10.212  -3.585 123.233  0.00  0.00    -0.507 OA
ATOM     23  H   LIG A   1     -10.750  -4.203 123.757  0.00  0.00    +0.292 HD
ENDBRANCH   1  22
TORSDOF 4
ENDMDL
MODEL 7
REMARK VINA RESULT:      -6.7      8.808      9.334
REMARK  Name = NuBBE_565
REMARK  4 active torsions:
REMARK  status: ('A' for Active; 'I' for Inactive)
REMARK    1  A    between atoms: O_1  and  C_2
REMARK    2  A    between atoms: C_8  and  C_9
REMARK    3  A    between atoms: C_11  and  O_12
REMARK    4  A    between atoms: C_13  and  O_14
REMARK                            x       y       z     vdW  Elec       q    Type
REMARK                         _______ _______ _______ _____ _____    ______ ____
ROOT
ATOM      1  C   LIG A   1      -8.555   2.542 124.020  0.00  0.00    +0.120 A 
ATOM      2  C   LIG A   1      -9.290   1.893 123.030  0.00  0.00    +0.046 A 
ATOM      3  C   LIG A   1      -9.464   0.509 123.101  0.00  0.00    +0.019 A 
ATOM      4  C   LIG A   1      -8.899  -0.205 124.163  0.00  0.00    +0.064 A 
ATOM      5  C   LIG A   1      -9.068  -1.661 124.267  0.00  0.00    +0.193 A 
ATOM      6  C   LIG A   1      -8.435  -2.317 125.422  0.00  0.00    +0.098 A 
ATOM      7  C   LIG A   1      -7.744  -1.576 126.301  0.00  0.00    +0.139 A 
ATOM      8  O   LIG A   1      -7.592  -0.200 126.211  0.00  0.00    -0.455 OA
ATOM      9  O   LIG A   1      -9.702  -2.307 123.442  0.00  0.00    -0.287 OA
ATOM     10  C   LIG A   1      -8.165   0.452 125.148  0.00  0.00    +0.143 A 
ATOM     11  C   LIG A   1      -7.990   1.834 125.078  0.00  0.00    +0.092 A 
ENDROOT
BRANCH   7  12
ATOM     12  C   LIG A   1      -7.096  -2.177 127.485  0.00  0.00    +0.021 A 
ATOM     13  C   LIG A   1      -5.722  -1.976 127.706  0.00  0.00    +0.060 A 
ATOM     14  C   LIG A   1      -5.107  -2.550 128.815  0.00  0.00    +0.159 A 
ATOM     15  C   LIG A   1      -5.842  -3.327 129.705  0.00  0.00    +0.158 A 
ATOM     16  C   LIG A   1      -7.194  -3.547 129.502  0.00  0.00    +0.050 A 
ATOM     17  C   LIG A   1      -7.819  -2.975 128.390  0.00  0.00    +0.015 A 
BRANCH  14  18
ATOM     18  O   LIG A   1      -3.775  -2.378 129.072  0.00  0.00    -0.503 OA
ATOM     19  H   LIG A   1      -3.685  -1.735 129.797  0.00  0.00    +0.292 HD
ENDBRANCH  14  18
BRANCH  15  20
ATOM     20  O   LIG A   1      -5.230  -3.886 130.790  0.00  0.00    -0.503 OA
ATOM     21  H   LIG A   1      -5.793  -4.653 131.021  0.00  0.00    +0.292 HD
ENDBRANCH  15  20
ENDBRANCH   7  12
BRANCH   1  22
ATOM     22  O   LIG A   1      -8.362   3.891 123.990  0.00  0.00    -0.507 OA
ATOM     23  H   LIG A   1      -7.663   4.124 124.624  0.00  0.00    +0.292 HD
ENDBRANCH   1  22
TORSDOF 4
ENDMDL
MODEL 8
REMARK VINA RESULT:      -6.6      2.911      7.177
REMARK  Name = NuBBE_565
REMARK  4 active torsions:
REMARK  status: ('A' for Active; 'I' for Inactive)
REMARK    1  A    between atoms: O_1  and  C_2
REMARK    2  A    between atoms: C_8  and  C_9
REMARK    3  A    between atoms: C_11  and  O_12
REMARK    4  A    between atoms: C_13  and  O_14
REMARK                            x       y       z     vdW  Elec       q    Type
REMARK                         _______ _______ _______ _____ _____    ______ ____
ROOT
ATOM      1  C   LIG A   1      -2.322   6.511 128.979  0.00  0.00    +0.120 A 
ATOM      2  C   LIG A   1      -1.428   6.497 130.048  0.00  0.00    +0.046 A 
ATOM      3  C   LIG A   1      -1.919   6.403 131.351  0.00  0.00    +0.019 A 
ATOM      4  C   LIG A   1      -3.300   6.323 131.566  0.00  0.00    +0.064 A 
ATOM      5  C   LIG A   1      -3.846   6.219 132.927  0.00  0.00    +0.193 A 
ATOM      6  C   LIG A   1      -5.310   6.139 133.044  0.00  0.00    +0.098 A 
ATOM      7  C   LIG A   1      -6.062   6.172 131.933  0.00  0.00    +0.139 A 
ATOM      8  O   LIG A   1      -5.547   6.259 130.647  0.00  0.00    -0.455 OA
ATOM      9  O   LIG A   1      -3.130   6.196 133.920  0.00  0.00    -0.287 OA
ATOM     10  C   LIG A   1      -4.186   6.337 130.492  0.00  0.00    +0.143 A 
ATOM     11  C   LIG A   1      -3.697   6.432 129.190  0.00  0.00    +0.092 A 
ENDROOT
BRANCH   7  12
ATOM     12  C   LIG A   1      -7.535   6.085 131.987  0.00  0.00    +0.021 A 
ATOM     13  C   LIG A   1      -8.151   5.237 132.924  0.00  0.00    +0.060 A 
ATOM     14  C   LIG A   1      -9.538   5.146 132.970  0.00  0.00    +0.159 A 
ATOM     15  C   LIG A   1     -10.323   5.884 132.090  0.00  0.00    +0.158 A 
ATOM     16  C   LIG A   1      -9.739   6.718 131.150  0.00  0.00    +0.050 A 
ATOM     17  C   LIG A   1      -8.345   6.815 131.097  0.00  0.00    +0.015 A 
BRANCH  14  18
ATOM     18  O   LIG A   1     -10.181   4.338 133.868  0.00  0.00    -0.503 OA
ATOM     19  H   LIG A   1     -11.026   4.758 134.105  0.00  0.00    +0.292 HD
ENDBRANCH  14  18
BRANCH  15  20
ATOM     20  O   LIG A   1     -11.684   5.787 132.142  0.00  0.00    -0.503 OA
ATOM     21  H   LIG A   1     -11.890   5.744 133.097  0.00  0.00    +0.292 HD
ENDBRANCH  15  20
ENDBRANCH   7  12
BRANCH   1  22
ATOM     22  O   LIG A   1      -1.886   6.601 127.691  0.00  0.00    -0.507 OA
ATOM     23  H   LIG A   1      -1.997   5.737 127.258  0.00  0.00    +0.292 HD
ENDBRANCH   1  22
TORSDOF 4
ENDMDL
MODEL 9
REMARK VINA RESULT:      -6.5      2.987      8.092
REMARK  Name = NuBBE_565
REMARK  4 active torsions:
REMARK  status: ('A' for Active; 'I' for Inactive)
REMARK    1  A    between atoms: O_1  and  C_2
REMARK    2  A    between atoms: C_8  and  C_9
REMARK    3  A    between atoms: C_11  and  O_12
REMARK    4  A    between atoms: C_13  and  O_14
REMARK                            x       y       z     vdW  Elec       q    Type
REMARK                         _______ _______ _______ _____ _____    ______ ____
ROOT
ATOM      1  C   LIG A   1      -1.502   6.530 133.856  0.00  0.00    +0.120 A 
ATOM      2  C   LIG A   1      -0.811   6.708 132.660  0.00  0.00    +0.046 A 
ATOM      3  C   LIG A   1      -1.522   6.769 131.460  0.00  0.00    +0.019 A 
ATOM      4  C   LIG A   1      -2.916   6.652 131.476  0.00  0.00    +0.064 A 
ATOM      5  C   LIG A   1      -3.692   6.717 130.229  0.00  0.00    +0.193 A 
ATOM      6  C   LIG A   1      -5.152   6.584 130.355  0.00  0.00    +0.098 A 
ATOM      7  C   LIG A   1      -5.694   6.407 131.569  0.00  0.00    +0.139 A 
ATOM      8  O   LIG A   1      -4.964   6.356 132.748  0.00  0.00    -0.455 OA
ATOM      9  O   LIG A   1      -3.163   6.875 129.136  0.00  0.00    -0.287 OA
ATOM     10  C   LIG A   1      -3.599   6.475 132.677  0.00  0.00    +0.143 A 
ATOM     11  C   LIG A   1      -2.889   6.413 133.876  0.00  0.00    +0.092 A 
ENDROOT
BRANCH   7  12
ATOM     12  C   LIG A   1      -7.153   6.278 131.759  0.00  0.00    +0.021 A 
ATOM     13  C   LIG A   1      -7.654   5.467 132.792  0.00  0.00    +0.060 A 
ATOM     14  C   LIG A   1      -9.028   5.336 132.966  0.00  0.00    +0.159 A 
ATOM     15  C   LIG A   1      -9.912   5.997 132.121  0.00  0.00    +0.158 A 
ATOM     16  C   LIG A   1      -9.443   6.794 131.089  0.00  0.00    +0.050 A 
ATOM     17  C   LIG A   1      -8.064   6.931 130.907  0.00  0.00    +0.015 A 
BRANCH  14  18
ATOM     18  O   LIG A   1      -9.561   4.561 133.960  0.00  0.00    -0.503 OA
ATOM     19  H   LIG A   1      -9.854   3.720 133.567  0.00  0.00    +0.292 HD
ENDBRANCH  14  18
BRANCH  15  20
ATOM     20  O   LIG A   1     -11.259   5.862 132.299  0.00  0.00    -0.503 OA
ATOM     21  H   LIG A   1     -11.636   6.702 131.967  0.00  0.00    +0.292 HD
ENDBRANCH  15  20
ENDBRANCH   7  12
BRANCH   1  22
ATOM     22  O   LIG A   1      -0.847   6.466 135.050  0.00  0.00    -0.507 OA
ATOM     23  H   LIG A   1      -1.369   6.935 135.723  0.00  0.00    +0.292 HD
ENDBRANCH   1  22
TORSDOF 4
ENDMDL
