MODEL 1
REMARK VINA RESULT:      -5.2      0.000      0.000
REMARK  Name = NuBBE_2144
REMARK  14 active torsions:
REMARK  status: ('A' for Active; 'I' for Inactive)
REMARK    1  A    between atoms: O_1  and  C_2
REMARK    2  A    between atoms: C_2  and  C_3
REMARK    3  A    between atoms: C_3  and  C_4
REMARK    4  A    between atoms: C_4  and  C_5
REMARK    5  A    between atoms: C_5  and  C_6
REMARK    6  A    between atoms: C_6  and  C_7
REMARK    7  A    between atoms: C_7  and  C_8
REMARK    8  A    between atoms: C_8  and  C_9
REMARK    9  A    between atoms: C_9  and  C_10
REMARK   10  A    between atoms: C_10  and  C_11
REMARK   11  A    between atoms: C_11  and  C_12
REMARK   12  A    between atoms: C_12  and  C_13
REMARK   13  A    between atoms: C_13  and  C_14
REMARK   14  A    between atoms: C_14  and  C_15
REMARK                            x       y       z     vdW  Elec       q    Type
REMARK                         _______ _______ _______ _____ _____    ______ ____
ROOT
ATOM      1  C   LIG A   1     -11.133   6.604 131.419  0.00  0.00    -0.000 C 
ENDROOT
BRANCH   1   2
ATOM      2  C   LIG A   1     -11.985   6.819 130.162  0.00  0.00    +0.000 C 
BRANCH   2   3
ATOM      3  C   LIG A   1     -12.426   8.262 129.881  0.00  0.00    +0.000 C 
BRANCH   3   4
ATOM      4  C   LIG A   1     -12.223   8.677 128.425  0.00  0.00    +0.011 C 
BRANCH   4   5
ATOM      5  C   LIG A   1     -10.943   8.105 127.823  0.00  0.00    +0.120 C 
BRANCH   5   6
ATOM      6  C   LIG A   1     -11.150   7.588 126.425  0.00  0.00    +0.305 C 
ATOM      7  O   LIG A   1     -10.723   8.117 125.408  0.00  0.00    -0.251 OA
BRANCH   6   8
ATOM      8  O   LIG A   1     -11.926   6.496 126.341  0.00  0.00    -0.481 OA
ATOM      9  H   LIG A   1     -12.652   6.658 126.982  0.00  0.00    +0.295 HD
ENDBRANCH   6   8
ENDBRANCH   5   6
ENDBRANCH   4   5
ENDBRANCH   3   4
ENDBRANCH   2   3
ENDBRANCH   1   2
BRANCH   1  10
ATOM     10  C   LIG A   1      -9.662   6.289 131.135  0.00  0.00    -0.000 C 
BRANCH  10  11
ATOM     11  C   LIG A   1      -9.529   5.359 129.925  0.00  0.00    -0.000 C 
BRANCH  11  12
ATOM     12  C   LIG A   1      -9.086   3.946 130.328  0.00  0.00    -0.000 C 
BRANCH  12  13
ATOM     13  C   LIG A   1     -10.278   3.105 130.793  0.00  0.00    -0.000 C 
BRANCH  13  14
ATOM     14  C   LIG A   1      -9.890   2.107 131.891  0.00  0.00    -0.000 C 
BRANCH  14  15
ATOM     15  C   LIG A   1      -8.809   2.636 132.845  0.00  0.00    -0.000 C 
BRANCH  15  16
ATOM     16  C   LIG A   1      -9.335   3.667 133.846  0.00  0.00    -0.003 C 
ATOM     17  C   LIG A   1      -8.210   4.442 134.516  0.00  0.00    +0.004 C 
ENDBRANCH  15  16
ENDBRANCH  14  15
ENDBRANCH  13  14
ENDBRANCH  12  13
ENDBRANCH  11  12
ENDBRANCH  10  11
ENDBRANCH   1  10
TORSDOF 13
ENDMDL
MODEL 2
REMARK VINA RESULT:      -5.2      8.595     10.323
REMARK  Name = NuBBE_2144
REMARK  14 active torsions:
REMARK  status: ('A' for Active; 'I' for Inactive)
REMARK    1  A    between atoms: O_1  and  C_2
REMARK    2  A    between atoms: C_2  and  C_3
REMARK    3  A    between atoms: C_3  and  C_4
REMARK    4  A    between atoms: C_4  and  C_5
REMARK    5  A    between atoms: C_5  and  C_6
REMARK    6  A    between atoms: C_6  and  C_7
REMARK    7  A    between atoms: C_7  and  C_8
REMARK    8  A    between atoms: C_8  and  C_9
REMARK    9  A    between atoms: C_9  and  C_10
REMARK   10  A    between atoms: C_10  and  C_11
REMARK   11  A    between atoms: C_11  and  C_12
REMARK   12  A    between atoms: C_12  and  C_13
REMARK   13  A    between atoms: C_13  and  C_14
REMARK   14  A    between atoms: C_14  and  C_15
REMARK                            x       y       z     vdW  Elec       q    Type
REMARK                         _______ _______ _______ _____ _____    ______ ____
ROOT
ATOM      1  C   LIG A   1      -9.412  -2.605 125.471  0.00  0.00    -0.000 C 
ENDROOT
BRANCH   1   2
ATOM      2  C   LIG A   1      -9.316  -3.211 124.065  0.00  0.00    +0.000 C 
BRANCH   2   3
ATOM      3  C   LIG A   1      -9.281  -2.214 122.899  0.00  0.00    +0.000 C 
BRANCH   3   4
ATOM      4  C   LIG A   1      -9.072  -0.770 123.352  0.00  0.00    +0.011 C 
BRANCH   4   5
ATOM      5  C   LIG A   1     -10.045   0.201 122.691  0.00  0.00    +0.120 C 
BRANCH   5   6
ATOM      6  C   LIG A   1      -9.834   1.620 123.146  0.00  0.00    +0.305 C 
ATOM      7  O   LIG A   1      -9.150   2.452 122.566  0.00  0.00    -0.251 OA
BRANCH   6   8
ATOM      8  O   LIG A   1     -10.411   1.922 124.319  0.00  0.00    -0.481 OA
ATOM      9  H   LIG A   1     -11.346   2.117 124.094  0.00  0.00    +0.295 HD
ENDBRANCH   6   8
ENDBRANCH   5   6
ENDBRANCH   4   5
ENDBRANCH   3   4
ENDBRANCH   2   3
ENDBRANCH   1   2
BRANCH   1  10
ATOM     10  C   LIG A   1      -8.424  -3.198 126.479  0.00  0.00    -0.000 C 
BRANCH  10  11
ATOM     11  C   LIG A   1      -7.476  -2.118 127.010  0.00  0.00    -0.000 C 
BRANCH  11  12
ATOM     12  C   LIG A   1      -6.018  -2.380 126.610  0.00  0.00    -0.000 C 
BRANCH  12  13
ATOM     13  C   LIG A   1      -5.491  -1.276 125.689  0.00  0.00    -0.000 C 
BRANCH  13  14
ATOM     14  C   LIG A   1      -5.818  -1.546 124.215  0.00  0.00    -0.000 C 
BRANCH  14  15
ATOM     15  C   LIG A   1      -5.736  -3.031 123.831  0.00  0.00    -0.000 C 
BRANCH  15  16
ATOM     16  C   LIG A   1      -4.317  -3.493 123.493  0.00  0.00    -0.003 C 
ATOM     17  C   LIG A   1      -4.199  -5.010 123.466  0.00  0.00    +0.004 C 
ENDBRANCH  15  16
ENDBRANCH  14  15
ENDBRANCH  13  14
ENDBRANCH  12  13
ENDBRANCH  11  12
ENDBRANCH  10  11
ENDBRANCH   1  10
TORSDOF 13
ENDMDL
MODEL 3
REMARK VINA RESULT:      -5.1      3.110      6.549
REMARK  Name = NuBBE_2144
REMARK  14 active torsions:
REMARK  status: ('A' for Active; 'I' for Inactive)
REMARK    1  A    between atoms: O_1  and  C_2
REMARK    2  A    between atoms: C_2  and  C_3
REMARK    3  A    between atoms: C_3  and  C_4
REMARK    4  A    between atoms: C_4  and  C_5
REMARK    5  A    between atoms: C_5  and  C_6
REMARK    6  A    between atoms: C_6  and  C_7
REMARK    7  A    between atoms: C_7  and  C_8
REMARK    8  A    between atoms: C_8  and  C_9
REMARK    9  A    between atoms: C_9  and  C_10
REMARK   10  A    between atoms: C_10  and  C_11
REMARK   11  A    between atoms: C_11  and  C_12
REMARK   12  A    between atoms: C_12  and  C_13
REMARK   13  A    between atoms: C_13  and  C_14
REMARK   14  A    between atoms: C_14  and  C_15
REMARK                            x       y       z     vdW  Elec       q    Type
REMARK                         _______ _______ _______ _____ _____    ______ ____
ROOT
ATOM      1  C   LIG A   1      -9.152   6.877 130.790  0.00  0.00    -0.000 C 
ENDROOT
BRANCH   1   2
ATOM      2  C   LIG A   1      -7.885   6.520 131.578  0.00  0.00    +0.000 C 
BRANCH   2   3
ATOM      3  C   LIG A   1      -7.768   5.064 132.048  0.00  0.00    +0.000 C 
BRANCH   3   4
ATOM      4  C   LIG A   1      -8.047   4.894 133.541  0.00  0.00    +0.011 C 
BRANCH   4   5
ATOM      5  C   LIG A   1      -9.266   4.019 133.815  0.00  0.00    +0.120 C 
BRANCH   5   6
ATOM      6  C   LIG A   1      -9.195   2.698 133.098  0.00  0.00    +0.305 C 
ATOM      7  O   LIG A   1      -8.292   1.881 133.213  0.00  0.00    -0.251 OA
BRANCH   6   8
ATOM      8  O   LIG A   1     -10.193   2.479 132.227  0.00  0.00    -0.481 OA
ATOM      9  H   LIG A   1     -10.798   3.243 132.346  0.00  0.00    +0.295 HD
ENDBRANCH   6   8
ENDBRANCH   5   6
ENDBRANCH   4   5
ENDBRANCH   3   4
ENDBRANCH   2   3
ENDBRANCH   1   2
BRANCH   1  10
ATOM     10  C   LIG A   1      -9.812   5.686 130.090  0.00  0.00    -0.000 C 
BRANCH  10  11
ATOM     11  C   LIG A   1     -11.233   5.465 130.617  0.00  0.00    -0.000 C 
BRANCH  11  12
ATOM     12  C   LIG A   1     -11.644   6.533 131.639  0.00  0.00    -0.000 C 
BRANCH  12  13
ATOM     13  C   LIG A   1     -12.768   7.417 131.091  0.00  0.00    -0.000 C 
BRANCH  13  14
ATOM     14  C   LIG A   1     -13.141   7.053 129.649  0.00  0.00    -0.000 C 
BRANCH  14  15
ATOM     15  C   LIG A   1     -12.976   8.217 128.661  0.00  0.00    -0.000 C 
BRANCH  15  16
ATOM     16  C   LIG A   1     -11.524   8.668 128.490  0.00  0.00    -0.003 C 
ATOM     17  C   LIG A   1     -10.855   8.008 127.294  0.00  0.00    +0.004 C 
ENDBRANCH  15  16
ENDBRANCH  14  15
ENDBRANCH  13  14
ENDBRANCH  12  13
ENDBRANCH  11  12
ENDBRANCH  10  11
ENDBRANCH   1  10
TORSDOF 13
ENDMDL
MODEL 4
REMARK VINA RESULT:      -5.1     10.019     12.107
REMARK  Name = NuBBE_2144
REMARK  14 active torsions:
REMARK  status: ('A' for Active; 'I' for Inactive)
REMARK    1  A    between atoms: O_1  and  C_2
REMARK    2  A    between atoms: C_2  and  C_3
REMARK    3  A    between atoms: C_3  and  C_4
REMARK    4  A    between atoms: C_4  and  C_5
REMARK    5  A    between atoms: C_5  and  C_6
REMARK    6  A    between atoms: C_6  and  C_7
REMARK    7  A    between atoms: C_7  and  C_8
REMARK    8  A    between atoms: C_8  and  C_9
REMARK    9  A    between atoms: C_9  and  C_10
REMARK   10  A    between atoms: C_10  and  C_11
REMARK   11  A    between atoms: C_11  and  C_12
REMARK   12  A    between atoms: C_12  and  C_13
REMARK   13  A    between atoms: C_13  and  C_14
REMARK   14  A    between atoms: C_14  and  C_15
REMARK                            x       y       z     vdW  Elec       q    Type
REMARK                         _______ _______ _______ _____ _____    ______ ____
ROOT
ATOM      1  C   LIG A   1      -9.486  -3.029 125.806  0.00  0.00    -0.000 C 
ENDROOT
BRANCH   1   2
ATOM      2  C   LIG A   1      -8.657  -2.757 127.068  0.00  0.00    +0.000 C 
BRANCH   2   3
ATOM      3  C   LIG A   1      -8.800  -3.777 128.205  0.00  0.00    +0.000 C 
BRANCH   3   4
ATOM      4  C   LIG A   1      -8.086  -3.349 129.486  0.00  0.00    +0.011 C 
BRANCH   4   5
ATOM      5  C   LIG A   1      -6.585  -3.164 129.288  0.00  0.00    +0.120 C 
BRANCH   5   6
ATOM      6  C   LIG A   1      -5.777  -3.885 130.334  0.00  0.00    +0.305 C 
ATOM      7  O   LIG A   1      -5.769  -5.095 130.508  0.00  0.00    -0.251 OA
BRANCH   6   8
ATOM      8  O   LIG A   1      -5.081  -3.082 131.155  0.00  0.00    -0.481 OA
ATOM      9  H   LIG A   1      -5.764  -2.555 131.623  0.00  0.00    +0.295 HD
ENDBRANCH   6   8
ENDBRANCH   5   6
ENDBRANCH   4   5
ENDBRANCH   3   4
ENDBRANCH   2   3
ENDBRANCH   1   2
BRANCH   1  10
ATOM     10  C   LIG A   1      -8.691  -3.650 124.654  0.00  0.00    -0.000 C 
BRANCH  10  11
ATOM     11  C   LIG A   1      -9.162  -3.094 123.306  0.00  0.00    -0.000 C 
BRANCH  11  12
ATOM     12  C   LIG A   1      -8.793  -1.616 123.129  0.00  0.00    -0.000 C 
BRANCH  12  13
ATOM     13  C   LIG A   1      -7.330  -1.363 123.508  0.00  0.00    -0.000 C 
BRANCH  13  14
ATOM     14  C   LIG A   1      -6.355  -2.063 122.553  0.00  0.00    -0.000 C 
BRANCH  14  15
ATOM     15  C   LIG A   1      -5.071  -2.551 123.240  0.00  0.00    -0.000 C 
BRANCH  15  16
ATOM     16  C   LIG A   1      -5.224  -3.917 123.912  0.00  0.00    -0.003 C 
ATOM     17  C   LIG A   1      -4.164  -4.906 123.450  0.00  0.00    +0.004 C 
ENDBRANCH  15  16
ENDBRANCH  14  15
ENDBRANCH  13  14
ENDBRANCH  12  13
ENDBRANCH  11  12
ENDBRANCH  10  11
ENDBRANCH   1  10
TORSDOF 13
ENDMDL
MODEL 5
REMARK VINA RESULT:      -5.1      8.592     10.471
REMARK  Name = NuBBE_2144
REMARK  14 active torsions:
REMARK  status: ('A' for Active; 'I' for Inactive)
REMARK    1  A    between atoms: O_1  and  C_2
REMARK    2  A    between atoms: C_2  and  C_3
REMARK    3  A    between atoms: C_3  and  C_4
REMARK    4  A    between atoms: C_4  and  C_5
REMARK    5  A    between atoms: C_5  and  C_6
REMARK    6  A    between atoms: C_6  and  C_7
REMARK    7  A    between atoms: C_7  and  C_8
REMARK    8  A    between atoms: C_8  and  C_9
REMARK    9  A    between atoms: C_9  and  C_10
REMARK   10  A    between atoms: C_10  and  C_11
REMARK   11  A    between atoms: C_11  and  C_12
REMARK   12  A    between atoms: C_12  and  C_13
REMARK   13  A    between atoms: C_13  and  C_14
REMARK   14  A    between atoms: C_14  and  C_15
REMARK                            x       y       z     vdW  Elec       q    Type
REMARK                         _______ _______ _______ _____ _____    ______ ____
ROOT
ATOM      1  C   LIG A   1      -8.857  -4.005 127.617  0.00  0.00    -0.000 C 
ENDROOT
BRANCH   1   2
ATOM      2  C   LIG A   1      -9.084  -3.172 126.349  0.00  0.00    +0.000 C 
BRANCH   2   3
ATOM      3  C   LIG A   1      -8.571  -3.781 125.037  0.00  0.00    +0.000 C 
BRANCH   3   4
ATOM      4  C   LIG A   1      -9.420  -3.396 123.827  0.00  0.00    +0.011 C 
BRANCH   4   5
ATOM      5  C   LIG A   1      -8.713  -2.410 122.902  0.00  0.00    +0.120 C 
BRANCH   5   6
ATOM      6  C   LIG A   1      -9.202  -0.999 123.089  0.00  0.00    +0.305 C 
ATOM      7  O   LIG A   1     -10.132  -0.490 122.480  0.00  0.00    -0.251 OA
BRANCH   6   8
ATOM      8  O   LIG A   1      -8.484  -0.268 123.955  0.00  0.00    -0.481 OA
ATOM      9  H   LIG A   1      -8.420  -0.827 124.759  0.00  0.00    +0.295 HD
ENDBRANCH   6   8
ENDBRANCH   5   6
ENDBRANCH   4   5
ENDBRANCH   3   4
ENDBRANCH   2   3
ENDBRANCH   1   2
BRANCH   1  10
ATOM     10  C   LIG A   1      -8.485  -3.181 128.852  0.00  0.00    -0.000 C 
BRANCH  10  11
ATOM     11  C   LIG A   1      -7.003  -2.795 128.823  0.00  0.00    -0.000 C 
BRANCH  11  12
ATOM     12  C   LIG A   1      -6.797  -1.316 128.468  0.00  0.00    -0.000 C 
BRANCH  12  13
ATOM     13  C   LIG A   1      -5.537  -1.122 127.619  0.00  0.00    -0.000 C 
BRANCH  13  14
ATOM     14  C   LIG A   1      -5.828  -1.231 126.117  0.00  0.00    -0.000 C 
BRANCH  14  15
ATOM     15  C   LIG A   1      -5.426  -2.584 125.512  0.00  0.00    -0.000 C 
BRANCH  15  16
ATOM     16  C   LIG A   1      -5.206  -2.531 123.998  0.00  0.00    -0.003 C 
ATOM     17  C   LIG A   1      -4.539  -3.793 123.470  0.00  0.00    +0.004 C 
ENDBRANCH  15  16
ENDBRANCH  14  15
ENDBRANCH  13  14
ENDBRANCH  12  13
ENDBRANCH  11  12
ENDBRANCH  10  11
ENDBRANCH   1  10
TORSDOF 13
ENDMDL
MODEL 6
REMARK VINA RESULT:      -5.0     10.116     11.995
REMARK  Name = NuBBE_2144
REMARK  14 active torsions:
REMARK  status: ('A' for Active; 'I' for Inactive)
REMARK    1  A    between atoms: O_1  and  C_2
REMARK    2  A    between atoms: C_2  and  C_3
REMARK    3  A    between atoms: C_3  and  C_4
REMARK    4  A    between atoms: C_4  and  C_5
REMARK    5  A    between atoms: C_5  and  C_6
REMARK    6  A    between atoms: C_6  and  C_7
REMARK    7  A    between atoms: C_7  and  C_8
REMARK    8  A    between atoms: C_8  and  C_9
REMARK    9  A    between atoms: C_9  and  C_10
REMARK   10  A    between atoms: C_10  and  C_11
REMARK   11  A    between atoms: C_11  and  C_12
REMARK   12  A    between atoms: C_12  and  C_13
REMARK   13  A    between atoms: C_13  and  C_14
REMARK   14  A    between atoms: C_14  and  C_15
REMARK                            x       y       z     vdW  Elec       q    Type
REMARK                         _______ _______ _______ _____ _____    ______ ____
ROOT
ATOM      1  C   LIG A   1      -8.193  -2.725 127.513  0.00  0.00    -0.000 C 
ENDROOT
BRANCH   1   2
ATOM      2  C   LIG A   1      -8.094  -3.504 128.831  0.00  0.00    +0.000 C 
BRANCH   2   3
ATOM      3  C   LIG A   1      -7.176  -2.904 129.905  0.00  0.00    +0.000 C 
BRANCH   3   4
ATOM      4  C   LIG A   1      -5.868  -3.675 130.072  0.00  0.00    +0.011 C 
BRANCH   4   5
ATOM      5  C   LIG A   1      -4.779  -3.200 129.115  0.00  0.00    +0.120 C 
BRANCH   5   6
ATOM      6  C   LIG A   1      -3.400  -3.577 129.585  0.00  0.00    +0.305 C 
ATOM      7  O   LIG A   1      -2.939  -3.326 130.690  0.00  0.00    -0.251 OA
BRANCH   6   8
ATOM      8  O   LIG A   1      -2.637  -4.176 128.658  0.00  0.00    -0.481 OA
ATOM      9  H   LIG A   1      -2.863  -5.128 128.728  0.00  0.00    +0.295 HD
ENDBRANCH   6   8
ENDBRANCH   5   6
ENDBRANCH   4   5
ENDBRANCH   3   4
ENDBRANCH   2   3
ENDBRANCH   1   2
BRANCH   1  10
ATOM     10  C   LIG A   1      -8.796  -3.526 126.355  0.00  0.00    -0.000 C 
BRANCH  10  11
ATOM     11  C   LIG A   1      -9.247  -2.594 125.226  0.00  0.00    -0.000 C 
BRANCH  11  12
ATOM     12  C   LIG A   1      -9.287  -3.307 123.868  0.00  0.00    -0.000 C 
BRANCH  12  13
ATOM     13  C   LIG A   1      -8.746  -2.405 122.755  0.00  0.00    -0.000 C 
BRANCH  13  14
ATOM     14  C   LIG A   1      -7.590  -1.520 123.237  0.00  0.00    -0.000 C 
BRANCH  14  15
ATOM     15  C   LIG A   1      -6.224  -1.936 122.672  0.00  0.00    -0.000 C 
BRANCH  15  16
ATOM     16  C   LIG A   1      -5.486  -2.950 123.549  0.00  0.00    -0.003 C 
ATOM     17  C   LIG A   1      -5.461  -2.532 125.012  0.00  0.00    +0.004 C 
ENDBRANCH  15  16
ENDBRANCH  14  15
ENDBRANCH  13  14
ENDBRANCH  12  13
ENDBRANCH  11  12
ENDBRANCH  10  11
ENDBRANCH   1  10
TORSDOF 13
ENDMDL
MODEL 7
REMARK VINA RESULT:      -5.0      8.090      9.610
REMARK  Name = NuBBE_2144
REMARK  14 active torsions:
REMARK  status: ('A' for Active; 'I' for Inactive)
REMARK    1  A    between atoms: O_1  and  C_2
REMARK    2  A    between atoms: C_2  and  C_3
REMARK    3  A    between atoms: C_3  and  C_4
REMARK    4  A    between atoms: C_4  and  C_5
REMARK    5  A    between atoms: C_5  and  C_6
REMARK    6  A    between atoms: C_6  and  C_7
REMARK    7  A    between atoms: C_7  and  C_8
REMARK    8  A    between atoms: C_8  and  C_9
REMARK    9  A    between atoms: C_9  and  C_10
REMARK   10  A    between atoms: C_10  and  C_11
REMARK   11  A    between atoms: C_11  and  C_12
REMARK   12  A    between atoms: C_12  and  C_13
REMARK   13  A    between atoms: C_13  and  C_14
REMARK   14  A    between atoms: C_14  and  C_15
REMARK                            x       y       z     vdW  Elec       q    Type
REMARK                         _______ _______ _______ _____ _____    ______ ____
ROOT
ATOM      1  C   LIG A   1      -8.957   2.547 123.988  0.00  0.00    -0.000 C 
ENDROOT
BRANCH   1   2
ATOM      2  C   LIG A   1      -8.541   2.761 122.527  0.00  0.00    +0.000 C 
BRANCH   2   3
ATOM      3  C   LIG A   1      -7.167   3.405 122.301  0.00  0.00    +0.000 C 
BRANCH   3   4
ATOM      4  C   LIG A   1      -6.915   3.781 120.842  0.00  0.00    +0.011 C 
BRANCH   4   5
ATOM      5  C   LIG A   1      -5.433   3.965 120.529  0.00  0.00    +0.120 C 
BRANCH   5   6
ATOM      6  C   LIG A   1      -5.124   5.345 120.014  0.00  0.00    +0.305 C 
ATOM      7  O   LIG A   1      -4.530   6.213 120.638  0.00  0.00    -0.251 OA
BRANCH   6   8
ATOM      8  O   LIG A   1      -5.620   5.611 118.795  0.00  0.00    -0.481 OA
ATOM      9  H   LIG A   1      -4.867   5.999 118.301  0.00  0.00    +0.295 HD
ENDBRANCH   6   8
ENDBRANCH   5   6
ENDBRANCH   4   5
ENDBRANCH   3   4
ENDBRANCH   2   3
ENDBRANCH   1   2
BRANCH   1  10
ATOM     10  C   LIG A   1      -9.893   1.356 124.206  0.00  0.00    -0.000 C 
BRANCH  10  11
ATOM     11  C   LIG A   1      -9.459   0.540 125.428  0.00  0.00    -0.000 C 
BRANCH  11  12
ATOM     12  C   LIG A   1      -9.051  -0.891 125.053  0.00  0.00    -0.000 C 
BRANCH  12  13
ATOM     13  C   LIG A   1      -8.952  -1.056 123.534  0.00  0.00    -0.000 C 
BRANCH  13  14
ATOM     14  C   LIG A   1      -7.524  -1.376 123.077  0.00  0.00    -0.000 C 
BRANCH  14  15
ATOM     15  C   LIG A   1      -6.443  -0.856 124.037  0.00  0.00    -0.000 C 
BRANCH  15  16
ATOM     16  C   LIG A   1      -5.468  -1.941 124.498  0.00  0.00    -0.003 C 
ATOM     17  C   LIG A   1      -5.176  -2.955 123.402  0.00  0.00    +0.004 C 
ENDBRANCH  15  16
ENDBRANCH  14  15
ENDBRANCH  13  14
ENDBRANCH  12  13
ENDBRANCH  11  12
ENDBRANCH  10  11
ENDBRANCH   1  10
TORSDOF 13
ENDMDL
MODEL 8
REMARK VINA RESULT:      -4.9      7.515      9.504
REMARK  Name = NuBBE_2144
REMARK  14 active torsions:
REMARK  status: ('A' for Active; 'I' for Inactive)
REMARK    1  A    between atoms: O_1  and  C_2
REMARK    2  A    between atoms: C_2  and  C_3
REMARK    3  A    between atoms: C_3  and  C_4
REMARK    4  A    between atoms: C_4  and  C_5
REMARK    5  A    between atoms: C_5  and  C_6
REMARK    6  A    between atoms: C_6  and  C_7
REMARK    7  A    between atoms: C_7  and  C_8
REMARK    8  A    between atoms: C_8  and  C_9
REMARK    9  A    between atoms: C_9  and  C_10
REMARK   10  A    between atoms: C_10  and  C_11
REMARK   11  A    between atoms: C_11  and  C_12
REMARK   12  A    between atoms: C_12  and  C_13
REMARK   13  A    between atoms: C_13  and  C_14
REMARK   14  A    between atoms: C_14  and  C_15
REMARK                            x       y       z     vdW  Elec       q    Type
REMARK                         _______ _______ _______ _____ _____    ______ ____
ROOT
ATOM      1  C   LIG A   1      -6.673  -2.221 127.156  0.00  0.00    -0.000 C 
ENDROOT
BRANCH   1   2
ATOM      2  C   LIG A   1      -6.606  -0.696 127.001  0.00  0.00    +0.000 C 
BRANCH   2   3
ATOM      3  C   LIG A   1      -7.851   0.085 127.442  0.00  0.00    +0.000 C 
BRANCH   3   4
ATOM      4  C   LIG A   1      -8.272   1.156 126.438  0.00  0.00    +0.011 C 
BRANCH   4   5
ATOM      5  C   LIG A   1      -9.575   0.814 125.723  0.00  0.00    +0.120 C 
BRANCH   5   6
ATOM      6  C   LIG A   1      -9.762   1.611 124.461  0.00  0.00    +0.305 C 
ATOM      7  O   LIG A   1     -10.061   1.145 123.370  0.00  0.00    -0.251 OA
BRANCH   6   8
ATOM      8  O   LIG A   1      -9.504   2.923 124.583  0.00  0.00    -0.481 OA
ATOM      9  H   LIG A   1      -8.579   3.023 124.272  0.00  0.00    +0.295 HD
ENDBRANCH   6   8
ENDBRANCH   5   6
ENDBRANCH   4   5
ENDBRANCH   3   4
ENDBRANCH   2   3
ENDBRANCH   1   2
BRANCH   1  10
ATOM     10  C   LIG A   1      -8.035  -2.746 127.618  0.00  0.00    -0.000 C 
BRANCH  10  11
ATOM     11  C   LIG A   1      -8.686  -3.601 126.527  0.00  0.00    -0.000 C 
BRANCH  11  12
ATOM     12  C   LIG A   1      -9.393  -2.747 125.467  0.00  0.00    -0.000 C 
BRANCH  12  13
ATOM     13  C   LIG A   1      -9.304  -3.399 124.084  0.00  0.00    -0.000 C 
BRANCH  13  14
ATOM     14  C   LIG A   1      -8.712  -2.451 123.033  0.00  0.00    -0.000 C 
BRANCH  14  15
ATOM     15  C   LIG A   1      -7.616  -1.530 123.588  0.00  0.00    -0.000 C 
BRANCH  15  16
ATOM     16  C   LIG A   1      -6.234  -1.802 122.990  0.00  0.00    -0.003 C 
ATOM     17  C   LIG A   1      -5.533  -2.969 123.671  0.00  0.00    +0.004 C 
ENDBRANCH  15  16
ENDBRANCH  14  15
ENDBRANCH  13  14
ENDBRANCH  12  13
ENDBRANCH  11  12
ENDBRANCH  10  11
ENDBRANCH   1  10
TORSDOF 13
ENDMDL
MODEL 9
REMARK VINA RESULT:      -4.9      1.095      2.532
REMARK  Name = NuBBE_2144
REMARK  14 active torsions:
REMARK  status: ('A' for Active; 'I' for Inactive)
REMARK    1  A    between atoms: O_1  and  C_2
REMARK    2  A    between atoms: C_2  and  C_3
REMARK    3  A    between atoms: C_3  and  C_4
REMARK    4  A    between atoms: C_4  and  C_5
REMARK    5  A    between atoms: C_5  and  C_6
REMARK    6  A    between atoms: C_6  and  C_7
REMARK    7  A    between atoms: C_7  and  C_8
REMARK    8  A    between atoms: C_8  and  C_9
REMARK    9  A    between atoms: C_9  and  C_10
REMARK   10  A    between atoms: C_10  and  C_11
REMARK   11  A    between atoms: C_11  and  C_12
REMARK   12  A    between atoms: C_12  and  C_13
REMARK   13  A    between atoms: C_13  and  C_14
REMARK   14  A    between atoms: C_14  and  C_15
REMARK                            x       y       z     vdW  Elec       q    Type
REMARK                         _______ _______ _______ _____ _____    ______ ____
ROOT
ATOM      1  C   LIG A   1      -9.554   6.853 130.522  0.00  0.00    -0.000 C 
ENDROOT
BRANCH   1   2
ATOM      2  C   LIG A   1     -10.949   6.255 130.742  0.00  0.00    +0.000 C 
BRANCH   2   3
ATOM      3  C   LIG A   1     -12.109   7.257 130.821  0.00  0.00    +0.000 C 
BRANCH   3   4
ATOM      4  C   LIG A   1     -12.310   8.043 129.527  0.00  0.00    +0.011 C 
BRANCH   4   5
ATOM      5  C   LIG A   1     -12.389   7.142 128.298  0.00  0.00    +0.120 C 
BRANCH   5   6
ATOM      6  C   LIG A   1     -11.390   7.529 127.240  0.00  0.00    +0.305 C 
ATOM      7  O   LIG A   1     -11.089   6.845 126.272  0.00  0.00    -0.251 OA
BRANCH   6   8
ATOM      8  O   LIG A   1     -10.765   8.696 127.461  0.00  0.00    -0.481 OA
ATOM      9  H   LIG A   1      -9.849   8.443 127.708  0.00  0.00    +0.295 HD
ENDBRANCH   6   8
ENDBRANCH   5   6
ENDBRANCH   4   5
ENDBRANCH   3   4
ENDBRANCH   2   3
ENDBRANCH   1   2
BRANCH   1  10
ATOM     10  C   LIG A   1      -8.514   6.417 131.559  0.00  0.00    -0.000 C 
BRANCH  10  11
ATOM     11  C   LIG A   1      -9.192   6.009 132.870  0.00  0.00    -0.000 C 
BRANCH  11  12
ATOM     12  C   LIG A   1      -8.173   5.655 133.962  0.00  0.00    -0.000 C 
BRANCH  12  13
ATOM     13  C   LIG A   1      -8.051   4.138 134.131  0.00  0.00    -0.000 C 
BRANCH  13  14
ATOM     14  C   LIG A   1      -9.330   3.403 133.708  0.00  0.00    -0.000 C 
BRANCH  14  15
ATOM     15  C   LIG A   1      -9.087   2.305 132.662  0.00  0.00    -0.000 C 
BRANCH  15  16
ATOM     16  C   LIG A   1     -10.006   2.413 131.443  0.00  0.00    -0.003 C 
ATOM     17  C   LIG A   1      -9.278   2.954 130.222  0.00  0.00    +0.004 C 
ENDBRANCH  15  16
ENDBRANCH  14  15
ENDBRANCH  13  14
ENDBRANCH  12  13
ENDBRANCH  11  12
ENDBRANCH  10  11
ENDBRANCH   1  10
TORSDOF 13
ENDMDL
