MODEL 1
REMARK VINA RESULT:      -6.7      0.000      0.000
REMARK  Name = NuBBE_323
REMARK  7 active torsions:
REMARK  status: ('A' for Active; 'I' for Inactive)
REMARK    1  A    between atoms: C_2  and  O_3
REMARK    2  A    between atoms: C_2  and  C_11
REMARK    3  A    between atoms: O_3  and  C_4
REMARK    4  A    between atoms: C_4  and  C_5
REMARK    5  A    between atoms: C_6  and  S_7
REMARK    6  A    between atoms: S_7  and  C_8
REMARK    7  A    between atoms: C_12  and  C_13
REMARK                            x       y       z     vdW  Elec       q    Type
REMARK                         _______ _______ _______ _____ _____    ______ ____
ROOT
ATOM      1  O   LIG A   1     -10.712   0.760 122.688  0.00  0.00    -0.246 OA
ATOM      2  C   LIG A   1      -9.950   1.414 123.385  0.00  0.00    +0.332 C 
ENDROOT
BRANCH   2   3
ATOM      3  C   LIG A   1      -8.720   2.049 122.903  0.00  0.00    +0.092 C 
ATOM      4  C   LIG A   1      -8.763   2.890 121.860  0.00  0.00    +0.015 C 
BRANCH   4   5
ATOM      5  C   LIG A   1      -7.567   3.543 121.317  0.00  0.00    -0.025 A 
ATOM      6  C   LIG A   1      -6.380   3.629 122.057  0.00  0.00    +0.008 A 
ATOM      7  C   LIG A   1      -5.254   4.257 121.529  0.00  0.00    +0.001 A 
ATOM      8  C   LIG A   1      -5.296   4.792 120.245  0.00  0.00    +0.000 A 
ATOM      9  C   LIG A   1      -6.461   4.689 119.486  0.00  0.00    +0.001 A 
ATOM     10  C   LIG A   1      -7.591   4.063 120.017  0.00  0.00    +0.008 A 
ENDBRANCH   4   5
ENDBRANCH   2   3
BRANCH   2  11
ATOM     11  O   LIG A   1     -10.079   1.666 124.707  0.00  0.00    -0.457 OA
BRANCH  11  12
ATOM     12  C   LIG A   1      -9.076   1.058 125.524  0.00  0.00    +0.261 C 
BRANCH  12  13
ATOM     13  C   LIG A   1      -9.279  -0.422 125.506  0.00  0.00    +0.032 C 
ATOM     14  C   LIG A   1      -8.354  -1.251 125.001  0.00  0.00    +0.133 C 
BRANCH  14  15
ATOM     15  S   LIG A   1      -8.656  -2.951 124.871  0.00  0.00    -0.013 S 
ATOM     16  C   LIG A   1      -9.125  -3.355 126.537  0.00  0.00    +0.199 C 
ATOM     17  O   LIG A   1      -9.823  -3.135 124.034  0.00  0.00    -0.170 OA
ATOM     18  O   LIG A   1      -7.421  -3.653 124.582  0.00  0.00    -0.170 OA
ENDBRANCH  14  15
ENDBRANCH  12  13
ENDBRANCH  11  12
ENDBRANCH   2  11
TORSDOF 6
ENDMDL
MODEL 2
REMARK VINA RESULT:      -6.4      1.947      2.347
REMARK  Name = NuBBE_323
REMARK  7 active torsions:
REMARK  status: ('A' for Active; 'I' for Inactive)
REMARK    1  A    between atoms: C_2  and  O_3
REMARK    2  A    between atoms: C_2  and  C_11
REMARK    3  A    between atoms: O_3  and  C_4
REMARK    4  A    between atoms: C_4  and  C_5
REMARK    5  A    between atoms: C_6  and  S_7
REMARK    6  A    between atoms: S_7  and  C_8
REMARK    7  A    between atoms: C_12  and  C_13
REMARK                            x       y       z     vdW  Elec       q    Type
REMARK                         _______ _______ _______ _____ _____    ______ ____
ROOT
ATOM      1  O   LIG A   1      -7.388   2.787 125.543  0.00  0.00    -0.246 OA
ATOM      2  C   LIG A   1      -7.227   2.340 124.417  0.00  0.00    +0.332 C 
ENDROOT
BRANCH   2   3
ATOM      3  C   LIG A   1      -7.309   3.135 123.188  0.00  0.00    +0.092 C 
ATOM      4  C   LIG A   1      -6.297   3.118 122.309  0.00  0.00    +0.015 C 
BRANCH   4   5
ATOM      5  C   LIG A   1      -6.308   3.904 121.070  0.00  0.00    -0.025 A 
ATOM      6  C   LIG A   1      -5.223   4.716 120.710  0.00  0.00    +0.008 A 
ATOM      7  C   LIG A   1      -5.251   5.461 119.533  0.00  0.00    +0.001 A 
ATOM      8  C   LIG A   1      -6.357   5.388 118.691  0.00  0.00    +0.000 A 
ATOM      9  C   LIG A   1      -7.431   4.563 119.023  0.00  0.00    +0.001 A 
ATOM     10  C   LIG A   1      -7.405   3.819 120.205  0.00  0.00    +0.008 A 
ENDBRANCH   4   5
ENDBRANCH   2   3
BRANCH   2  11
ATOM     11  O   LIG A   1      -6.962   1.056 124.086  0.00  0.00    -0.457 OA
BRANCH  11  12
ATOM     12  C   LIG A   1      -6.531   0.242 125.179  0.00  0.00    +0.261 C 
BRANCH  12  13
ATOM     13  C   LIG A   1      -7.186  -1.095 125.066  0.00  0.00    +0.032 C 
ATOM     14  C   LIG A   1      -8.424  -1.230 124.568  0.00  0.00    +0.133 C 
BRANCH  14  15
ATOM     15  S   LIG A   1      -9.220  -2.768 124.560  0.00  0.00    -0.013 S 
ATOM     16  C   LIG A   1      -7.838  -3.882 124.654  0.00  0.00    +0.199 C 
ATOM     17  O   LIG A   1      -9.963  -2.893 125.797  0.00  0.00    -0.170 OA
ATOM     18  O   LIG A   1      -9.870  -2.984 123.283  0.00  0.00    -0.170 OA
ENDBRANCH  14  15
ENDBRANCH  12  13
ENDBRANCH  11  12
ENDBRANCH   2  11
TORSDOF 6
ENDMDL
MODEL 3
REMARK VINA RESULT:      -6.3      1.128      1.739
REMARK  Name = NuBBE_323
REMARK  7 active torsions:
REMARK  status: ('A' for Active; 'I' for Inactive)
REMARK    1  A    between atoms: C_2  and  O_3
REMARK    2  A    between atoms: C_2  and  C_11
REMARK    3  A    between atoms: O_3  and  C_4
REMARK    4  A    between atoms: C_4  and  C_5
REMARK    5  A    between atoms: C_6  and  S_7
REMARK    6  A    between atoms: S_7  and  C_8
REMARK    7  A    between atoms: C_12  and  C_13
REMARK                            x       y       z     vdW  Elec       q    Type
REMARK                         _______ _______ _______ _____ _____    ______ ____
ROOT
ATOM      1  O   LIG A   1      -9.902   2.028 124.711  0.00  0.00    -0.246 OA
ATOM      2  C   LIG A   1      -8.690   2.173 124.779  0.00  0.00    +0.332 C 
ENDROOT
BRANCH   2   3
ATOM      3  C   LIG A   1      -7.894   2.967 123.838  0.00  0.00    +0.092 C 
ATOM      4  C   LIG A   1      -8.012   2.760 122.519  0.00  0.00    +0.015 C 
BRANCH   4   5
ATOM      5  C   LIG A   1      -7.231   3.506 121.525  0.00  0.00    -0.025 A 
ATOM      6  C   LIG A   1      -7.796   3.915 120.309  0.00  0.00    +0.008 A 
ATOM      7  C   LIG A   1      -7.039   4.618 119.373  0.00  0.00    +0.001 A 
ATOM      8  C   LIG A   1      -5.714   4.938 119.650  0.00  0.00    +0.000 A 
ATOM      9  C   LIG A   1      -5.147   4.562 120.869  0.00  0.00    +0.001 A 
ATOM     10  C   LIG A   1      -5.905   3.854 121.805  0.00  0.00    +0.008 A 
ENDBRANCH   4   5
ENDBRANCH   2   3
BRANCH   2  11
ATOM     11  O   LIG A   1      -7.862   1.635 125.702  0.00  0.00    -0.457 OA
BRANCH  11  12
ATOM     12  C   LIG A   1      -6.911   0.709 125.172  0.00  0.00    +0.261 C 
BRANCH  12  13
ATOM     13  C   LIG A   1      -7.489  -0.666 125.255  0.00  0.00    +0.032 C 
ATOM     14  C   LIG A   1      -7.948  -1.301 124.166  0.00  0.00    +0.133 C 
BRANCH  14  15
ATOM     15  S   LIG A   1      -8.730  -2.840 124.295  0.00  0.00    -0.013 S 
ATOM     16  C   LIG A   1      -9.423  -2.750 125.929  0.00  0.00    +0.199 C 
ATOM     17  O   LIG A   1      -9.833  -2.862 123.357  0.00  0.00    -0.170 OA
ATOM     18  O   LIG A   1      -7.741  -3.900 124.296  0.00  0.00    -0.170 OA
ENDBRANCH  14  15
ENDBRANCH  12  13
ENDBRANCH  11  12
ENDBRANCH   2  11
TORSDOF 6
ENDMDL
MODEL 4
REMARK VINA RESULT:      -6.0      2.888      7.517
REMARK  Name = NuBBE_323
REMARK  7 active torsions:
REMARK  status: ('A' for Active; 'I' for Inactive)
REMARK    1  A    between atoms: C_2  and  O_3
REMARK    2  A    between atoms: C_2  and  C_11
REMARK    3  A    between atoms: O_3  and  C_4
REMARK    4  A    between atoms: C_4  and  C_5
REMARK    5  A    between atoms: C_6  and  S_7
REMARK    6  A    between atoms: S_7  and  C_8
REMARK    7  A    between atoms: C_12  and  C_13
REMARK                            x       y       z     vdW  Elec       q    Type
REMARK                         _______ _______ _______ _____ _____    ______ ____
ROOT
ATOM      1  O   LIG A   1      -9.954  -3.243 123.291  0.00  0.00    -0.246 OA
ATOM      2  C   LIG A   1      -8.833  -2.803 123.500  0.00  0.00    +0.332 C 
ENDROOT
BRANCH   2   3
ATOM      3  C   LIG A   1      -8.090  -2.980 124.751  0.00  0.00    +0.092 C 
ATOM      4  C   LIG A   1      -8.668  -2.677 125.922  0.00  0.00    +0.015 C 
BRANCH   4   5
ATOM      5  C   LIG A   1      -7.974  -2.813 127.208  0.00  0.00    -0.025 A 
ATOM      6  C   LIG A   1      -6.694  -2.277 127.409  0.00  0.00    +0.008 A 
ATOM      7  C   LIG A   1      -6.046  -2.420 128.635  0.00  0.00    +0.001 A 
ATOM      8  C   LIG A   1      -6.679  -3.084 129.682  0.00  0.00    +0.000 A 
ATOM      9  C   LIG A   1      -7.964  -3.598 129.505  0.00  0.00    +0.001 A 
ATOM     10  C   LIG A   1      -8.611  -3.458 128.275  0.00  0.00    +0.008 A 
ENDBRANCH   4   5
ENDBRANCH   2   3
BRANCH   2  11
ATOM     11  O   LIG A   1      -8.078  -2.073 122.647  0.00  0.00    -0.457 OA
BRANCH  11  12
ATOM     12  C   LIG A   1      -7.025  -1.338 123.273  0.00  0.00    +0.261 C 
BRANCH  12  13
ATOM     13  C   LIG A   1      -7.324   0.121 123.153  0.00  0.00    +0.032 C 
ATOM     14  C   LIG A   1      -7.978   0.785 124.116  0.00  0.00    +0.133 C 
BRANCH  14  15
ATOM     15  S   LIG A   1      -8.430   2.443 123.908  0.00  0.00    -0.013 S 
ATOM     16  C   LIG A   1      -6.842   3.240 123.869  0.00  0.00    +0.199 C 
ATOM     17  O   LIG A   1      -9.019   2.585 122.592  0.00  0.00    -0.170 OA
ATOM     18  O   LIG A   1      -9.129   2.919 125.085  0.00  0.00    -0.170 OA
ENDBRANCH  14  15
ENDBRANCH  12  13
ENDBRANCH  11  12
ENDBRANCH   2  11
TORSDOF 6
ENDMDL
MODEL 5
REMARK VINA RESULT:      -6.0      9.014     10.606
REMARK  Name = NuBBE_323
REMARK  7 active torsions:
REMARK  status: ('A' for Active; 'I' for Inactive)
REMARK    1  A    between atoms: C_2  and  O_3
REMARK    2  A    between atoms: C_2  and  C_11
REMARK    3  A    between atoms: O_3  and  C_4
REMARK    4  A    between atoms: C_4  and  C_5
REMARK    5  A    between atoms: C_6  and  S_7
REMARK    6  A    between atoms: S_7  and  C_8
REMARK    7  A    between atoms: C_12  and  C_13
REMARK                            x       y       z     vdW  Elec       q    Type
REMARK                         _______ _______ _______ _____ _____    ______ ____
ROOT
ATOM      1  O   LIG A   1      -9.533   4.257 132.376  0.00  0.00    -0.246 OA
ATOM      2  C   LIG A   1      -9.070   5.385 132.297  0.00  0.00    +0.332 C 
ENDROOT
BRANCH   2   3
ATOM      3  C   LIG A   1      -7.641   5.703 132.372  0.00  0.00    +0.092 C 
ATOM      4  C   LIG A   1      -7.090   6.529 131.471  0.00  0.00    +0.015 C 
BRANCH   4   5
ATOM      5  C   LIG A   1      -5.663   6.873 131.478  0.00  0.00    -0.025 A 
ATOM      6  C   LIG A   1      -4.817   6.463 132.517  0.00  0.00    +0.008 A 
ATOM      7  C   LIG A   1      -3.465   6.804 132.512  0.00  0.00    +0.001 A 
ATOM      8  C   LIG A   1      -2.940   7.543 131.456  0.00  0.00    +0.000 A 
ATOM      9  C   LIG A   1      -3.764   7.933 130.401  0.00  0.00    +0.001 A 
ATOM     10  C   LIG A   1      -5.120   7.595 130.409  0.00  0.00    +0.008 A 
ENDBRANCH   4   5
ENDBRANCH   2   3
BRANCH   2  11
ATOM     11  O   LIG A   1      -9.763   6.535 132.144  0.00  0.00    -0.457 OA
BRANCH  11  12
ATOM     12  C   LIG A   1     -11.093   6.362 131.651  0.00  0.00    +0.261 C 
BRANCH  12  13
ATOM     13  C   LIG A   1     -11.208   7.060 130.335  0.00  0.00    +0.032 C 
ATOM     14  C   LIG A   1     -10.746   6.507 129.204  0.00  0.00    +0.133 C 
BRANCH  14  15
ATOM     15  S   LIG A   1     -10.771   7.380 127.709  0.00  0.00    -0.013 S 
ATOM     16  C   LIG A   1     -12.518   7.561 127.434  0.00  0.00    +0.199 C 
ATOM     17  O   LIG A   1     -10.231   8.702 127.953  0.00  0.00    -0.170 OA
ATOM     18  O   LIG A   1     -10.244   6.553 126.642  0.00  0.00    -0.170 OA
ENDBRANCH  14  15
ENDBRANCH  12  13
ENDBRANCH  11  12
ENDBRANCH   2  11
TORSDOF 6
ENDMDL
MODEL 6
REMARK VINA RESULT:      -5.8      9.161     10.441
REMARK  Name = NuBBE_323
REMARK  7 active torsions:
REMARK  status: ('A' for Active; 'I' for Inactive)
REMARK    1  A    between atoms: C_2  and  O_3
REMARK    2  A    between atoms: C_2  and  C_11
REMARK    3  A    between atoms: O_3  and  C_4
REMARK    4  A    between atoms: C_4  and  C_5
REMARK    5  A    between atoms: C_6  and  S_7
REMARK    6  A    between atoms: S_7  and  C_8
REMARK    7  A    between atoms: C_12  and  C_13
REMARK                            x       y       z     vdW  Elec       q    Type
REMARK                         _______ _______ _______ _____ _____    ______ ____
ROOT
ATOM      1  O   LIG A   1      -9.176   5.180 133.159  0.00  0.00    -0.246 OA
ATOM      2  C   LIG A   1      -9.051   5.844 132.140  0.00  0.00    +0.332 C 
ENDROOT
BRANCH   2   3
ATOM      3  C   LIG A   1     -10.003   5.845 131.026  0.00  0.00    +0.092 C 
ATOM      4  C   LIG A   1     -10.172   6.951 130.289  0.00  0.00    +0.015 C 
BRANCH   4   5
ATOM      5  C   LIG A   1     -11.122   7.025 129.173  0.00  0.00    -0.025 A 
ATOM      6  C   LIG A   1     -12.498   6.853 129.372  0.00  0.00    +0.008 A 
ATOM      7  C   LIG A   1     -13.388   6.920 128.300  0.00  0.00    +0.001 A 
ATOM      8  C   LIG A   1     -12.911   7.179 127.018  0.00  0.00    +0.000 A 
ATOM      9  C   LIG A   1     -11.547   7.380 126.810  0.00  0.00    +0.001 A 
ATOM     10  C   LIG A   1     -10.656   7.308 127.884  0.00  0.00    +0.008 A 
ENDBRANCH   4   5
ENDBRANCH   2   3
BRANCH   2  11
ATOM     11  O   LIG A   1      -8.030   6.677 131.839  0.00  0.00    -0.457 OA
BRANCH  11  12
ATOM     12  C   LIG A   1      -6.731   6.115 132.036  0.00  0.00    +0.261 C 
BRANCH  12  13
ATOM     13  C   LIG A   1      -5.770   6.798 131.119  0.00  0.00    +0.032 C 
ATOM     14  C   LIG A   1      -4.952   6.103 130.315  0.00  0.00    +0.133 C 
BRANCH  14  15
ATOM     15  S   LIG A   1      -3.757   6.904 129.351  0.00  0.00    -0.013 S 
ATOM     16  C   LIG A   1      -3.982   8.596 129.842  0.00  0.00    +0.199 C 
ATOM     17  O   LIG A   1      -2.452   6.485 129.818  0.00  0.00    -0.170 OA
ATOM     18  O   LIG A   1      -4.105   6.805 127.947  0.00  0.00    -0.170 OA
ENDBRANCH  14  15
ENDBRANCH  12  13
ENDBRANCH  11  12
ENDBRANCH   2  11
TORSDOF 6
ENDMDL
MODEL 7
REMARK VINA RESULT:      -5.8      7.008      8.487
REMARK  Name = NuBBE_323
REMARK  7 active torsions:
REMARK  status: ('A' for Active; 'I' for Inactive)
REMARK    1  A    between atoms: C_2  and  O_3
REMARK    2  A    between atoms: C_2  and  C_11
REMARK    3  A    between atoms: O_3  and  C_4
REMARK    4  A    between atoms: C_4  and  C_5
REMARK    5  A    between atoms: C_6  and  S_7
REMARK    6  A    between atoms: S_7  and  C_8
REMARK    7  A    between atoms: C_12  and  C_13
REMARK                            x       y       z     vdW  Elec       q    Type
REMARK                         _______ _______ _______ _____ _____    ______ ____
ROOT
ATOM      1  O   LIG A   1      -1.460   2.775 126.402  0.00  0.00    -0.246 OA
ATOM      2  C   LIG A   1      -2.493   3.360 126.691  0.00  0.00    +0.332 C 
ENDROOT
BRANCH   2   3
ATOM      3  C   LIG A   1      -2.695   4.134 127.920  0.00  0.00    +0.092 C 
ATOM      4  C   LIG A   1      -2.755   5.472 127.867  0.00  0.00    +0.015 C 
BRANCH   4   5
ATOM      5  C   LIG A   1      -2.935   6.307 129.060  0.00  0.00    -0.025 A 
ATOM      6  C   LIG A   1      -3.715   7.471 129.027  0.00  0.00    +0.008 A 
ATOM      7  C   LIG A   1      -3.872   8.257 130.167  0.00  0.00    +0.001 A 
ATOM      8  C   LIG A   1      -3.266   7.876 131.361  0.00  0.00    +0.000 A 
ATOM      9  C   LIG A   1      -2.510   6.705 131.416  0.00  0.00    +0.001 A 
ATOM     10  C   LIG A   1      -2.350   5.921 130.271  0.00  0.00    +0.008 A 
ENDBRANCH   4   5
ENDBRANCH   2   3
BRANCH   2  11
ATOM     11  O   LIG A   1      -3.632   3.398 125.963  0.00  0.00    -0.457 OA
BRANCH  11  12
ATOM     12  C   LIG A   1      -4.691   2.590 126.482  0.00  0.00    +0.261 C 
BRANCH  12  13
ATOM     13  C   LIG A   1      -5.993   3.144 126.002  0.00  0.00    +0.032 C 
ATOM     14  C   LIG A   1      -6.970   2.346 125.548  0.00  0.00    +0.133 C 
BRANCH  14  15
ATOM     15  S   LIG A   1      -8.422   3.008 124.876  0.00  0.00    -0.013 S 
ATOM     16  C   LIG A   1      -8.046   2.997 123.139  0.00  0.00    +0.199 C 
ATOM     17  O   LIG A   1      -9.491   2.055 125.094  0.00  0.00    -0.170 OA
ATOM     18  O   LIG A   1      -8.572   4.391 125.283  0.00  0.00    -0.170 OA
ENDBRANCH  14  15
ENDBRANCH  12  13
ENDBRANCH  11  12
ENDBRANCH   2  11
TORSDOF 6
ENDMDL
MODEL 8
REMARK VINA RESULT:      -5.7      2.247      2.465
REMARK  Name = NuBBE_323
REMARK  7 active torsions:
REMARK  status: ('A' for Active; 'I' for Inactive)
REMARK    1  A    between atoms: C_2  and  O_3
REMARK    2  A    between atoms: C_2  and  C_11
REMARK    3  A    between atoms: O_3  and  C_4
REMARK    4  A    between atoms: C_4  and  C_5
REMARK    5  A    between atoms: C_6  and  S_7
REMARK    6  A    between atoms: S_7  and  C_8
REMARK    7  A    between atoms: C_12  and  C_13
REMARK                            x       y       z     vdW  Elec       q    Type
REMARK                         _______ _______ _______ _____ _____    ______ ____
ROOT
ATOM      1  O   LIG A   1     -10.798   1.150 124.498  0.00  0.00    -0.246 OA
ATOM      2  C   LIG A   1      -9.583   1.033 124.570  0.00  0.00    +0.332 C 
ENDROOT
BRANCH   2   3
ATOM      3  C   LIG A   1      -8.635   1.602 123.608  0.00  0.00    +0.092 C 
ATOM      4  C   LIG A   1      -9.016   2.603 122.802  0.00  0.00    +0.015 C 
BRANCH   4   5
ATOM      5  C   LIG A   1      -8.123   3.203 121.804  0.00  0.00    -0.025 A 
ATOM      6  C   LIG A   1      -6.737   3.260 122.004  0.00  0.00    +0.008 A 
ATOM      7  C   LIG A   1      -5.902   3.839 121.050  0.00  0.00    +0.001 A 
ATOM      8  C   LIG A   1      -6.443   4.351 119.874  0.00  0.00    +0.000 A 
ATOM      9  C   LIG A   1      -7.817   4.276 119.649  0.00  0.00    +0.001 A 
ATOM     10  C   LIG A   1      -8.653   3.699 120.608  0.00  0.00    +0.008 A 
ENDBRANCH   4   5
ENDBRANCH   2   3
BRANCH   2  11
ATOM     11  O   LIG A   1      -8.890   0.364 125.519  0.00  0.00    -0.457 OA
BRANCH  11  12
ATOM     12  C   LIG A   1      -8.613  -1.000 125.194  0.00  0.00    +0.261 C 
BRANCH  12  13
ATOM     13  C   LIG A   1      -8.560  -1.790 126.461  0.00  0.00    +0.032 C 
ATOM     14  C   LIG A   1      -7.534  -1.677 127.316  0.00  0.00    +0.133 C 
BRANCH  14  15
ATOM     15  S   LIG A   1      -7.424  -2.691 128.716  0.00  0.00    -0.013 S 
ATOM     16  C   LIG A   1      -7.914  -1.570 130.004  0.00  0.00    +0.199 C 
ATOM     17  O   LIG A   1      -8.449  -3.710 128.613  0.00  0.00    -0.170 OA
ATOM     18  O   LIG A   1      -6.042  -3.057 128.956  0.00  0.00    -0.170 OA
ENDBRANCH  14  15
ENDBRANCH  12  13
ENDBRANCH  11  12
ENDBRANCH   2  11
TORSDOF 6
ENDMDL
MODEL 9
REMARK VINA RESULT:      -5.7      9.455     11.023
REMARK  Name = NuBBE_323
REMARK  7 active torsions:
REMARK  status: ('A' for Active; 'I' for Inactive)
REMARK    1  A    between atoms: C_2  and  O_3
REMARK    2  A    between atoms: C_2  and  C_11
REMARK    3  A    between atoms: O_3  and  C_4
REMARK    4  A    between atoms: C_4  and  C_5
REMARK    5  A    between atoms: C_6  and  S_7
REMARK    6  A    between atoms: S_7  and  C_8
REMARK    7  A    between atoms: C_12  and  C_13
REMARK                            x       y       z     vdW  Elec       q    Type
REMARK                         _______ _______ _______ _____ _____    ______ ____
ROOT
ATOM      1  O   LIG A   1      -9.778   4.125 131.952  0.00  0.00    -0.246 OA
ATOM      2  C   LIG A   1      -9.273   5.232 131.839  0.00  0.00    +0.332 C 
ENDROOT
BRANCH   2   3
ATOM      3  C   LIG A   1      -7.887   5.475 131.429  0.00  0.00    +0.092 C 
ATOM      4  C   LIG A   1      -7.150   6.396 132.066  0.00  0.00    +0.015 C 
BRANCH   4   5
ATOM      5  C   LIG A   1      -5.764   6.702 131.694  0.00  0.00    -0.025 A 
ATOM      6  C   LIG A   1      -5.463   7.441 130.542  0.00  0.00    +0.008 A 
ATOM      7  C   LIG A   1      -4.140   7.718 130.198  0.00  0.00    +0.001 A 
ATOM      8  C   LIG A   1      -3.104   7.275 131.014  0.00  0.00    +0.000 A 
ATOM      9  C   LIG A   1      -3.390   6.562 132.179  0.00  0.00    +0.001 A 
ATOM     10  C   LIG A   1      -4.716   6.281 132.520  0.00  0.00    +0.008 A 
ENDBRANCH   4   5
ENDBRANCH   2   3
BRANCH   2  11
ATOM     11  O   LIG A   1      -9.870   6.422 132.075  0.00  0.00    -0.457 OA
BRANCH  11  12
ATOM     12  C   LIG A   1     -11.289   6.413 131.907  0.00  0.00    +0.261 C 
BRANCH  12  13
ATOM     13  C   LIG A   1     -11.608   6.846 130.513  0.00  0.00    +0.032 C 
ATOM     14  C   LIG A   1     -12.403   7.897 130.270  0.00  0.00    +0.133 C 
BRANCH  14  15
ATOM     15  S   LIG A   1     -12.866   8.310 128.653  0.00  0.00    -0.013 S 
ATOM     16  C   LIG A   1     -11.290   8.340 127.831  0.00  0.00    +0.199 C 
ATOM     17  O   LIG A   1     -13.620   7.201 128.106  0.00  0.00    -0.170 OA
ATOM     18  O   LIG A   1     -13.403   9.656 128.619  0.00  0.00    -0.170 OA
ENDBRANCH  14  15
ENDBRANCH  12  13
ENDBRANCH  11  12
ENDBRANCH   2  11
TORSDOF 6
ENDMDL
