MODEL 1
REMARK VINA RESULT:      -7.1      0.000      0.000
REMARK  Name = NuBBE_1193
REMARK  4 active torsions:
REMARK  status: ('A' for Active; 'I' for Inactive)
REMARK    1  A    between atoms: C_8  and  O_9
REMARK    2  A    between atoms: O_9  and  C_10
REMARK    3  A    between atoms: C_14  and  C_15
REMARK    4  A    between atoms: C_14  and  C_16
REMARK                            x       y       z     vdW  Elec       q    Type
REMARK                         _______ _______ _______ _____ _____    ______ ____
ROOT
ATOM      1  O   LIG A   1      -3.873   6.854 130.909  0.00  0.00    -0.245 OA
ATOM      2  C   LIG A   1      -5.032   6.660 131.256  0.00  0.00    +0.337 A 
ATOM      3  C   LIG A   1      -5.334   5.918 132.491  0.00  0.00    +0.093 A 
ATOM      4  C   LIG A   1      -6.585   5.673 132.891  0.00  0.00    +0.022 A 
ATOM      5  O   LIG A   1      -6.117   7.117 130.522  0.00  0.00    -0.422 OA
ATOM      6  C   LIG A   1      -7.441   6.871 130.938  0.00  0.00    +0.146 A 
ATOM      7  C   LIG A   1      -7.713   6.146 132.096  0.00  0.00    +0.060 A 
ATOM      8  C   LIG A   1      -9.056   5.920 132.442  0.00  0.00    +0.141 A 
ATOM      9  C   LIG A   1     -10.102   6.471 131.672  0.00  0.00    +0.059 A 
ATOM     10  C   LIG A   1     -11.503   6.348 132.060  0.00  0.00    +0.015 C 
ATOM     11  C   LIG A   1     -12.437   6.823 131.231  0.00  0.00    +0.020 C 
ATOM     12  C   LIG A   1     -12.114   7.493 129.917  0.00  0.00    +0.123 C 
ATOM     13  C   LIG A   1     -12.607   6.616 128.760  0.00  0.00    +0.060 C 
ATOM     14  C   LIG A   1     -12.810   8.858 129.862  0.00  0.00    +0.060 C 
ATOM     15  O   LIG A   1     -10.716   7.753 129.682  0.00  0.00    -0.481 OA
ATOM     16  C   LIG A   1      -9.787   7.186 130.510  0.00  0.00    +0.136 A 
ATOM     17  C   LIG A   1      -8.458   7.385 130.138  0.00  0.00    +0.093 A 
ENDROOT
BRANCH   8  18
ATOM     18  O   LIG A   1      -9.340   5.206 133.585  0.00  0.00    -0.494 OA
ATOM     19  C   LIG A   1      -9.283   3.802 133.314  0.00  0.00    +0.277 C 
ENDBRANCH   8  18
TORSDOF 1
ENDMDL
MODEL 2
REMARK VINA RESULT:      -6.7      8.848      9.614
REMARK  Name = NuBBE_1193
REMARK  4 active torsions:
REMARK  status: ('A' for Active; 'I' for Inactive)
REMARK    1  A    between atoms: C_8  and  O_9
REMARK    2  A    between atoms: O_9  and  C_10
REMARK    3  A    between atoms: C_14  and  C_15
REMARK    4  A    between atoms: C_14  and  C_16
REMARK                            x       y       z     vdW  Elec       q    Type
REMARK                         _______ _______ _______ _____ _____    ______ ____
ROOT
ATOM      1  O   LIG A   1      -5.330   4.899 122.933  0.00  0.00    -0.245 OA
ATOM      2  C   LIG A   1      -6.009   4.099 123.566  0.00  0.00    +0.337 A 
ATOM      3  C   LIG A   1      -6.689   4.504 124.806  0.00  0.00    +0.093 A 
ATOM      4  C   LIG A   1      -7.423   3.654 125.530  0.00  0.00    +0.022 A 
ATOM      5  O   LIG A   1      -6.179   2.783 123.162  0.00  0.00    -0.422 OA
ATOM      6  C   LIG A   1      -6.957   1.879 123.914  0.00  0.00    +0.146 A 
ATOM      7  C   LIG A   1      -7.575   2.268 125.099  0.00  0.00    +0.060 A 
ATOM      8  C   LIG A   1      -8.320   1.312 125.809  0.00  0.00    +0.141 A 
ATOM      9  C   LIG A   1      -8.493   0.008 125.300  0.00  0.00    +0.059 A 
ATOM     10  C   LIG A   1      -9.347  -0.978 125.954  0.00  0.00    +0.015 C 
ATOM     11  C   LIG A   1      -9.388  -2.216 125.453  0.00  0.00    +0.020 C 
ATOM     12  C   LIG A   1      -8.605  -2.643 124.236  0.00  0.00    +0.123 C 
ATOM     13  C   LIG A   1      -7.529  -3.655 124.647  0.00  0.00    +0.060 C 
ATOM     14  C   LIG A   1      -9.558  -3.287 123.223  0.00  0.00    +0.060 C 
ATOM     15  O   LIG A   1      -7.935  -1.582 123.527  0.00  0.00    -0.481 OA
ATOM     16  C   LIG A   1      -7.848  -0.347 124.108  0.00  0.00    +0.136 A 
ATOM     17  C   LIG A   1      -7.078   0.585 123.414  0.00  0.00    +0.093 A 
ENDROOT
BRANCH   8  18
ATOM     18  O   LIG A   1      -8.937   1.683 126.984  0.00  0.00    -0.494 OA
ATOM     19  C   LIG A   1      -8.072   1.430 128.095  0.00  0.00    +0.277 C 
ENDBRANCH   8  18
TORSDOF 1
ENDMDL
MODEL 3
REMARK VINA RESULT:      -6.5      8.083      9.550
REMARK  Name = NuBBE_1193
REMARK  4 active torsions:
REMARK  status: ('A' for Active; 'I' for Inactive)
REMARK    1  A    between atoms: C_8  and  O_9
REMARK    2  A    between atoms: O_9  and  C_10
REMARK    3  A    between atoms: C_14  and  C_15
REMARK    4  A    between atoms: C_14  and  C_16
REMARK                            x       y       z     vdW  Elec       q    Type
REMARK                         _______ _______ _______ _____ _____    ______ ____
ROOT
ATOM      1  O   LIG A   1      -4.597   6.040 120.261  0.00  0.00    -0.245 OA
ATOM      2  C   LIG A   1      -5.127   5.203 120.982  0.00  0.00    +0.337 A 
ATOM      3  C   LIG A   1      -6.085   4.232 120.431  0.00  0.00    +0.093 A 
ATOM      4  C   LIG A   1      -6.695   3.318 121.191  0.00  0.00    +0.022 A 
ATOM      5  O   LIG A   1      -4.865   5.118 122.342  0.00  0.00    -0.422 OA
ATOM      6  C   LIG A   1      -5.497   4.153 123.153  0.00  0.00    +0.146 A 
ATOM      7  C   LIG A   1      -6.420   3.256 122.622  0.00  0.00    +0.060 A 
ATOM      8  C   LIG A   1      -7.028   2.333 123.490  0.00  0.00    +0.141 A 
ATOM      9  C   LIG A   1      -6.662   2.272 124.851  0.00  0.00    +0.059 A 
ATOM     10  C   LIG A   1      -7.191   1.259 125.757  0.00  0.00    +0.015 C 
ATOM     11  C   LIG A   1      -6.860   1.324 127.049  0.00  0.00    +0.020 C 
ATOM     12  C   LIG A   1      -5.954   2.389 127.618  0.00  0.00    +0.123 C 
ATOM     13  C   LIG A   1      -6.758   3.300 128.554  0.00  0.00    +0.060 C 
ATOM     14  C   LIG A   1      -4.818   1.720 128.401  0.00  0.00    +0.060 C 
ATOM     15  O   LIG A   1      -5.315   3.242 126.647  0.00  0.00    -0.481 OA
ATOM     16  C   LIG A   1      -5.735   3.198 125.347  0.00  0.00    +0.136 A 
ATOM     17  C   LIG A   1      -5.153   4.142 124.501  0.00  0.00    +0.093 A 
ENDROOT
BRANCH   8  18
ATOM     18  O   LIG A   1      -7.943   1.438 122.980  0.00  0.00    -0.494 OA
ATOM     19  C   LIG A   1      -9.264   1.980 123.071  0.00  0.00    +0.277 C 
ENDBRANCH   8  18
TORSDOF 1
ENDMDL
MODEL 4
REMARK VINA RESULT:      -6.5      8.910      9.974
REMARK  Name = NuBBE_1193
REMARK  4 active torsions:
REMARK  status: ('A' for Active; 'I' for Inactive)
REMARK    1  A    between atoms: C_8  and  O_9
REMARK    2  A    between atoms: O_9  and  C_10
REMARK    3  A    between atoms: C_14  and  C_15
REMARK    4  A    between atoms: C_14  and  C_16
REMARK                            x       y       z     vdW  Elec       q    Type
REMARK                         _______ _______ _______ _____ _____    ______ ____
ROOT
ATOM      1  O   LIG A   1      -7.433  -3.591 130.301  0.00  0.00    -0.245 OA
ATOM      2  C   LIG A   1      -7.802  -3.171 129.211  0.00  0.00    +0.337 A 
ATOM      3  C   LIG A   1      -8.625  -4.006 128.321  0.00  0.00    +0.093 A 
ATOM      4  C   LIG A   1      -9.030  -3.587 127.119  0.00  0.00    +0.022 A 
ATOM      5  O   LIG A   1      -7.474  -1.904 128.751  0.00  0.00    -0.422 OA
ATOM      6  C   LIG A   1      -7.901  -1.448 127.487  0.00  0.00    +0.146 A 
ATOM      7  C   LIG A   1      -8.659  -2.258 126.644  0.00  0.00    +0.060 A 
ATOM      8  C   LIG A   1      -9.035  -1.748 125.390  0.00  0.00    +0.141 A 
ATOM      9  C   LIG A   1      -8.711  -0.425 125.021  0.00  0.00    +0.059 A 
ATOM     10  C   LIG A   1      -9.176   0.172 123.774  0.00  0.00    +0.015 C 
ATOM     11  C   LIG A   1      -8.752   1.400 123.461  0.00  0.00    +0.020 C 
ATOM     12  C   LIG A   1      -7.826   2.205 124.339  0.00  0.00    +0.123 C 
ATOM     13  C   LIG A   1      -6.473   2.376 123.636  0.00  0.00    +0.060 C 
ATOM     14  C   LIG A   1      -8.448   3.582 124.600  0.00  0.00    +0.060 C 
ATOM     15  O   LIG A   1      -7.557   1.640 125.637  0.00  0.00    -0.481 OA
ATOM     16  C   LIG A   1      -7.940   0.353 125.894  0.00  0.00    +0.136 A 
ATOM     17  C   LIG A   1      -7.532  -0.155 127.125  0.00  0.00    +0.093 A 
ENDROOT
BRANCH   8  18
ATOM     18  O   LIG A   1      -9.785  -2.537 124.546  0.00  0.00    -0.494 OA
ATOM     19  C   LIG A   1      -8.932  -3.209 123.613  0.00  0.00    +0.277 C 
ENDBRANCH   8  18
TORSDOF 1
ENDMDL
MODEL 5
REMARK VINA RESULT:      -6.4      9.585     11.501
REMARK  Name = NuBBE_1193
REMARK  4 active torsions:
REMARK  status: ('A' for Active; 'I' for Inactive)
REMARK    1  A    between atoms: C_8  and  O_9
REMARK    2  A    between atoms: O_9  and  C_10
REMARK    3  A    between atoms: C_14  and  C_15
REMARK    4  A    between atoms: C_14  and  C_16
REMARK                            x       y       z     vdW  Elec       q    Type
REMARK                         _______ _______ _______ _____ _____    ______ ____
ROOT
ATOM      1  O   LIG A   1     -10.095  -3.317 123.193  0.00  0.00    -0.245 OA
ATOM      2  C   LIG A   1      -9.229  -2.961 123.982  0.00  0.00    +0.337 A 
ATOM      3  C   LIG A   1      -8.138  -2.070 123.553  0.00  0.00    +0.093 A 
ATOM      4  C   LIG A   1      -7.168  -1.676 124.382  0.00  0.00    +0.022 A 
ATOM      5  O   LIG A   1      -9.217  -3.366 125.309  0.00  0.00    -0.422 OA
ATOM      6  C   LIG A   1      -8.202  -2.951 126.195  0.00  0.00    +0.146 A 
ATOM      7  C   LIG A   1      -7.163  -2.128 125.769  0.00  0.00    +0.060 A 
ATOM      8  C   LIG A   1      -6.173  -1.768 126.699  0.00  0.00    +0.141 A 
ATOM      9  C   LIG A   1      -6.266  -2.174 128.047  0.00  0.00    +0.059 A 
ATOM     10  C   LIG A   1      -5.317  -1.732 129.063  0.00  0.00    +0.015 C 
ATOM     11  C   LIG A   1      -5.427  -2.231 130.297  0.00  0.00    +0.020 C 
ATOM     12  C   LIG A   1      -6.492  -3.223 130.697  0.00  0.00    +0.123 C 
ATOM     13  C   LIG A   1      -5.841  -4.573 131.020  0.00  0.00    +0.060 C 
ATOM     14  C   LIG A   1      -7.231  -2.698 131.933  0.00  0.00    +0.060 C 
ATOM     15  O   LIG A   1      -7.508  -3.473 129.705  0.00  0.00    -0.481 OA
ATOM     16  C   LIG A   1      -7.324  -3.008 128.433  0.00  0.00    +0.136 A 
ATOM     17  C   LIG A   1      -8.291  -3.400 127.509  0.00  0.00    +0.093 A 
ENDROOT
BRANCH   8  18
ATOM     18  O   LIG A   1      -5.138  -0.954 126.293  0.00  0.00    -0.494 OA
ATOM     19  C   LIG A   1      -5.505   0.421 126.443  0.00  0.00    +0.277 C 
ENDBRANCH   8  18
TORSDOF 1
ENDMDL
MODEL 6
REMARK VINA RESULT:      -6.4      1.544      6.018
REMARK  Name = NuBBE_1193
REMARK  4 active torsions:
REMARK  status: ('A' for Active; 'I' for Inactive)
REMARK    1  A    between atoms: C_8  and  O_9
REMARK    2  A    between atoms: O_9  and  C_10
REMARK    3  A    between atoms: C_14  and  C_15
REMARK    4  A    between atoms: C_14  and  C_16
REMARK                            x       y       z     vdW  Elec       q    Type
REMARK                         _______ _______ _______ _____ _____    ______ ____
ROOT
ATOM      1  O   LIG A   1     -11.143   7.555 129.636  0.00  0.00    -0.245 OA
ATOM      2  C   LIG A   1     -10.274   7.130 130.388  0.00  0.00    +0.337 A 
ATOM      3  C   LIG A   1     -10.627   6.323 131.567  0.00  0.00    +0.093 A 
ATOM      4  C   LIG A   1      -9.707   5.857 132.417  0.00  0.00    +0.022 A 
ATOM      5  O   LIG A   1      -8.924   7.375 130.182  0.00  0.00    -0.422 OA
ATOM      6  C   LIG A   1      -7.944   6.884 131.068  0.00  0.00    +0.146 A 
ATOM      7  C   LIG A   1      -8.294   6.142 132.193  0.00  0.00    +0.060 A 
ATOM      8  C   LIG A   1      -7.268   5.699 133.045  0.00  0.00    +0.141 A 
ATOM      9  C   LIG A   1      -5.914   5.941 132.732  0.00  0.00    +0.059 A 
ATOM     10  C   LIG A   1      -4.820   5.405 133.535  0.00  0.00    +0.015 C 
ATOM     11  C   LIG A   1      -3.570   5.753 133.219  0.00  0.00    +0.020 C 
ATOM     12  C   LIG A   1      -3.230   6.664 132.065  0.00  0.00    +0.123 C 
ATOM     13  C   LIG A   1      -2.660   7.982 132.603  0.00  0.00    +0.060 C 
ATOM     14  C   LIG A   1      -2.191   5.979 131.170  0.00  0.00    +0.060 C 
ATOM     15  O   LIG A   1      -4.332   7.005 131.201  0.00  0.00    -0.481 OA
ATOM     16  C   LIG A   1      -5.605   6.698 131.595  0.00  0.00    +0.136 A 
ATOM     17  C   LIG A   1      -6.617   7.173 130.762  0.00  0.00    +0.093 A 
ENDROOT
BRANCH   8  18
ATOM     18  O   LIG A   1      -7.599   4.964 134.163  0.00  0.00    -0.494 OA
ATOM     19  C   LIG A   1      -7.689   5.820 135.306  0.00  0.00    +0.277 C 
ENDBRANCH   8  18
TORSDOF 1
ENDMDL
MODEL 7
REMARK VINA RESULT:      -6.4      9.204     10.313
REMARK  Name = NuBBE_1193
REMARK  4 active torsions:
REMARK  status: ('A' for Active; 'I' for Inactive)
REMARK    1  A    between atoms: C_8  and  O_9
REMARK    2  A    between atoms: O_9  and  C_10
REMARK    3  A    between atoms: C_14  and  C_15
REMARK    4  A    between atoms: C_14  and  C_16
REMARK                            x       y       z     vdW  Elec       q    Type
REMARK                         _______ _______ _______ _____ _____    ______ ____
ROOT
ATOM      1  O   LIG A   1     -10.159  -3.617 123.266  0.00  0.00    -0.245 OA
ATOM      2  C   LIG A   1      -9.282  -2.951 123.804  0.00  0.00    +0.337 A 
ATOM      3  C   LIG A   1      -8.293  -3.583 124.691  0.00  0.00    +0.093 A 
ATOM      4  C   LIG A   1      -7.335  -2.885 125.307  0.00  0.00    +0.022 A 
ATOM      5  O   LIG A   1      -9.166  -1.582 123.615  0.00  0.00    -0.422 OA
ATOM      6  C   LIG A   1      -8.155  -0.835 124.255  0.00  0.00    +0.146 A 
ATOM      7  C   LIG A   1      -7.241  -1.442 125.112  0.00  0.00    +0.060 A 
ATOM      8  C   LIG A   1      -6.271  -0.637 125.732  0.00  0.00    +0.141 A 
ATOM      9  C   LIG A   1      -6.183   0.741 125.441  0.00  0.00    +0.059 A 
ATOM     10  C   LIG A   1      -5.124   1.586 125.982  0.00  0.00    +0.015 C 
ATOM     11  C   LIG A   1      -5.163   2.897 125.726  0.00  0.00    +0.020 C 
ATOM     12  C   LIG A   1      -6.243   3.546 124.896  0.00  0.00    +0.123 C 
ATOM     13  C   LIG A   1      -7.096   4.458 125.785  0.00  0.00    +0.060 C 
ATOM     14  C   LIG A   1      -5.593   4.374 123.781  0.00  0.00    +0.060 C 
ATOM     15  O   LIG A   1      -7.147   2.638 124.236  0.00  0.00    -0.481 OA
ATOM     16  C   LIG A   1      -7.127   1.314 124.580  0.00  0.00    +0.136 A 
ATOM     17  C   LIG A   1      -8.116   0.530 123.988  0.00  0.00    +0.093 A 
ENDROOT
BRANCH   8  18
ATOM     18  O   LIG A   1      -5.359  -1.223 126.582  0.00  0.00    -0.494 OA
ATOM     19  C   LIG A   1      -5.840  -1.174 127.929  0.00  0.00    +0.277 C 
ENDBRANCH   8  18
TORSDOF 1
ENDMDL
MODEL 8
REMARK VINA RESULT:      -6.3      8.885     10.401
REMARK  Name = NuBBE_1193
REMARK  4 active torsions:
REMARK  status: ('A' for Active; 'I' for Inactive)
REMARK    1  A    between atoms: C_8  and  O_9
REMARK    2  A    between atoms: O_9  and  C_10
REMARK    3  A    between atoms: C_14  and  C_15
REMARK    4  A    between atoms: C_14  and  C_16
REMARK                            x       y       z     vdW  Elec       q    Type
REMARK                         _______ _______ _______ _____ _____    ______ ____
ROOT
ATOM      1  O   LIG A   1      -6.622   2.848 123.408  0.00  0.00    -0.245 OA
ATOM      2  C   LIG A   1      -7.090   1.834 123.913  0.00  0.00    +0.337 A 
ATOM      3  C   LIG A   1      -8.132   1.059 123.220  0.00  0.00    +0.093 A 
ATOM      4  C   LIG A   1      -8.676  -0.041 123.747  0.00  0.00    +0.022 A 
ATOM      5  O   LIG A   1      -6.675   1.356 125.147  0.00  0.00    -0.422 OA
ATOM      6  C   LIG A   1      -7.236   0.192 125.711  0.00  0.00    +0.146 A 
ATOM      7  C   LIG A   1      -8.239  -0.518 125.056  0.00  0.00    +0.060 A 
ATOM      8  C   LIG A   1      -8.769  -1.658 125.683  0.00  0.00    +0.141 A 
ATOM      9  C   LIG A   1      -8.250  -2.112 126.914  0.00  0.00    +0.059 A 
ATOM     10  C   LIG A   1      -8.700  -3.350 127.541  0.00  0.00    +0.015 C 
ATOM     11  C   LIG A   1      -8.220  -3.662 128.747  0.00  0.00    +0.020 C 
ATOM     12  C   LIG A   1      -7.225  -2.804 129.491  0.00  0.00    +0.123 C 
ATOM     13  C   LIG A   1      -7.890  -2.212 130.739  0.00  0.00    +0.060 C 
ATOM     14  C   LIG A   1      -6.026  -3.666 129.904  0.00  0.00    +0.060 C 
ATOM     15  O   LIG A   1      -6.679  -1.701 128.742  0.00  0.00    -0.481 OA
ATOM     16  C   LIG A   1      -7.246  -1.365 127.544  0.00  0.00    +0.136 A 
ATOM     17  C   LIG A   1      -6.740  -0.212 126.947  0.00  0.00    +0.093 A 
ENDROOT
BRANCH   8  18
ATOM     18  O   LIG A   1      -9.762  -2.370 125.046  0.00  0.00    -0.494 OA
ATOM     19  C   LIG A   1      -9.187  -3.287 124.110  0.00  0.00    +0.277 C 
ENDBRANCH   8  18
TORSDOF 1
ENDMDL
MODEL 9
REMARK VINA RESULT:      -6.3      8.535      9.400
REMARK  Name = NuBBE_1193
REMARK  4 active torsions:
REMARK  status: ('A' for Active; 'I' for Inactive)
REMARK    1  A    between atoms: C_8  and  O_9
REMARK    2  A    between atoms: O_9  and  C_10
REMARK    3  A    between atoms: C_14  and  C_15
REMARK    4  A    between atoms: C_14  and  C_16
REMARK                            x       y       z     vdW  Elec       q    Type
REMARK                         _______ _______ _______ _____ _____    ______ ____
ROOT
ATOM      1  O   LIG A   1      -9.044   3.812 129.243  0.00  0.00    -0.245 OA
ATOM      2  C   LIG A   1      -8.714   2.678 128.916  0.00  0.00    +0.337 A 
ATOM      3  C   LIG A   1      -8.005   1.799 129.859  0.00  0.00    +0.093 A 
ATOM      4  C   LIG A   1      -7.614   0.564 129.531  0.00  0.00    +0.022 A 
ATOM      5  O   LIG A   1      -8.980   2.158 127.658  0.00  0.00    -0.422 OA
ATOM      6  C   LIG A   1      -8.579   0.854 127.302  0.00  0.00    +0.146 A 
ATOM      7  C   LIG A   1      -7.888   0.041 128.197  0.00  0.00    +0.060 A 
ATOM      8  C   LIG A   1      -7.501  -1.241 127.771  0.00  0.00    +0.141 A 
ATOM      9  C   LIG A   1      -7.863  -1.718 126.494  0.00  0.00    +0.059 A 
ATOM     10  C   LIG A   1      -7.572  -3.080 126.059  0.00  0.00    +0.015 C 
ATOM     11  C   LIG A   1      -7.872  -3.424 124.803  0.00  0.00    +0.020 C 
ATOM     12  C   LIG A   1      -8.509  -2.477 123.815  0.00  0.00    +0.123 C 
ATOM     13  C   LIG A   1      -7.513  -2.163 122.692  0.00  0.00    +0.060 C 
ATOM     14  C   LIG A   1      -9.762  -3.133 123.224  0.00  0.00    +0.060 C 
ATOM     15  O   LIG A   1      -8.943  -1.215 124.358  0.00  0.00    -0.481 OA
ATOM     16  C   LIG A   1      -8.552  -0.866 125.621  0.00  0.00    +0.136 A 
ATOM     17  C   LIG A   1      -8.909   0.421 126.021  0.00  0.00    +0.093 A 
ENDROOT
BRANCH   8  18
ATOM     18  O   LIG A   1      -6.816  -2.057 128.645  0.00  0.00    -0.494 OA
ATOM     19  C   LIG A   1      -5.406  -1.925 128.439  0.00  0.00    +0.277 C 
ENDBRANCH   8  18
TORSDOF 1
ENDMDL
