MODEL 1
REMARK VINA RESULT:      -9.6      0.000      0.000
REMARK  Name = NuBBE_1430
REMARK  9 active torsions:
REMARK  status: ('A' for Active; 'I' for Inactive)
REMARK    1  A    between atoms: O_1  and  C_2
REMARK    2  A    between atoms: C_6  and  C_7
REMARK    3  A    between atoms: C_15  and  C_16
REMARK    4  A    between atoms: C_17  and  C_18
REMARK    5  A    between atoms: C_21  and  C_22
REMARK    6  A    between atoms: C_24  and  C_26
REMARK    7  A    between atoms: C_27  and  C_29
REMARK    8  A    between atoms: C_32  and  C_33
REMARK    9  A    between atoms: C_32  and  C_34
REMARK                            x       y       z     vdW  Elec       q    Type
REMARK                         _______ _______ _______ _____ _____    ______ ____
ROOT
ATOM      1  C   LIG A   1      -7.036  -3.347 123.802  0.00  0.00    +0.121 C 
ATOM      2  C   LIG A   1      -8.405  -3.770 124.523  0.00  0.00    +0.032 C 
ATOM      3  C   LIG A   1      -8.486  -3.348 125.977  0.00  0.00    +0.013 C 
ATOM      4  C   LIG A   1      -8.067  -1.894 126.291  0.00  0.00    -0.007 C 
ATOM      5  C   LIG A   1      -9.229  -0.909 126.194  0.00  0.00    +0.016 C 
ATOM      6  C   LIG A   1      -6.972  -1.470 125.288  0.00  0.00    +0.007 C 
ATOM      7  C   LIG A   1      -6.226  -0.190 125.767  0.00  0.00    +0.009 C 
ATOM      8  C   LIG A   1      -5.545  -0.474 127.074  0.00  0.00    +0.031 C 
ATOM      9  C   LIG A   1      -6.385  -1.255 128.091  0.00  0.00    -0.063 C 
ATOM     10  C   LIG A   1      -7.494  -1.862 127.769  0.00  0.00    -0.064 C 
ATOM     11  C   LIG A   1      -8.381  -2.657 128.758  0.00  0.00    +0.032 C 
ATOM     12  C   LIG A   1      -7.610  -3.261 129.943  0.00  0.00    +0.012 C 
ATOM     13  C   LIG A   1      -6.818  -2.170 130.658  0.00  0.00    -0.019 C 
ATOM     14  C   LIG A   1      -8.066  -1.222 131.153  0.00  0.00    +0.012 C 
ATOM     15  C   LIG A   1      -5.602  -1.585 129.393  0.00  0.00    -0.005 C 
ATOM     16  C   LIG A   1      -4.458  -2.515 128.640  0.00  0.00    +0.016 C 
ATOM     17  C   LIG A   1      -4.539  -0.540 129.938  0.00  0.00    +0.012 C 
ATOM     18  C   LIG A   1      -3.809  -1.143 131.151  0.00  0.00    +0.008 C 
ATOM     19  C   LIG A   1      -4.773  -1.908 132.068  0.00  0.00    -0.028 C 
ATOM     20  C   LIG A   1      -5.485  -0.442 132.408  0.00  0.00    +0.011 C 
ATOM     21  C   LIG A   1      -6.200  -2.550 132.164  0.00  0.00    +0.005 C 
ATOM     22  C   LIG A   1      -5.976  -4.022 132.979  0.00  0.00    -0.007 C 
ATOM     23  C   LIG A   1      -6.858  -4.424 134.145  0.00  0.00    +0.008 C 
ATOM     24  C   LIG A   1      -4.423  -4.084 133.355  0.00  0.00    -0.011 C 
ATOM     25  C   LIG A   1      -3.690  -4.463 134.610  0.00  0.00    +0.008 C 
ATOM     26  C   LIG A   1      -3.793  -4.465 132.064  0.00  0.00    +0.004 C 
ATOM     27  C   LIG A   1      -4.473  -3.435 131.188  0.00  0.00    +0.007 C 
ATOM     28  C   LIG A   1      -7.163  -1.753 123.718  0.00  0.00    -0.005 C 
ATOM     29  C   LIG A   1      -6.661  -0.406 123.122  0.00  0.00    +0.014 C 
ATOM     30  C   LIG A   1      -8.301  -1.825 122.614  0.00  0.00    +0.014 C 
ENDROOT
BRANCH   1  31
ATOM     31  O   LIG A   1      -5.935  -3.911 124.511  0.00  0.00    -0.391 OA
ATOM     32  H   LIG A   1      -6.250  -4.285 125.354  0.00  0.00    +0.210 HD
ENDBRANCH   1  31
TORSDOF 1
ENDMDL
MODEL 2
REMARK VINA RESULT:      -9.5      1.648      3.704
REMARK  Name = NuBBE_1430
REMARK  9 active torsions:
REMARK  status: ('A' for Active; 'I' for Inactive)
REMARK    1  A    between atoms: O_1  and  C_2
REMARK    2  A    between atoms: C_6  and  C_7
REMARK    3  A    between atoms: C_15  and  C_16
REMARK    4  A    between atoms: C_17  and  C_18
REMARK    5  A    between atoms: C_21  and  C_22
REMARK    6  A    between atoms: C_24  and  C_26
REMARK    7  A    between atoms: C_27  and  C_29
REMARK    8  A    between atoms: C_32  and  C_33
REMARK    9  A    between atoms: C_32  and  C_34
REMARK                            x       y       z     vdW  Elec       q    Type
REMARK                         _______ _______ _______ _____ _____    ______ ____
ROOT
ATOM      1  C   LIG A   1      -8.871  -0.401 124.338  0.00  0.00    +0.121 C 
ATOM      2  C   LIG A   1      -7.334   0.033 124.188  0.00  0.00    +0.032 C 
ATOM      3  C   LIG A   1      -6.455  -0.424 125.336  0.00  0.00    +0.013 C 
ATOM      4  C   LIG A   1      -6.623  -1.893 125.781  0.00  0.00    -0.007 C 
ATOM      5  C   LIG A   1      -5.708  -2.850 125.022  0.00  0.00    +0.016 C 
ATOM      6  C   LIG A   1      -8.089  -2.315 125.545  0.00  0.00    +0.007 C 
ATOM      7  C   LIG A   1      -8.436  -3.624 126.315  0.00  0.00    +0.009 C 
ATOM      8  C   LIG A   1      -8.275  -3.387 127.789  0.00  0.00    +0.031 C 
ATOM      9  C   LIG A   1      -7.014  -2.614 128.191  0.00  0.00    -0.063 C 
ATOM     10  C   LIG A   1      -6.274  -1.976 127.326  0.00  0.00    -0.064 C 
ATOM     11  C   LIG A   1      -4.990  -1.187 127.679  0.00  0.00    +0.032 C 
ATOM     12  C   LIG A   1      -4.972  -0.630 129.112  0.00  0.00    +0.012 C 
ATOM     13  C   LIG A   1      -5.227  -1.755 130.111  0.00  0.00    -0.019 C 
ATOM     14  C   LIG A   1      -3.911  -2.688 129.795  0.00  0.00    +0.012 C 
ATOM     15  C   LIG A   1      -6.940  -2.335 129.718  0.00  0.00    -0.005 C 
ATOM     16  C   LIG A   1      -8.313  -1.411 129.761  0.00  0.00    +0.016 C 
ATOM     17  C   LIG A   1      -7.514  -3.416 130.728  0.00  0.00    +0.012 C 
ATOM     18  C   LIG A   1      -7.448  -2.860 132.161  0.00  0.00    +0.008 C 
ATOM     19  C   LIG A   1      -6.139  -2.097 132.411  0.00  0.00    -0.028 C 
ATOM     20  C   LIG A   1      -5.352  -3.555 132.248  0.00  0.00    +0.011 C 
ATOM     21  C   LIG A   1      -4.903  -1.427 131.717  0.00  0.00    +0.005 C 
ATOM     22  C   LIG A   1      -4.641   0.018 132.567  0.00  0.00    -0.007 C 
ATOM     23  C   LIG A   1      -3.260   0.410 133.057  0.00  0.00    +0.008 C 
ATOM     24  C   LIG A   1      -5.721   0.037 133.746  0.00  0.00    -0.011 C 
ATOM     25  C   LIG A   1      -5.632   0.369 135.208  0.00  0.00    +0.008 C 
ATOM     26  C   LIG A   1      -6.965   0.437 133.038  0.00  0.00    +0.004 C 
ATOM     27  C   LIG A   1      -6.885  -0.555 131.898  0.00  0.00    +0.007 C 
ATOM     28  C   LIG A   1      -8.806  -1.989 124.144  0.00  0.00    -0.005 C 
ATOM     29  C   LIG A   1      -9.550  -3.331 123.885  0.00  0.00    +0.014 C 
ATOM     30  C   LIG A   1      -8.477  -1.864 122.597  0.00  0.00    +0.014 C 
ENDROOT
BRANCH   1  31
ATOM     31  O   LIG A   1      -9.393   0.121 125.558  0.00  0.00    -0.391 OA
ATOM     32  H   LIG A   1     -10.176  -0.396 125.822  0.00  0.00    +0.210 HD
ENDBRANCH   1  31
TORSDOF 1
ENDMDL
MODEL 3
REMARK VINA RESULT:      -9.3      3.810      7.596
REMARK  Name = NuBBE_1430
REMARK  9 active torsions:
REMARK  status: ('A' for Active; 'I' for Inactive)
REMARK    1  A    between atoms: O_1  and  C_2
REMARK    2  A    between atoms: C_6  and  C_7
REMARK    3  A    between atoms: C_15  and  C_16
REMARK    4  A    between atoms: C_17  and  C_18
REMARK    5  A    between atoms: C_21  and  C_22
REMARK    6  A    between atoms: C_24  and  C_26
REMARK    7  A    between atoms: C_27  and  C_29
REMARK    8  A    between atoms: C_32  and  C_33
REMARK    9  A    between atoms: C_32  and  C_34
REMARK                            x       y       z     vdW  Elec       q    Type
REMARK                         _______ _______ _______ _____ _____    ______ ____
ROOT
ATOM      1  C   LIG A   1      -8.859   4.981 132.544  0.00  0.00    +0.121 C 
ATOM      2  C   LIG A   1      -9.425   3.754 133.408  0.00  0.00    +0.032 C 
ATOM      3  C   LIG A   1      -8.897   2.402 132.968  0.00  0.00    +0.013 C 
ATOM      4  C   LIG A   1      -7.375   2.311 132.721  0.00  0.00    -0.007 C 
ATOM      5  C   LIG A   1      -6.594   1.934 133.977  0.00  0.00    +0.016 C 
ATOM      6  C   LIG A   1      -6.874   3.682 132.218  0.00  0.00    +0.007 C 
ATOM      7  C   LIG A   1      -5.457   3.572 131.581  0.00  0.00    +0.009 C 
ATOM      8  C   LIG A   1      -5.519   2.658 130.392  0.00  0.00    +0.031 C 
ATOM      9  C   LIG A   1      -6.331   1.374 130.598  0.00  0.00    -0.063 C 
ATOM     10  C   LIG A   1      -7.127   1.201 131.617  0.00  0.00    -0.064 C 
ATOM     11  C   LIG A   1      -7.962  -0.078 131.874  0.00  0.00    +0.032 C 
ATOM     12  C   LIG A   1      -8.336  -0.848 130.597  0.00  0.00    +0.012 C 
ATOM     13  C   LIG A   1      -7.078  -1.156 129.789  0.00  0.00    -0.019 C 
ATOM     14  C   LIG A   1      -6.296  -2.108 130.877  0.00  0.00    +0.012 C 
ATOM     15  C   LIG A   1      -6.423   0.506 129.311  0.00  0.00    -0.005 C 
ATOM     16  C   LIG A   1      -7.226   1.650 128.424  0.00  0.00    +0.016 C 
ATOM     17  C   LIG A   1      -5.183   0.463 128.322  0.00  0.00    +0.012 C 
ATOM     18  C   LIG A   1      -5.559  -0.350 127.070  0.00  0.00    +0.008 C 
ATOM     19  C   LIG A   1      -6.383  -1.594 127.431  0.00  0.00    -0.028 C 
ATOM     20  C   LIG A   1      -5.021  -2.176 128.192  0.00  0.00    +0.011 C 
ATOM     21  C   LIG A   1      -7.227  -2.279 128.560  0.00  0.00    +0.005 C 
ATOM     22  C   LIG A   1      -8.571  -2.951 127.770  0.00  0.00    -0.007 C 
ATOM     23  C   LIG A   1      -9.004  -4.382 128.020  0.00  0.00    +0.008 C 
ATOM     24  C   LIG A   1      -8.360  -2.653 126.213  0.00  0.00    -0.011 C 
ATOM     25  C   LIG A   1      -8.512  -3.500 124.982  0.00  0.00    +0.008 C 
ATOM     26  C   LIG A   1      -8.748  -1.224 126.101  0.00  0.00    +0.004 C 
ATOM     27  C   LIG A   1      -7.915  -0.691 127.247  0.00  0.00    +0.007 C 
ATOM     28  C   LIG A   1      -7.317   5.029 132.973  0.00  0.00    -0.005 C 
ATOM     29  C   LIG A   1      -5.964   5.798 133.001  0.00  0.00    +0.014 C 
ATOM     30  C   LIG A   1      -7.659   5.565 134.428  0.00  0.00    +0.014 C 
ENDROOT
BRANCH   1  31
ATOM     31  O   LIG A   1      -9.183   4.782 131.170  0.00  0.00    -0.391 OA
ATOM     32  H   LIG A   1      -9.986   4.234 131.103  0.00  0.00    +0.210 HD
ENDBRANCH   1  31
TORSDOF 1
ENDMDL
MODEL 4
REMARK VINA RESULT:      -9.0      3.520      7.612
REMARK  Name = NuBBE_1430
REMARK  9 active torsions:
REMARK  status: ('A' for Active; 'I' for Inactive)
REMARK    1  A    between atoms: O_1  and  C_2
REMARK    2  A    between atoms: C_6  and  C_7
REMARK    3  A    between atoms: C_15  and  C_16
REMARK    4  A    between atoms: C_17  and  C_18
REMARK    5  A    between atoms: C_21  and  C_22
REMARK    6  A    between atoms: C_24  and  C_26
REMARK    7  A    between atoms: C_27  and  C_29
REMARK    8  A    between atoms: C_32  and  C_33
REMARK    9  A    between atoms: C_32  and  C_34
REMARK                            x       y       z     vdW  Elec       q    Type
REMARK                         _______ _______ _______ _____ _____    ______ ____
ROOT
ATOM      1  C   LIG A   1      -5.859   3.957 131.866  0.00  0.00    +0.121 C 
ATOM      2  C   LIG A   1      -6.219   4.805 130.553  0.00  0.00    +0.032 C 
ATOM      3  C   LIG A   1      -6.871   3.987 129.456  0.00  0.00    +0.013 C 
ATOM      4  C   LIG A   1      -8.014   3.045 129.895  0.00  0.00    -0.007 C 
ATOM      5  C   LIG A   1      -9.382   3.721 129.866  0.00  0.00    +0.016 C 
ATOM      6  C   LIG A   1      -7.730   2.562 131.333  0.00  0.00    +0.007 C 
ATOM      7  C   LIG A   1      -8.604   1.326 131.702  0.00  0.00    +0.009 C 
ATOM      8  C   LIG A   1      -8.270   0.191 130.778  0.00  0.00    +0.031 C 
ATOM      9  C   LIG A   1      -8.129   0.573 129.300  0.00  0.00    -0.063 C 
ATOM     10  C   LIG A   1      -8.037   1.811 128.899  0.00  0.00    -0.064 C 
ATOM     11  C   LIG A   1      -7.900   2.249 127.420  0.00  0.00    +0.032 C 
ATOM     12  C   LIG A   1      -7.224   1.203 126.519  0.00  0.00    +0.012 C 
ATOM     13  C   LIG A   1      -7.950  -0.134 126.639  0.00  0.00    -0.019 C 
ATOM     14  C   LIG A   1      -9.423   0.316 126.066  0.00  0.00    +0.012 C 
ATOM     15  C   LIG A   1      -7.709  -0.627 128.406  0.00  0.00    -0.005 C 
ATOM     16  C   LIG A   1      -6.254  -0.865 129.159  0.00  0.00    +0.016 C 
ATOM     17  C   LIG A   1      -8.245  -2.077 128.761  0.00  0.00    +0.012 C 
ATOM     18  C   LIG A   1      -7.593  -3.106 127.819  0.00  0.00    +0.008 C 
ATOM     19  C   LIG A   1      -7.505  -2.578 126.381  0.00  0.00    -0.028 C 
ATOM     20  C   LIG A   1      -9.168  -2.634 126.343  0.00  0.00    +0.011 C 
ATOM     21  C   LIG A   1      -7.593  -1.292 125.488  0.00  0.00    +0.005 C 
ATOM     22  C   LIG A   1      -6.337  -1.444 124.357  0.00  0.00    -0.007 C 
ATOM     23  C   LIG A   1      -6.572  -1.222 122.876  0.00  0.00    +0.008 C 
ATOM     24  C   LIG A   1      -5.653  -2.860 124.648  0.00  0.00    -0.011 C 
ATOM     25  C   LIG A   1      -5.203  -3.980 123.754  0.00  0.00    +0.008 C 
ATOM     26  C   LIG A   1      -4.819  -2.577 125.845  0.00  0.00    +0.004 C 
ATOM     27  C   LIG A   1      -5.881  -1.894 126.681  0.00  0.00    +0.007 C 
ATOM     28  C   LIG A   1      -7.303   3.615 132.469  0.00  0.00    -0.005 C 
ATOM     29  C   LIG A   1      -8.163   3.111 133.664  0.00  0.00    +0.014 C 
ATOM     30  C   LIG A   1      -7.561   5.119 132.907  0.00  0.00    +0.014 C 
ENDROOT
BRANCH   1  31
ATOM     31  O   LIG A   1      -4.991   2.883 131.512  0.00  0.00    -0.391 OA
ATOM     32  H   LIG A   1      -4.121   3.018 131.931  0.00  0.00    +0.210 HD
ENDBRANCH   1  31
TORSDOF 1
ENDMDL
MODEL 5
REMARK VINA RESULT:      -8.8      5.875      7.746
REMARK  Name = NuBBE_1430
REMARK  9 active torsions:
REMARK  status: ('A' for Active; 'I' for Inactive)
REMARK    1  A    between atoms: O_1  and  C_2
REMARK    2  A    between atoms: C_6  and  C_7
REMARK    3  A    between atoms: C_15  and  C_16
REMARK    4  A    between atoms: C_17  and  C_18
REMARK    5  A    between atoms: C_21  and  C_22
REMARK    6  A    between atoms: C_24  and  C_26
REMARK    7  A    between atoms: C_27  and  C_29
REMARK    8  A    between atoms: C_32  and  C_33
REMARK    9  A    between atoms: C_32  and  C_34
REMARK                            x       y       z     vdW  Elec       q    Type
REMARK                         _______ _______ _______ _____ _____    ______ ____
ROOT
ATOM      1  C   LIG A   1      -5.997  -0.588 128.315  0.00  0.00    +0.121 C 
ATOM      2  C   LIG A   1      -6.878  -0.330 129.631  0.00  0.00    +0.032 C 
ATOM      3  C   LIG A   1      -6.840   1.105 130.120  0.00  0.00    +0.013 C 
ATOM      4  C   LIG A   1      -7.032   2.198 129.046  0.00  0.00    -0.007 C 
ATOM      5  C   LIG A   1      -8.497   2.568 128.832  0.00  0.00    +0.016 C 
ATOM      6  C   LIG A   1      -6.450   1.684 127.711  0.00  0.00    +0.007 C 
ATOM      7  C   LIG A   1      -6.247   2.846 126.694  0.00  0.00    +0.009 C 
ATOM      8  C   LIG A   1      -5.263   3.830 127.257  0.00  0.00    +0.031 C 
ATOM      9  C   LIG A   1      -5.465   4.180 128.736  0.00  0.00    -0.063 C 
ATOM     10  C   LIG A   1      -6.246   3.491 129.522  0.00  0.00    -0.064 C 
ATOM     11  C   LIG A   1      -6.488   3.805 131.018  0.00  0.00    +0.032 C 
ATOM     12  C   LIG A   1      -5.313   4.519 131.705  0.00  0.00    +0.012 C 
ATOM     13  C   LIG A   1      -4.940   5.776 130.925  0.00  0.00    -0.019 C 
ATOM     14  C   LIG A   1      -6.348   6.611 131.085  0.00  0.00    +0.012 C 
ATOM     15  C   LIG A   1      -4.373   5.143 129.282  0.00  0.00    -0.005 C 
ATOM     16  C   LIG A   1      -3.117   4.096 129.024  0.00  0.00    +0.016 C 
ATOM     17  C   LIG A   1      -3.777   6.255 128.320  0.00  0.00    +0.012 C 
ATOM     18  C   LIG A   1      -2.632   6.990 129.040  0.00  0.00    +0.008 C 
ATOM     19  C   LIG A   1      -2.970   7.255 130.514  0.00  0.00    -0.028 C 
ATOM     20  C   LIG A   1      -4.158   8.287 129.972  0.00  0.00    +0.011 C 
ATOM     21  C   LIG A   1      -3.932   6.868 131.689  0.00  0.00    +0.005 C 
ATOM     22  C   LIG A   1      -2.940   6.754 133.062  0.00  0.00    -0.007 C 
ATOM     23  C   LIG A   1      -3.311   7.433 134.366  0.00  0.00    +0.008 C 
ATOM     24  C   LIG A   1      -1.470   7.156 132.576  0.00  0.00    -0.011 C 
ATOM     25  C   LIG A   1      -0.411   8.049 133.157  0.00  0.00    +0.008 C 
ATOM     26  C   LIG A   1      -1.010   5.923 131.886  0.00  0.00    +0.004 C 
ATOM     27  C   LIG A   1      -2.226   5.707 131.011  0.00  0.00    +0.007 C 
ATOM     28  C   LIG A   1      -6.811   0.208 127.188  0.00  0.00    -0.005 C 
ATOM     29  C   LIG A   1      -7.066   0.494 125.680  0.00  0.00    +0.014 C 
ATOM     30  C   LIG A   1      -8.003  -0.840 127.199  0.00  0.00    +0.014 C 
ENDROOT
BRANCH   1  31
ATOM     31  O   LIG A   1      -4.644  -0.222 128.573  0.00  0.00    -0.391 OA
ATOM     32  H   LIG A   1      -4.364  -0.599 129.427  0.00  0.00    +0.210 HD
ENDBRANCH   1  31
TORSDOF 1
ENDMDL
MODEL 6
REMARK VINA RESULT:      -8.7      4.529      6.740
REMARK  Name = NuBBE_1430
REMARK  9 active torsions:
REMARK  status: ('A' for Active; 'I' for Inactive)
REMARK    1  A    between atoms: O_1  and  C_2
REMARK    2  A    between atoms: C_6  and  C_7
REMARK    3  A    between atoms: C_15  and  C_16
REMARK    4  A    between atoms: C_17  and  C_18
REMARK    5  A    between atoms: C_21  and  C_22
REMARK    6  A    between atoms: C_24  and  C_26
REMARK    7  A    between atoms: C_27  and  C_29
REMARK    8  A    between atoms: C_32  and  C_33
REMARK    9  A    between atoms: C_32  and  C_34
REMARK                            x       y       z     vdW  Elec       q    Type
REMARK                         _______ _______ _______ _____ _____    ______ ____
ROOT
ATOM      1  C   LIG A   1      -8.062   3.581 124.517  0.00  0.00    +0.121 C 
ATOM      2  C   LIG A   1      -6.557   4.099 124.717  0.00  0.00    +0.032 C 
ATOM      3  C   LIG A   1      -6.006   3.855 126.109  0.00  0.00    +0.013 C 
ATOM      4  C   LIG A   1      -6.241   2.446 126.699  0.00  0.00    -0.007 C 
ATOM      5  C   LIG A   1      -5.123   1.466 126.352  0.00  0.00    +0.016 C 
ATOM      6  C   LIG A   1      -7.573   1.896 126.146  0.00  0.00    +0.007 C 
ATOM      7  C   LIG A   1      -8.073   0.676 126.975  0.00  0.00    +0.009 C 
ATOM      8  C   LIG A   1      -8.325   1.110 128.390  0.00  0.00    +0.031 C 
ATOM      9  C   LIG A   1      -7.246   2.014 128.997  0.00  0.00    -0.063 C 
ATOM     10  C   LIG A   1      -6.321   2.587 128.276  0.00  0.00    -0.064 C 
ATOM     11  C   LIG A   1      -5.207   3.502 128.840  0.00  0.00    +0.032 C 
ATOM     12  C   LIG A   1      -5.597   4.238 130.132  0.00  0.00    +0.012 C 
ATOM     13  C   LIG A   1      -6.076   3.235 131.178  0.00  0.00    -0.019 C 
ATOM     14  C   LIG A   1      -4.694   2.363 131.357  0.00  0.00    +0.012 C 
ATOM     15  C   LIG A   1      -7.598   2.492 130.434  0.00  0.00    -0.005 C 
ATOM     16  C   LIG A   1      -8.960   3.315 129.981  0.00  0.00    +0.016 C 
ATOM     17  C   LIG A   1      -8.388   1.511 131.399  0.00  0.00    +0.012 C 
ATOM     18  C   LIG A   1      -8.731   2.249 132.705  0.00  0.00    +0.008 C 
ATOM     19  C   LIG A   1      -7.565   3.127 133.180  0.00  0.00    -0.028 C 
ATOM     20  C   LIG A   1      -6.716   1.719 133.440  0.00  0.00    +0.011 C 
ATOM     21  C   LIG A   1      -6.210   3.787 132.749  0.00  0.00    +0.005 C 
ATOM     22  C   LIG A   1      -6.235   5.345 133.424  0.00  0.00    -0.007 C 
ATOM     23  C   LIG A   1      -5.053   5.891 134.200  0.00  0.00    +0.008 C 
ATOM     24  C   LIG A   1      -7.595   5.439 134.261  0.00  0.00    -0.011 C 
ATOM     25  C   LIG A   1      -7.916   5.960 135.632  0.00  0.00    +0.008 C 
ATOM     26  C   LIG A   1      -8.612   5.657 133.201  0.00  0.00    +0.004 C 
ATOM     27  C   LIG A   1      -8.193   4.535 132.275  0.00  0.00    +0.007 C 
ATOM     28  C   LIG A   1      -7.895   1.989 124.574  0.00  0.00    -0.005 C 
ATOM     29  C   LIG A   1      -8.495   0.576 124.322  0.00  0.00    +0.014 C 
ATOM     30  C   LIG A   1      -7.162   1.938 123.167  0.00  0.00    +0.014 C 
ENDROOT
BRANCH   1  31
ATOM     31  O   LIG A   1      -8.911   4.217 125.468  0.00  0.00    -0.391 OA
ATOM     32  H   LIG A   1      -8.735   5.176 125.469  0.00  0.00    +0.210 HD
ENDBRANCH   1  31
TORSDOF 1
ENDMDL
MODEL 7
REMARK VINA RESULT:      -8.6      1.848      3.197
REMARK  Name = NuBBE_1430
REMARK  9 active torsions:
REMARK  status: ('A' for Active; 'I' for Inactive)
REMARK    1  A    between atoms: O_1  and  C_2
REMARK    2  A    between atoms: C_6  and  C_7
REMARK    3  A    between atoms: C_15  and  C_16
REMARK    4  A    between atoms: C_17  and  C_18
REMARK    5  A    between atoms: C_21  and  C_22
REMARK    6  A    between atoms: C_24  and  C_26
REMARK    7  A    between atoms: C_27  and  C_29
REMARK    8  A    between atoms: C_32  and  C_33
REMARK    9  A    between atoms: C_32  and  C_34
REMARK                            x       y       z     vdW  Elec       q    Type
REMARK                         _______ _______ _______ _____ _____    ______ ____
ROOT
ATOM      1  C   LIG A   1      -9.003   0.202 124.967  0.00  0.00    +0.121 C 
ATOM      2  C   LIG A   1      -8.625   1.557 125.738  0.00  0.00    +0.032 C 
ATOM      3  C   LIG A   1      -7.676   1.353 126.903  0.00  0.00    +0.013 C 
ATOM      4  C   LIG A   1      -6.450   0.452 126.635  0.00  0.00    -0.007 C 
ATOM      5  C   LIG A   1      -5.247   1.232 126.109  0.00  0.00    +0.016 C 
ATOM      6  C   LIG A   1      -6.842  -0.617 125.593  0.00  0.00    +0.007 C 
ATOM      7  C   LIG A   1      -5.812  -1.784 125.558  0.00  0.00    +0.009 C 
ATOM      8  C   LIG A   1      -5.784  -2.459 126.899  0.00  0.00    +0.031 C 
ATOM      9  C   LIG A   1      -5.779  -1.514 128.106  0.00  0.00    -0.063 C 
ATOM     10  C   LIG A   1      -6.048  -0.241 128.003  0.00  0.00    -0.064 C 
ATOM     11  C   LIG A   1      -6.050   0.756 129.188  0.00  0.00    +0.032 C 
ATOM     12  C   LIG A   1      -6.374   0.114 130.546  0.00  0.00    +0.012 C 
ATOM     13  C   LIG A   1      -5.432  -1.058 130.805  0.00  0.00    -0.019 C 
ATOM     14  C   LIG A   1      -4.004  -0.244 130.834  0.00  0.00    +0.012 C 
ATOM     15  C   LIG A   1      -5.828  -2.269 129.464  0.00  0.00    -0.005 C 
ATOM     16  C   LIG A   1      -7.303  -2.966 129.187  0.00  0.00    +0.016 C 
ATOM     17  C   LIG A   1      -5.081  -3.663 129.597  0.00  0.00    +0.012 C 
ATOM     18  C   LIG A   1      -5.380  -4.271 130.978  0.00  0.00    +0.008 C 
ATOM     19  C   LIG A   1      -5.358  -3.204 132.082  0.00  0.00    -0.028 C 
ATOM     20  C   LIG A   1      -3.727  -3.047 131.786  0.00  0.00    +0.011 C 
ATOM     21  C   LIG A   1      -5.389  -1.662 132.363  0.00  0.00    +0.005 C 
ATOM     22  C   LIG A   1      -6.415  -1.470 133.701  0.00  0.00    -0.007 C 
ATOM     23  C   LIG A   1      -6.014  -0.624 134.893  0.00  0.00    +0.008 C 
ATOM     24  C   LIG A   1      -6.851  -2.946 134.135  0.00  0.00    -0.011 C 
ATOM     25  C   LIG A   1      -6.942  -3.634 135.468  0.00  0.00    +0.008 C 
ATOM     26  C   LIG A   1      -7.887  -3.287 133.128  0.00  0.00    +0.004 C 
ATOM     27  C   LIG A   1      -7.109  -2.900 131.888  0.00  0.00    +0.007 C 
ATOM     28  C   LIG A   1      -7.624  -0.192 124.255  0.00  0.00    -0.005 C 
ATOM     29  C   LIG A   1      -6.866  -1.046 123.198  0.00  0.00    +0.014 C 
ATOM     30  C   LIG A   1      -7.725   1.010 123.223  0.00  0.00    +0.014 C 
ENDROOT
BRANCH   1  31
ATOM     31  O   LIG A   1      -9.589  -0.717 125.885  0.00  0.00    -0.391 OA
ATOM     32  H   LIG A   1      -9.148  -0.635 126.751  0.00  0.00    +0.210 HD
ENDBRANCH   1  31
TORSDOF 1
ENDMDL
MODEL 8
REMARK VINA RESULT:      -8.6      4.273      6.724
REMARK  Name = NuBBE_1430
REMARK  9 active torsions:
REMARK  status: ('A' for Active; 'I' for Inactive)
REMARK    1  A    between atoms: O_1  and  C_2
REMARK    2  A    between atoms: C_6  and  C_7
REMARK    3  A    between atoms: C_15  and  C_16
REMARK    4  A    between atoms: C_17  and  C_18
REMARK    5  A    between atoms: C_21  and  C_22
REMARK    6  A    between atoms: C_24  and  C_26
REMARK    7  A    between atoms: C_27  and  C_29
REMARK    8  A    between atoms: C_32  and  C_33
REMARK    9  A    between atoms: C_32  and  C_34
REMARK                            x       y       z     vdW  Elec       q    Type
REMARK                         _______ _______ _______ _____ _____    ______ ____
ROOT
ATOM      1  C   LIG A   1      -9.291   5.147 132.639  0.00  0.00    +0.121 C 
ATOM      2  C   LIG A   1      -7.757   5.352 133.060  0.00  0.00    +0.032 C 
ATOM      3  C   LIG A   1      -6.852   4.207 132.648  0.00  0.00    +0.013 C 
ATOM      4  C   LIG A   1      -7.015   3.695 131.200  0.00  0.00    -0.007 C 
ATOM      5  C   LIG A   1      -6.121   4.434 130.207  0.00  0.00    +0.016 C 
ATOM      6  C   LIG A   1      -8.487   3.879 130.774  0.00  0.00    +0.007 C 
ATOM      7  C   LIG A   1      -8.821   3.045 129.502  0.00  0.00    +0.009 C 
ATOM      8  C   LIG A   1      -8.624   1.587 129.800  0.00  0.00    +0.031 C 
ATOM      9  C   LIG A   1      -7.351   1.248 130.584  0.00  0.00    -0.063 C 
ATOM     10  C   LIG A   1      -6.630   2.157 131.181  0.00  0.00    -0.064 C 
ATOM     11  C   LIG A   1      -5.334   1.868 131.979  0.00  0.00    +0.032 C 
ATOM     12  C   LIG A   1      -5.281   0.461 132.597  0.00  0.00    +0.012 C 
ATOM     13  C   LIG A   1      -5.516  -0.590 131.516  0.00  0.00    -0.019 C 
ATOM     14  C   LIG A   1      -4.211  -0.284 130.565  0.00  0.00    +0.012 C 
ATOM     15  C   LIG A   1      -7.240  -0.264 130.928  0.00  0.00    -0.005 C 
ATOM     16  C   LIG A   1      -8.608  -0.299 131.859  0.00  0.00    +0.016 C 
ATOM     17  C   LIG A   1      -7.793  -1.332 129.894  0.00  0.00    +0.012 C 
ATOM     18  C   LIG A   1      -7.691  -2.738 130.510  0.00  0.00    +0.008 C 
ATOM     19  C   LIG A   1      -6.374  -2.924 131.277  0.00  0.00    -0.028 C 
ATOM     20  C   LIG A   1      -5.596  -2.805 129.810  0.00  0.00    +0.011 C 
ATOM     21  C   LIG A   1      -5.153  -2.173 131.911  0.00  0.00    +0.005 C 
ATOM     22  C   LIG A   1      -4.865  -2.954 133.390  0.00  0.00    -0.007 C 
ATOM     23  C   LIG A   1      -3.472  -3.394 133.797  0.00  0.00    +0.008 C 
ATOM     24  C   LIG A   1      -5.917  -4.156 133.465  0.00  0.00    -0.011 C 
ATOM     25  C   LIG A   1      -5.792  -5.600 133.858  0.00  0.00    +0.008 C 
ATOM     26  C   LIG A   1      -7.176  -3.461 133.840  0.00  0.00    +0.004 C 
ATOM     27  C   LIG A   1      -7.126  -2.363 132.799  0.00  0.00    +0.007 C 
ATOM     28  C   LIG A   1      -9.237   5.274 131.044  0.00  0.00    -0.005 C 
ATOM     29  C   LIG A   1      -9.991   5.458 129.695  0.00  0.00    +0.014 C 
ATOM     30  C   LIG A   1      -8.943   6.833 131.101  0.00  0.00    +0.014 C 
ENDROOT
BRANCH   1  31
ATOM     31  O   LIG A   1      -9.782   3.939 133.215  0.00  0.00    -0.391 OA
ATOM     32  H   LIG A   1     -10.728   3.838 132.999  0.00  0.00    +0.210 HD
ENDBRANCH   1  31
TORSDOF 1
ENDMDL
MODEL 9
REMARK VINA RESULT:      -8.5      4.452      6.593
REMARK  Name = NuBBE_1430
REMARK  9 active torsions:
REMARK  status: ('A' for Active; 'I' for Inactive)
REMARK    1  A    between atoms: O_1  and  C_2
REMARK    2  A    between atoms: C_6  and  C_7
REMARK    3  A    between atoms: C_15  and  C_16
REMARK    4  A    between atoms: C_17  and  C_18
REMARK    5  A    between atoms: C_21  and  C_22
REMARK    6  A    between atoms: C_24  and  C_26
REMARK    7  A    between atoms: C_27  and  C_29
REMARK    8  A    between atoms: C_32  and  C_33
REMARK    9  A    between atoms: C_32  and  C_34
REMARK                            x       y       z     vdW  Elec       q    Type
REMARK                         _______ _______ _______ _____ _____    ______ ____
ROOT
ATOM      1  C   LIG A   1      -8.024   3.446 124.077  0.00  0.00    +0.121 C 
ATOM      2  C   LIG A   1      -6.478   3.057 123.901  0.00  0.00    +0.032 C 
ATOM      3  C   LIG A   1      -5.781   2.711 125.203  0.00  0.00    +0.013 C 
ATOM      4  C   LIG A   1      -6.538   1.752 126.148  0.00  0.00    -0.007 C 
ATOM      5  C   LIG A   1      -6.224   0.283 125.875  0.00  0.00    +0.016 C 
ATOM      6  C   LIG A   1      -8.055   1.977 125.968  0.00  0.00    +0.007 C 
ATOM      7  C   LIG A   1      -8.867   1.348 127.138  0.00  0.00    +0.009 C 
ATOM      8  C   LIG A   1      -8.470   2.009 128.427  0.00  0.00    +0.031 C 
ATOM      9  C   LIG A   1      -6.963   2.223 128.613  0.00  0.00    -0.063 C 
ATOM     10  C   LIG A   1      -6.109   2.095 127.635  0.00  0.00    -0.064 C 
ATOM     11  C   LIG A   1      -4.579   2.292 127.772  0.00  0.00    +0.032 C 
ATOM     12  C   LIG A   1      -4.172   3.264 128.891  0.00  0.00    +0.012 C 
ATOM     13  C   LIG A   1      -4.798   2.827 130.213  0.00  0.00    -0.019 C 
ATOM     14  C   LIG A   1      -4.072   1.361 130.374  0.00  0.00    +0.012 C 
ATOM     15  C   LIG A   1      -6.620   2.978 129.927  0.00  0.00    -0.005 C 
ATOM     16  C   LIG A   1      -7.428   4.361 129.513  0.00  0.00    +0.016 C 
ATOM     17  C   LIG A   1      -7.509   2.723 131.216  0.00  0.00    +0.012 C 
ATOM     18  C   LIG A   1      -7.058   3.673 132.341  0.00  0.00    +0.008 C 
ATOM     19  C   LIG A   1      -5.529   3.800 132.393  0.00  0.00    -0.028 C 
ATOM     20  C   LIG A   1      -5.492   2.199 132.848  0.00  0.00    +0.011 C 
ATOM     21  C   LIG A   1      -4.202   3.539 131.602  0.00  0.00    +0.005 C 
ATOM     22  C   LIG A   1      -3.241   4.911 131.872  0.00  0.00    -0.007 C 
ATOM     23  C   LIG A   1      -1.788   4.793 132.291  0.00  0.00    +0.008 C 
ATOM     24  C   LIG A   1      -4.076   5.843 132.868  0.00  0.00    -0.011 C 
ATOM     25  C   LIG A   1      -3.702   6.610 134.105  0.00  0.00    +0.008 C 
ATOM     26  C   LIG A   1      -5.077   6.467 131.965  0.00  0.00    +0.004 C 
ATOM     27  C   LIG A   1      -5.561   5.203 131.286  0.00  0.00    +0.007 C 
ATOM     28  C   LIG A   1      -8.690   2.051 124.493  0.00  0.00    -0.005 C 
ATOM     29  C   LIG A   1      -9.974   1.194 124.693  0.00  0.00    +0.014 C 
ATOM     30  C   LIG A   1      -8.497   1.437 123.042  0.00  0.00    +0.014 C 
ENDROOT
BRANCH   1  31
ATOM     31  O   LIG A   1      -8.134   4.553 124.969  0.00  0.00    -0.391 OA
ATOM     32  H   LIG A   1      -8.881   5.115 124.695  0.00  0.00    +0.210 HD
ENDBRANCH   1  31
TORSDOF 1
ENDMDL
