MODEL 1
REMARK VINA RESULT:      -6.4      0.000      0.000
REMARK  Name = NuBBE_1083
REMARK  5 active torsions:
REMARK  status: ('A' for Active; 'I' for Inactive)
REMARK    1  A    between atoms: C_1  and  C_2
REMARK    2  A    between atoms: C_9  and  C_12
REMARK    3  A    between atoms: C_13  and  C_17
REMARK    4  A    between atoms: C_17  and  C_18
REMARK    5  A    between atoms: C_17  and  C_19
REMARK                            x       y       z     vdW  Elec       q    Type
REMARK                         _______ _______ _______ _____ _____    ______ ____
ROOT
ATOM      1  C   LIG A   1      -9.732  -3.295 123.348  0.00  0.00    +0.008 C 
ATOM      2  C   LIG A   1      -8.811  -3.422 124.566  0.00  0.00    -0.007 C 
ATOM      3  C   LIG A   1      -7.678  -2.415 124.534  0.00  0.00    -0.013 C 
ATOM      4  C   LIG A   1      -7.268  -1.692 125.814  0.00  0.00    +0.007 C 
ATOM      5  C   LIG A   1      -7.927  -0.923 124.688  0.00  0.00    +0.025 C 
ATOM      6  C   LIG A   1      -7.082  -0.290 123.655  0.00  0.00    -0.073 C 
ATOM      7  C   LIG A   1      -6.354  -1.174 122.946  0.00  0.00    -0.027 C 
ATOM      8  C   LIG A   1      -6.624  -2.577 123.434  0.00  0.00    +0.035 C 
ATOM      9  C   LIG A   1      -7.080   1.188 123.481  0.00  0.00    +0.039 C 
ATOM     10  C   LIG A   1      -8.026  -1.896 127.110  0.00  0.00    -0.004 C 
ATOM     11  C   LIG A   1      -8.776  -3.238 127.092  0.00  0.00    +0.004 C 
ATOM     12  C   LIG A   1      -9.654  -3.340 125.848  0.00  0.00    +0.004 C 
ENDROOT
BRANCH  10  13
ATOM     13  C   LIG A   1      -7.102  -1.713 128.347  0.00  0.00    -0.014 C 
ATOM     14  C   LIG A   1      -7.605  -2.515 129.552  0.00  0.00    +0.007 C 
ATOM     15  C   LIG A   1      -5.633  -2.059 128.079  0.00  0.00    +0.007 C 
ENDBRANCH  10  13
TORSDOF 1
ENDMDL
MODEL 2
REMARK VINA RESULT:      -6.4      1.513      1.835
REMARK  Name = NuBBE_1083
REMARK  5 active torsions:
REMARK  status: ('A' for Active; 'I' for Inactive)
REMARK    1  A    between atoms: C_1  and  C_2
REMARK    2  A    between atoms: C_9  and  C_12
REMARK    3  A    between atoms: C_13  and  C_17
REMARK    4  A    between atoms: C_17  and  C_18
REMARK    5  A    between atoms: C_17  and  C_19
REMARK                            x       y       z     vdW  Elec       q    Type
REMARK                         _______ _______ _______ _____ _____    ______ ____
ROOT
ATOM      1  C   LIG A   1      -9.027  -2.712 123.989  0.00  0.00    +0.008 C 
ATOM      2  C   LIG A   1      -8.449  -3.359 125.252  0.00  0.00    -0.007 C 
ATOM      3  C   LIG A   1      -7.172  -2.683 125.708  0.00  0.00    -0.013 C 
ATOM      4  C   LIG A   1      -6.936  -2.424 127.193  0.00  0.00    +0.007 C 
ATOM      5  C   LIG A   1      -7.165  -1.262 126.250  0.00  0.00    +0.025 C 
ATOM      6  C   LIG A   1      -6.004  -0.616 125.605  0.00  0.00    -0.073 C 
ATOM      7  C   LIG A   1      -5.312  -1.445 124.800  0.00  0.00    -0.027 C 
ATOM      8  C   LIG A   1      -5.943  -2.816 124.801  0.00  0.00    +0.035 C 
ATOM      9  C   LIG A   1      -5.686   0.812 125.877  0.00  0.00    +0.039 C 
ATOM     10  C   LIG A   1      -7.995  -2.755 128.226  0.00  0.00    -0.004 C 
ATOM     11  C   LIG A   1      -8.958  -3.826 127.689  0.00  0.00    +0.004 C 
ATOM     12  C   LIG A   1      -9.532  -3.397 126.342  0.00  0.00    +0.004 C 
ENDROOT
BRANCH  10  13
ATOM     13  C   LIG A   1      -7.360  -3.117 129.599  0.00  0.00    -0.014 C 
ATOM     14  C   LIG A   1      -5.842  -3.298 129.487  0.00  0.00    +0.007 C 
ATOM     15  C   LIG A   1      -7.674  -2.110 130.711  0.00  0.00    +0.007 C 
ENDBRANCH  10  13
TORSDOF 1
ENDMDL
MODEL 3
REMARK VINA RESULT:      -6.3      1.929      2.672
REMARK  Name = NuBBE_1083
REMARK  5 active torsions:
REMARK  status: ('A' for Active; 'I' for Inactive)
REMARK    1  A    between atoms: C_1  and  C_2
REMARK    2  A    between atoms: C_9  and  C_12
REMARK    3  A    between atoms: C_13  and  C_17
REMARK    4  A    between atoms: C_17  and  C_18
REMARK    5  A    between atoms: C_17  and  C_19
REMARK                            x       y       z     vdW  Elec       q    Type
REMARK                         _______ _______ _______ _____ _____    ______ ____
ROOT
ATOM      1  C   LIG A   1      -9.218  -2.283 125.959  0.00  0.00    +0.008 C 
ATOM      2  C   LIG A   1      -8.163  -3.073 126.739  0.00  0.00    -0.007 C 
ATOM      3  C   LIG A   1      -6.771  -2.501 126.558  0.00  0.00    -0.013 C 
ATOM      4  C   LIG A   1      -5.830  -2.396 127.755  0.00  0.00    +0.007 C 
ATOM      5  C   LIG A   1      -6.384  -1.140 127.115  0.00  0.00    +0.025 C 
ATOM      6  C   LIG A   1      -5.625  -0.488 126.030  0.00  0.00    -0.073 C 
ATOM      7  C   LIG A   1      -5.478  -1.266 124.940  0.00  0.00    -0.027 C 
ATOM      8  C   LIG A   1      -6.145  -2.601 125.163  0.00  0.00    +0.035 C 
ATOM      9  C   LIG A   1      -5.095   0.893 126.201  0.00  0.00    +0.039 C 
ATOM     10  C   LIG A   1      -6.287  -2.776 129.150  0.00  0.00    -0.004 C 
ATOM     11  C   LIG A   1      -7.477  -3.747 129.083  0.00  0.00    +0.004 C 
ATOM     12  C   LIG A   1      -8.588  -3.166 128.213  0.00  0.00    +0.004 C 
ENDROOT
BRANCH  10  13
ATOM     13  C   LIG A   1      -5.104  -3.295 130.015  0.00  0.00    -0.014 C 
ATOM     14  C   LIG A   1      -5.452  -4.614 130.714  0.00  0.00    +0.007 C 
ATOM     15  C   LIG A   1      -3.793  -3.458 129.239  0.00  0.00    +0.007 C 
ENDBRANCH  10  13
TORSDOF 1
ENDMDL
MODEL 4
REMARK VINA RESULT:      -6.2      2.672      6.541
REMARK  Name = NuBBE_1083
REMARK  5 active torsions:
REMARK  status: ('A' for Active; 'I' for Inactive)
REMARK    1  A    between atoms: C_1  and  C_2
REMARK    2  A    between atoms: C_9  and  C_12
REMARK    3  A    between atoms: C_13  and  C_17
REMARK    4  A    between atoms: C_17  and  C_18
REMARK    5  A    between atoms: C_17  and  C_19
REMARK                            x       y       z     vdW  Elec       q    Type
REMARK                         _______ _______ _______ _____ _____    ______ ____
ROOT
ATOM      1  C   LIG A   1      -3.358  -2.366 130.022  0.00  0.00    +0.008 C 
ATOM      2  C   LIG A   1      -4.439  -2.985 129.130  0.00  0.00    -0.007 C 
ATOM      3  C   LIG A   1      -5.572  -3.587 129.938  0.00  0.00    -0.013 C 
ATOM      4  C   LIG A   1      -7.016  -3.392 129.487  0.00  0.00    +0.007 C 
ATOM      5  C   LIG A   1      -6.523  -2.725 130.753  0.00  0.00    +0.025 C 
ATOM      6  C   LIG A   1      -6.663  -3.431 132.043  0.00  0.00    -0.073 C 
ATOM      7  C   LIG A   1      -5.973  -4.586 132.096  0.00  0.00    -0.027 C 
ATOM      8  C   LIG A   1      -5.249  -4.818 130.793  0.00  0.00    +0.035 C 
ATOM      9  C   LIG A   1      -7.513  -2.865 133.126  0.00  0.00    +0.039 C 
ATOM     10  C   LIG A   1      -7.354  -2.533 128.284  0.00  0.00    -0.004 C 
ATOM     11  C   LIG A   1      -6.144  -2.418 127.344  0.00  0.00    +0.004 C 
ATOM     12  C   LIG A   1      -4.917  -1.937 128.113  0.00  0.00    +0.004 C 
ENDROOT
BRANCH  10  13
ATOM     13  C   LIG A   1      -8.650  -3.024 127.579  0.00  0.00    -0.014 C 
ATOM     14  C   LIG A   1      -8.421  -3.264 126.082  0.00  0.00    +0.007 C 
ATOM     15  C   LIG A   1      -9.261  -4.280 128.210  0.00  0.00    +0.007 C 
ENDBRANCH  10  13
TORSDOF 1
ENDMDL
MODEL 5
REMARK VINA RESULT:      -6.1      1.414      3.049
REMARK  Name = NuBBE_1083
REMARK  5 active torsions:
REMARK  status: ('A' for Active; 'I' for Inactive)
REMARK    1  A    between atoms: C_1  and  C_2
REMARK    2  A    between atoms: C_9  and  C_12
REMARK    3  A    between atoms: C_13  and  C_17
REMARK    4  A    between atoms: C_17  and  C_18
REMARK    5  A    between atoms: C_17  and  C_19
REMARK                            x       y       z     vdW  Elec       q    Type
REMARK                         _______ _______ _______ _____ _____    ______ ____
ROOT
ATOM      1  C   LIG A   1      -6.746   1.244 124.636  0.00  0.00    +0.008 C 
ATOM      2  C   LIG A   1      -7.564   0.222 125.432  0.00  0.00    -0.007 C 
ATOM      3  C   LIG A   1      -7.342  -1.196 124.941  0.00  0.00    -0.013 C 
ATOM      4  C   LIG A   1      -7.195  -2.335 125.945  0.00  0.00    +0.007 C 
ATOM      5  C   LIG A   1      -6.008  -1.904 125.110  0.00  0.00    +0.025 C 
ATOM      6  C   LIG A   1      -5.762  -2.563 123.811  0.00  0.00    -0.073 C 
ATOM      7  C   LIG A   1      -6.757  -2.380 122.923  0.00  0.00    -0.027 C 
ATOM      8  C   LIG A   1      -7.851  -1.541 123.536  0.00  0.00    +0.035 C 
ATOM      9  C   LIG A   1      -4.516  -3.346 123.585  0.00  0.00    +0.039 C 
ATOM     10  C   LIG A   1      -7.182  -2.070 127.438  0.00  0.00    -0.004 C 
ATOM     11  C   LIG A   1      -7.877  -0.736 127.756  0.00  0.00    +0.004 C 
ATOM     12  C   LIG A   1      -7.266   0.392 126.930  0.00  0.00    +0.004 C 
ENDROOT
BRANCH  10  13
ATOM     13  C   LIG A   1      -7.749  -3.278 128.236  0.00  0.00    -0.014 C 
ATOM     14  C   LIG A   1      -8.015  -2.911 129.700  0.00  0.00    +0.007 C 
ATOM     15  C   LIG A   1      -9.015  -3.886 127.623  0.00  0.00    +0.007 C 
ENDBRANCH  10  13
TORSDOF 1
ENDMDL
MODEL 6
REMARK VINA RESULT:      -6.1      1.455      4.560
REMARK  Name = NuBBE_1083
REMARK  5 active torsions:
REMARK  status: ('A' for Active; 'I' for Inactive)
REMARK    1  A    between atoms: C_1  and  C_2
REMARK    2  A    between atoms: C_9  and  C_12
REMARK    3  A    between atoms: C_13  and  C_17
REMARK    4  A    between atoms: C_17  and  C_18
REMARK    5  A    between atoms: C_17  and  C_19
REMARK                            x       y       z     vdW  Elec       q    Type
REMARK                         _______ _______ _______ _____ _____    ______ ____
ROOT
ATOM      1  C   LIG A   1      -5.834  -3.439 124.274  0.00  0.00    +0.008 C 
ATOM      2  C   LIG A   1      -6.992  -2.481 123.978  0.00  0.00    -0.007 C 
ATOM      3  C   LIG A   1      -7.961  -2.379 125.141  0.00  0.00    -0.013 C 
ATOM      4  C   LIG A   1      -8.530  -1.021 125.540  0.00  0.00    +0.007 C 
ATOM      5  C   LIG A   1      -7.565  -1.737 126.461  0.00  0.00    +0.025 C 
ATOM      6  C   LIG A   1      -8.096  -2.644 127.497  0.00  0.00    -0.073 C 
ATOM      7  C   LIG A   1      -8.768  -3.696 126.992  0.00  0.00    -0.027 C 
ATOM      8  C   LIG A   1      -8.781  -3.627 125.484  0.00  0.00    +0.035 C 
ATOM      9  C   LIG A   1      -7.879  -2.353 128.941  0.00  0.00    +0.039 C 
ATOM     10  C   LIG A   1      -8.083   0.253 124.849  0.00  0.00    -0.004 C 
ATOM     11  C   LIG A   1      -7.518  -0.058 123.454  0.00  0.00    +0.004 C 
ATOM     12  C   LIG A   1      -6.425  -1.119 123.548  0.00  0.00    +0.004 C 
ENDROOT
BRANCH  10  13
ATOM     13  C   LIG A   1      -9.210   1.324 124.843  0.00  0.00    -0.014 C 
ATOM     14  C   LIG A   1      -8.642   2.741 124.978  0.00  0.00    +0.007 C 
ATOM     15  C   LIG A   1     -10.125   1.255 123.615  0.00  0.00    +0.007 C 
ENDBRANCH  10  13
TORSDOF 1
ENDMDL
MODEL 7
REMARK VINA RESULT:      -6.0      1.655      4.847
REMARK  Name = NuBBE_1083
REMARK  5 active torsions:
REMARK  status: ('A' for Active; 'I' for Inactive)
REMARK    1  A    between atoms: C_1  and  C_2
REMARK    2  A    between atoms: C_9  and  C_12
REMARK    3  A    between atoms: C_13  and  C_17
REMARK    4  A    between atoms: C_17  and  C_18
REMARK    5  A    between atoms: C_17  and  C_19
REMARK                            x       y       z     vdW  Elec       q    Type
REMARK                         _______ _______ _______ _____ _____    ______ ____
ROOT
ATOM      1  C   LIG A   1      -5.523  -1.671 127.338  0.00  0.00    +0.008 C 
ATOM      2  C   LIG A   1      -5.394  -0.706 126.155  0.00  0.00    -0.007 C 
ATOM      3  C   LIG A   1      -6.043  -1.252 124.898  0.00  0.00    -0.013 C 
ATOM      4  C   LIG A   1      -6.864  -0.328 124.003  0.00  0.00    +0.007 C 
ATOM      5  C   LIG A   1      -7.548  -1.430 124.785  0.00  0.00    +0.025 C 
ATOM      6  C   LIG A   1      -7.727  -2.755 124.159  0.00  0.00    -0.073 C 
ATOM      7  C   LIG A   1      -6.564  -3.363 123.858  0.00  0.00    -0.027 C 
ATOM      8  C   LIG A   1      -5.402  -2.487 124.255  0.00  0.00    +0.035 C 
ATOM      9  C   LIG A   1      -9.091  -3.294 123.907  0.00  0.00    +0.039 C 
ATOM     10  C   LIG A   1      -7.118   1.116 124.388  0.00  0.00    -0.004 C 
ATOM     11  C   LIG A   1      -6.043   1.613 125.367  0.00  0.00    +0.004 C 
ATOM     12  C   LIG A   1      -5.939   0.671 126.564  0.00  0.00    +0.004 C 
ENDROOT
BRANCH  10  13
ATOM     13  C   LIG A   1      -7.286   2.019 123.132  0.00  0.00    -0.014 C 
ATOM     14  C   LIG A   1      -8.737   2.485 122.964  0.00  0.00    +0.007 C 
ATOM     15  C   LIG A   1      -6.353   3.234 123.114  0.00  0.00    +0.007 C 
ENDBRANCH  10  13
TORSDOF 1
ENDMDL
MODEL 8
REMARK VINA RESULT:      -5.9      1.669      4.888
REMARK  Name = NuBBE_1083
REMARK  5 active torsions:
REMARK  status: ('A' for Active; 'I' for Inactive)
REMARK    1  A    between atoms: C_1  and  C_2
REMARK    2  A    between atoms: C_9  and  C_12
REMARK    3  A    between atoms: C_13  and  C_17
REMARK    4  A    between atoms: C_17  and  C_18
REMARK    5  A    between atoms: C_17  and  C_19
REMARK                            x       y       z     vdW  Elec       q    Type
REMARK                         _______ _______ _______ _____ _____    ______ ____
ROOT
ATOM      1  C   LIG A   1      -7.885   1.233 128.152  0.00  0.00    +0.008 C 
ATOM      2  C   LIG A   1      -7.702   0.316 126.939  0.00  0.00    -0.007 C 
ATOM      3  C   LIG A   1      -7.063  -1.008 127.313  0.00  0.00    -0.013 C 
ATOM      4  C   LIG A   1      -7.580  -2.303 126.696  0.00  0.00    +0.007 C 
ATOM      5  C   LIG A   1      -7.787  -2.033 128.171  0.00  0.00    +0.025 C 
ATOM      6  C   LIG A   1      -6.775  -2.500 129.139  0.00  0.00    -0.073 C 
ATOM      7  C   LIG A   1      -5.566  -1.934 128.961  0.00  0.00    -0.027 C 
ATOM      8  C   LIG A   1      -5.609  -0.975 127.796  0.00  0.00    +0.035 C 
ATOM      9  C   LIG A   1      -7.128  -3.508 130.176  0.00  0.00    +0.039 C 
ATOM     10  C   LIG A   1      -8.782  -2.309 125.771  0.00  0.00    -0.004 C 
ATOM     11  C   LIG A   1      -8.983  -0.923 125.138  0.00  0.00    +0.004 C 
ATOM     12  C   LIG A   1      -9.050   0.151 126.221  0.00  0.00    +0.004 C 
ENDROOT
BRANCH  10  13
ATOM     13  C   LIG A   1      -8.697  -3.464 124.733  0.00  0.00    -0.014 C 
ATOM     14  C   LIG A   1      -9.500  -3.145 123.467  0.00  0.00    +0.007 C 
ATOM     15  C   LIG A   1      -7.264  -3.847 124.348  0.00  0.00    +0.007 C 
ENDBRANCH  10  13
TORSDOF 1
ENDMDL
MODEL 9
REMARK VINA RESULT:      -5.9      4.966      7.415
REMARK  Name = NuBBE_1083
REMARK  5 active torsions:
REMARK  status: ('A' for Active; 'I' for Inactive)
REMARK    1  A    between atoms: C_1  and  C_2
REMARK    2  A    between atoms: C_9  and  C_12
REMARK    3  A    between atoms: C_13  and  C_17
REMARK    4  A    between atoms: C_17  and  C_18
REMARK    5  A    between atoms: C_17  and  C_19
REMARK                            x       y       z     vdW  Elec       q    Type
REMARK                         _______ _______ _______ _____ _____    ______ ____
ROOT
ATOM      1  C   LIG A   1      -8.807   2.350 125.433  0.00  0.00    +0.008 C 
ATOM      2  C   LIG A   1      -8.279   3.212 124.282  0.00  0.00    -0.007 C 
ATOM      3  C   LIG A   1      -6.920   3.810 124.591  0.00  0.00    -0.013 C 
ATOM      4  C   LIG A   1      -5.842   3.848 123.513  0.00  0.00    +0.007 C 
ATOM      5  C   LIG A   1      -5.674   2.948 124.719  0.00  0.00    +0.025 C 
ATOM      6  C   LIG A   1      -4.977   3.465 125.914  0.00  0.00    -0.073 C 
ATOM      7  C   LIG A   1      -5.601   4.514 126.483  0.00  0.00    -0.027 C 
ATOM      8  C   LIG A   1      -6.851   4.856 125.710  0.00  0.00    +0.035 C 
ATOM      9  C   LIG A   1      -3.706   2.843 126.376  0.00  0.00    +0.039 C 
ATOM     10  C   LIG A   1      -6.070   3.221 122.151  0.00  0.00    -0.004 C 
ATOM     11  C   LIG A   1      -7.573   3.112 121.851  0.00  0.00    +0.004 C 
ATOM     12  C   LIG A   1      -8.291   2.387 122.985  0.00  0.00    +0.004 C 
ENDROOT
BRANCH  10  13
ATOM     13  C   LIG A   1      -5.261   3.954 121.044  0.00  0.00    -0.014 C 
ATOM     14  C   LIG A   1      -6.180   4.516 119.953  0.00  0.00    +0.007 C 
ATOM     15  C   LIG A   1      -4.354   5.069 121.574  0.00  0.00    +0.007 C 
ENDBRANCH  10  13
TORSDOF 1
ENDMDL
