MODEL 1
REMARK VINA RESULT:      -8.6      0.000      0.000
REMARK  Name = NuBBE_1250
REMARK  11 active torsions:
REMARK  status: ('A' for Active; 'I' for Inactive)
REMARK    1  A    between atoms: C_5  and  O_6
REMARK    2  A    between atoms: C_7  and  O_40
REMARK    3  A    between atoms: C_14  and  O_15
REMARK    4  A    between atoms: C_16  and  O_17
REMARK    5  A    between atoms: O_17  and  C_18
REMARK    6  A    between atoms: C_21  and  C_35
REMARK    7  A    between atoms: C_23  and  O_34
REMARK    8  A    between atoms: C_25  and  O_33
REMARK    9  A    between atoms: C_27  and  O_29
REMARK   10  A    between atoms: O_29  and  C_30
REMARK   11  A    between atoms: C_30  and  C_31
REMARK                            x       y       z     vdW  Elec       q    Type
REMARK                         _______ _______ _______ _____ _____    ______ ____
ROOT
ATOM      1  O   LIG A   1      -9.206   2.390 122.328  0.00  0.00    -0.244 OA
ATOM      2  C   LIG A   1      -8.886   2.187 123.492  0.00  0.00    +0.345 A 
ATOM      3  C   LIG A   1      -8.796   0.802 124.034  0.00  0.00    +0.074 A 
ATOM      4  C   LIG A   1      -9.014  -0.316 123.204  0.00  0.00    +0.065 A 
ATOM      5  C   LIG A   1      -8.915  -1.599 123.745  0.00  0.00    +0.163 A 
ATOM      6  C   LIG A   1      -8.621  -1.776 125.095  0.00  0.00    +0.202 A 
ATOM      7  C   LIG A   1      -8.411  -0.666 125.898  0.00  0.00    +0.185 A 
ATOM      8  O   LIG A   1      -8.083  -0.868 127.255  0.00  0.00    -0.418 OA
ATOM      9  C   LIG A   1      -8.481   0.623 125.380  0.00  0.00    +0.047 A 
ATOM     10  C   LIG A   1      -8.217   1.743 126.241  0.00  0.00    +0.047 A 
ATOM     11  C   LIG A   1      -8.260   3.036 125.747  0.00  0.00    +0.185 A 
ATOM     12  O   LIG A   1      -8.585   3.237 124.377  0.00  0.00    -0.418 OA
ATOM     13  C   LIG A   1      -7.994   4.139 126.578  0.00  0.00    +0.203 A 
ATOM     14  C   LIG A   1      -7.737   3.956 127.955  0.00  0.00    +0.170 A 
ATOM     15  C   LIG A   1      -7.690   2.647 128.441  0.00  0.00    +0.065 A 
ATOM     16  C   LIG A   1      -7.901   1.551 127.583  0.00  0.00    +0.074 A 
ATOM     17  C   LIG A   1      -7.750   0.173 128.111  0.00  0.00    +0.345 A 
ATOM     18  O   LIG A   1      -7.338  -0.026 129.249  0.00  0.00    -0.244 OA
ENDROOT
BRANCH   5  19
ATOM     19  O   LIG A   1      -9.081  -2.727 122.991  0.00  0.00    -0.503 OA
ATOM     20  H   LIG A   1      -8.741  -2.566 122.094  0.00  0.00    +0.292 HD
ENDBRANCH   5  19
BRANCH  13  21
ATOM     21  O   LIG A   1      -7.995   5.404 126.053  0.00  0.00    -0.501 OA
ATOM     22  H   LIG A   1      -7.779   6.031 126.767  0.00  0.00    +0.292 HD
ENDBRANCH  13  21
BRANCH   6  23
ATOM     23  O   LIG A   1      -8.518  -3.034 125.615  0.00  0.00    -0.501 OA
ATOM     24  H   LIG A   1      -9.047  -3.609 125.030  0.00  0.00    +0.292 HD
ENDBRANCH   6  23
BRANCH  14  25
ATOM     25  O   LIG A   1      -7.491   5.070 128.726  0.00  0.00    -0.456 OA
BRANCH  25  26
ATOM     26  C   LIG A   1      -8.421   5.424 129.791  0.00  0.00    +0.352 C 
ATOM     27  O   LIG A   1      -8.495   4.360 130.746  0.00  0.00    -0.333 OA
ATOM     28  C   LIG A   1      -9.494   4.515 131.765  0.00  0.00    +0.151 C 
ATOM     29  C   LIG A   1     -10.901   4.708 131.166  0.00  0.00    +0.175 C 
ATOM     30  C   LIG A   1     -10.929   5.877 130.182  0.00  0.00    +0.192 C 
ATOM     31  C   LIG A   1      -9.802   5.735 129.141  0.00  0.00    +0.275 C 
ATOM     32  C   LIG A   1      -9.096   5.587 132.780  0.00  0.00    +0.040 C 
BRANCH  30  33
ATOM     33  O   LIG A   1     -10.828   7.115 130.899  0.00  0.00    -0.385 OA
ATOM     34  H   LIG A   1     -10.698   6.883 131.836  0.00  0.00    +0.210 HD
ENDBRANCH  30  33
BRANCH  29  35
ATOM     35  O   LIG A   1     -11.303   3.526 130.461  0.00  0.00    -0.387 OA
ATOM     36  H   LIG A   1     -10.881   3.538 129.583  0.00  0.00    +0.210 HD
ENDBRANCH  29  35
BRANCH  31  37
ATOM     37  O   LIG A   1      -9.641   6.973 128.401  0.00  0.00    -0.453 OA
BRANCH  37  38
ATOM     38  C   LIG A   1     -10.521   7.205 127.384  0.00  0.00    +0.304 C 
ATOM     39  C   LIG A   1     -11.333   8.429 127.726  0.00  0.00    +0.136 C 
ATOM     40  O   LIG A   1     -10.623   6.554 126.366  0.00  0.00    -0.251 OA
ENDBRANCH  37  38
ENDBRANCH  31  37
ENDBRANCH  25  26
ENDBRANCH  14  25
TORSDOF 9
ENDMDL
MODEL 2
REMARK VINA RESULT:      -8.2      3.971      6.861
REMARK  Name = NuBBE_1250
REMARK  11 active torsions:
REMARK  status: ('A' for Active; 'I' for Inactive)
REMARK    1  A    between atoms: C_5  and  O_6
REMARK    2  A    between atoms: C_7  and  O_40
REMARK    3  A    between atoms: C_14  and  O_15
REMARK    4  A    between atoms: C_16  and  O_17
REMARK    5  A    between atoms: O_17  and  C_18
REMARK    6  A    between atoms: C_21  and  C_35
REMARK    7  A    between atoms: C_23  and  O_34
REMARK    8  A    between atoms: C_25  and  O_33
REMARK    9  A    between atoms: C_27  and  O_29
REMARK   10  A    between atoms: O_29  and  C_30
REMARK   11  A    between atoms: C_30  and  C_31
REMARK                            x       y       z     vdW  Elec       q    Type
REMARK                         _______ _______ _______ _____ _____    ______ ____
ROOT
ATOM      1  O   LIG A   1      -9.390   3.269 120.034  0.00  0.00    -0.244 OA
ATOM      2  C   LIG A   1      -8.747   3.277 121.076  0.00  0.00    +0.345 A 
ATOM      3  C   LIG A   1      -7.378   3.861 121.129  0.00  0.00    +0.074 A 
ATOM      4  C   LIG A   1      -6.809   4.478 119.996  0.00  0.00    +0.065 A 
ATOM      5  C   LIG A   1      -5.525   5.020 120.085  0.00  0.00    +0.163 A 
ATOM      6  C   LIG A   1      -4.804   4.938 121.274  0.00  0.00    +0.202 A 
ATOM      7  C   LIG A   1      -5.377   4.327 122.378  0.00  0.00    +0.185 A 
ATOM      8  O   LIG A   1      -4.644   4.284 123.582  0.00  0.00    -0.418 OA
ATOM      9  C   LIG A   1      -6.664   3.799 122.325  0.00  0.00    +0.047 A 
ATOM     10  C   LIG A   1      -7.232   3.210 123.505  0.00  0.00    +0.047 A 
ATOM     11  C   LIG A   1      -8.518   2.694 123.485  0.00  0.00    +0.185 A 
ATOM     12  O   LIG A   1      -9.259   2.745 122.273  0.00  0.00    -0.418 OA
ATOM     13  C   LIG A   1      -9.089   2.124 124.637  0.00  0.00    +0.203 A 
ATOM     14  C   LIG A   1      -8.338   2.008 125.828  0.00  0.00    +0.170 A 
ATOM     15  C   LIG A   1      -7.045   2.536 125.839  0.00  0.00    +0.065 A 
ATOM     16  C   LIG A   1      -6.510   3.156 124.694  0.00  0.00    +0.074 A 
ATOM     17  C   LIG A   1      -5.172   3.791 124.768  0.00  0.00    +0.345 A 
ATOM     18  O   LIG A   1      -4.573   3.881 125.835  0.00  0.00    -0.244 OA
ENDROOT
BRANCH   5  19
ATOM     19  O   LIG A   1      -4.927   5.661 119.037  0.00  0.00    -0.503 OA
ATOM     20  H   LIG A   1      -5.523   6.351 118.700  0.00  0.00    +0.292 HD
ENDBRANCH   5  19
BRANCH  13  21
ATOM     21  O   LIG A   1     -10.379   1.667 124.604  0.00  0.00    -0.501 OA
ATOM     22  H   LIG A   1     -10.359   0.712 124.409  0.00  0.00    +0.292 HD
ENDBRANCH  13  21
BRANCH   6  23
ATOM     23  O   LIG A   1      -3.553   5.477 121.356  0.00  0.00    -0.501 OA
ATOM     24  H   LIG A   1      -3.613   6.358 120.938  0.00  0.00    +0.292 HD
ENDBRANCH   6  23
BRANCH  14  25
ATOM     25  O   LIG A   1      -8.941   1.434 126.925  0.00  0.00    -0.456 OA
BRANCH  25  26
ATOM     26  C   LIG A   1      -8.350   0.245 127.528  0.00  0.00    +0.352 C 
ATOM     27  O   LIG A   1      -7.274   0.622 128.393  0.00  0.00    -0.333 OA
ATOM     28  C   LIG A   1      -6.505  -0.464 128.929  0.00  0.00    +0.151 C 
ATOM     29  C   LIG A   1      -5.923  -1.361 127.818  0.00  0.00    +0.175 C 
ATOM     30  C   LIG A   1      -7.022  -1.868 126.884  0.00  0.00    +0.192 C 
ATOM     31  C   LIG A   1      -7.885  -0.698 126.378  0.00  0.00    +0.275 C 
ATOM     32  C   LIG A   1      -7.286  -1.227 130.001  0.00  0.00    +0.040 C 
BRANCH  30  33
ATOM     33  O   LIG A   1      -7.816  -2.852 127.561  0.00  0.00    -0.385 OA
ATOM     34  H   LIG A   1      -7.636  -2.746 128.513  0.00  0.00    +0.210 HD
ENDBRANCH  30  33
BRANCH  29  35
ATOM     35  O   LIG A   1      -4.980  -0.621 127.031  0.00  0.00    -0.387 OA
ATOM     36  H   LIG A   1      -4.364  -1.253 126.622  0.00  0.00    +0.210 HD
ENDBRANCH  29  35
BRANCH  31  37
ATOM     37  O   LIG A   1      -9.089  -1.198 125.742  0.00  0.00    -0.453 OA
BRANCH  37  38
ATOM     38  C   LIG A   1      -8.984  -1.590 124.438  0.00  0.00    +0.304 C 
ATOM     39  C   LIG A   1      -9.343  -3.052 124.349  0.00  0.00    +0.136 C 
ATOM     40  O   LIG A   1      -8.675  -0.883 123.503  0.00  0.00    -0.251 OA
ENDBRANCH  37  38
ENDBRANCH  31  37
ENDBRANCH  25  26
ENDBRANCH  14  25
TORSDOF 9
ENDMDL
MODEL 3
REMARK VINA RESULT:      -8.0      2.588      4.247
REMARK  Name = NuBBE_1250
REMARK  11 active torsions:
REMARK  status: ('A' for Active; 'I' for Inactive)
REMARK    1  A    between atoms: C_5  and  O_6
REMARK    2  A    between atoms: C_7  and  O_40
REMARK    3  A    between atoms: C_14  and  O_15
REMARK    4  A    between atoms: C_16  and  O_17
REMARK    5  A    between atoms: O_17  and  C_18
REMARK    6  A    between atoms: C_21  and  C_35
REMARK    7  A    between atoms: C_23  and  O_34
REMARK    8  A    between atoms: C_25  and  O_33
REMARK    9  A    between atoms: C_27  and  O_29
REMARK   10  A    between atoms: O_29  and  C_30
REMARK   11  A    between atoms: C_30  and  C_31
REMARK                            x       y       z     vdW  Elec       q    Type
REMARK                         _______ _______ _______ _____ _____    ______ ____
ROOT
ATOM      1  O   LIG A   1      -9.996   1.743 123.646  0.00  0.00    -0.244 OA
ATOM      2  C   LIG A   1      -9.104   2.216 124.340  0.00  0.00    +0.345 A 
ATOM      3  C   LIG A   1      -7.924   2.884 123.724  0.00  0.00    +0.074 A 
ATOM      4  C   LIG A   1      -7.831   3.047 122.327  0.00  0.00    +0.065 A 
ATOM      5  C   LIG A   1      -6.712   3.684 121.787  0.00  0.00    +0.163 A 
ATOM      6  C   LIG A   1      -5.689   4.139 122.614  0.00  0.00    +0.202 A 
ATOM      7  C   LIG A   1      -5.795   3.970 123.986  0.00  0.00    +0.185 A 
ATOM      8  O   LIG A   1      -4.763   4.467 124.809  0.00  0.00    -0.418 OA
ATOM      9  C   LIG A   1      -6.909   3.359 124.554  0.00  0.00    +0.047 A 
ATOM     10  C   LIG A   1      -6.994   3.241 125.983  0.00  0.00    +0.047 A 
ATOM     11  C   LIG A   1      -8.102   2.655 126.575  0.00  0.00    +0.185 A 
ATOM     12  O   LIG A   1      -9.144   2.161 125.745  0.00  0.00    -0.418 OA
ATOM     13  C   LIG A   1      -8.200   2.542 127.974  0.00  0.00    +0.203 A 
ATOM     14  C   LIG A   1      -7.141   2.969 128.806  0.00  0.00    +0.170 A 
ATOM     15  C   LIG A   1      -6.032   3.563 128.198  0.00  0.00    +0.065 A 
ATOM     16  C   LIG A   1      -5.975   3.722 126.800  0.00  0.00    +0.074 A 
ATOM     17  C   LIG A   1      -4.829   4.442 126.195  0.00  0.00    +0.345 A 
ATOM     18  O   LIG A   1      -3.989   4.996 126.898  0.00  0.00    -0.244 OA
ENDROOT
BRANCH   5  19
ATOM     19  O   LIG A   1      -6.572   3.905 120.445  0.00  0.00    -0.503 OA
ATOM     20  H   LIG A   1      -7.442   3.831 120.015  0.00  0.00    +0.292 HD
ENDBRANCH   5  19
BRANCH  13  21
ATOM     21  O   LIG A   1      -9.327   2.005 128.536  0.00  0.00    -0.501 OA
ATOM     22  H   LIG A   1      -9.074   1.573 129.373  0.00  0.00    +0.292 HD
ENDBRANCH  13  21
BRANCH   6  23
ATOM     23  O   LIG A   1      -4.602   4.768 122.079  0.00  0.00    -0.501 OA
ATOM     24  H   LIG A   1      -4.882   5.083 121.198  0.00  0.00    +0.292 HD
ENDBRANCH   6  23
BRANCH  14  25
ATOM     25  O   LIG A   1      -7.285   2.828 130.168  0.00  0.00    -0.456 OA
BRANCH  25  26
ATOM     26  C   LIG A   1      -7.277   4.014 131.017  0.00  0.00    +0.352 C 
ATOM     27  O   LIG A   1      -6.397   3.811 132.127  0.00  0.00    -0.333 OA
ATOM     28  C   LIG A   1      -6.416   4.843 133.124  0.00  0.00    +0.151 C 
ATOM     29  C   LIG A   1      -7.833   5.078 133.683  0.00  0.00    +0.175 C 
ATOM     30  C   LIG A   1      -8.829   5.373 132.562  0.00  0.00    +0.192 C 
ATOM     31  C   LIG A   1      -8.742   4.297 131.463  0.00  0.00    +0.275 C 
ATOM     32  C   LIG A   1      -5.723   6.113 132.628  0.00  0.00    +0.040 C 
BRANCH  30  33
ATOM     33  O   LIG A   1      -8.586   6.684 132.033  0.00  0.00    -0.385 OA
ATOM     34  H   LIG A   1      -8.082   7.168 132.713  0.00  0.00    +0.210 HD
ENDBRANCH  30  33
BRANCH  29  35
ATOM     35  O   LIG A   1      -8.287   3.910 134.381  0.00  0.00    -0.387 OA
ATOM     36  H   LIG A   1      -9.173   3.683 134.049  0.00  0.00    +0.210 HD
ENDBRANCH  29  35
BRANCH  31  37
ATOM     37  O   LIG A   1      -9.459   4.729 130.278  0.00  0.00    -0.453 OA
BRANCH  37  38
ATOM     38  C   LIG A   1     -10.806   4.509 130.255  0.00  0.00    +0.304 C 
ATOM     39  C   LIG A   1     -11.507   5.844 130.213  0.00  0.00    +0.136 C 
ATOM     40  O   LIG A   1     -11.352   3.427 130.248  0.00  0.00    -0.251 OA
ENDBRANCH  37  38
ENDBRANCH  31  37
ENDBRANCH  25  26
ENDBRANCH  14  25
TORSDOF 9
ENDMDL
MODEL 4
REMARK VINA RESULT:      -7.9      1.874      7.861
REMARK  Name = NuBBE_1250
REMARK  11 active torsions:
REMARK  status: ('A' for Active; 'I' for Inactive)
REMARK    1  A    between atoms: C_5  and  O_6
REMARK    2  A    between atoms: C_7  and  O_40
REMARK    3  A    between atoms: C_14  and  O_15
REMARK    4  A    between atoms: C_16  and  O_17
REMARK    5  A    between atoms: O_17  and  C_18
REMARK    6  A    between atoms: C_21  and  C_35
REMARK    7  A    between atoms: C_23  and  O_34
REMARK    8  A    between atoms: C_25  and  O_33
REMARK    9  A    between atoms: C_27  and  O_29
REMARK   10  A    between atoms: O_29  and  C_30
REMARK   11  A    between atoms: C_30  and  C_31
REMARK                            x       y       z     vdW  Elec       q    Type
REMARK                         _______ _______ _______ _____ _____    ______ ____
ROOT
ATOM      1  O   LIG A   1      -9.508   7.064 129.019  0.00  0.00    -0.244 OA
ATOM      2  C   LIG A   1      -9.128   5.914 129.206  0.00  0.00    +0.345 A 
ATOM      3  C   LIG A   1      -8.874   5.403 130.581  0.00  0.00    +0.074 A 
ATOM      4  C   LIG A   1      -9.125   6.207 131.711  0.00  0.00    +0.065 A 
ATOM      5  C   LIG A   1      -8.881   5.691 132.985  0.00  0.00    +0.163 A 
ATOM      6  C   LIG A   1      -8.379   4.402 133.142  0.00  0.00    +0.202 A 
ATOM      7  C   LIG A   1      -8.136   3.624 132.020  0.00  0.00    +0.185 A 
ATOM      8  O   LIG A   1      -7.658   2.310 132.202  0.00  0.00    -0.418 OA
ATOM      9  C   LIG A   1      -8.391   4.105 130.740  0.00  0.00    +0.047 A 
ATOM     10  C   LIG A   1      -8.162   3.249 129.609  0.00  0.00    +0.047 A 
ATOM     11  C   LIG A   1      -8.427   3.695 128.324  0.00  0.00    +0.185 A 
ATOM     12  O   LIG A   1      -8.915   5.018 128.144  0.00  0.00    -0.418 OA
ATOM     13  C   LIG A   1      -8.215   2.863 127.210  0.00  0.00    +0.203 A 
ATOM     14  C   LIG A   1      -7.668   1.571 127.372  0.00  0.00    +0.170 A 
ATOM     15  C   LIG A   1      -7.410   1.130 128.672  0.00  0.00    +0.065 A 
ATOM     16  C   LIG A   1      -7.682   1.954 129.781  0.00  0.00    +0.074 A 
ATOM     17  C   LIG A   1      -7.487   1.420 131.150  0.00  0.00    +0.345 A 
ATOM     18  O   LIG A   1      -7.200   0.241 131.334  0.00  0.00    -0.244 OA
ENDROOT
BRANCH   5  19
ATOM     19  O   LIG A   1      -9.133   6.404 134.125  0.00  0.00    -0.503 OA
ATOM     20  H   LIG A   1     -10.078   6.331 134.346  0.00  0.00    +0.292 HD
ENDBRANCH   5  19
BRANCH  13  21
ATOM     21  O   LIG A   1      -8.532   3.311 125.955  0.00  0.00    -0.501 OA
ATOM     22  H   LIG A   1      -9.312   2.816 125.643  0.00  0.00    +0.292 HD
ENDBRANCH  13  21
BRANCH   6  23
ATOM     23  O   LIG A   1      -8.151   3.902 134.391  0.00  0.00    -0.501 OA
ATOM     24  H   LIG A   1      -7.878   2.973 134.262  0.00  0.00    +0.292 HD
ENDBRANCH   6  23
BRANCH  14  25
ATOM     25  O   LIG A   1      -7.472   0.801 126.247  0.00  0.00    -0.456 OA
BRANCH  25  26
ATOM     26  C   LIG A   1      -7.997  -0.560 126.210  0.00  0.00    +0.352 C 
ATOM     27  O   LIG A   1      -6.992  -1.480 126.648  0.00  0.00    -0.333 OA
ATOM     28  C   LIG A   1      -7.328  -2.869 126.512  0.00  0.00    +0.151 C 
ATOM     29  C   LIG A   1      -7.697  -3.231 125.059  0.00  0.00    +0.175 C 
ATOM     30  C   LIG A   1      -8.819  -2.336 124.533  0.00  0.00    +0.192 C 
ATOM     31  C   LIG A   1      -8.477  -0.851 124.757  0.00  0.00    +0.275 C 
ATOM     32  C   LIG A   1      -8.371  -3.297 127.545  0.00  0.00    +0.040 C 
BRANCH  30  33
ATOM     33  O   LIG A   1     -10.057  -2.691 125.164  0.00  0.00    -0.385 OA
ATOM     34  H   LIG A   1      -9.825  -3.202 125.961  0.00  0.00    +0.210 HD
ENDBRANCH  30  33
BRANCH  29  35
ATOM     35  O   LIG A   1      -6.558  -3.061 124.205  0.00  0.00    -0.387 OA
ATOM     36  H   LIG A   1      -5.976  -2.391 124.604  0.00  0.00    +0.210 HD
ENDBRANCH  29  35
BRANCH  31  37
ATOM     37  O   LIG A   1      -9.649  -0.025 124.536  0.00  0.00    -0.453 OA
BRANCH  37  38
ATOM     38  C   LIG A   1      -9.791   0.528 123.296  0.00  0.00    +0.304 C 
ATOM     39  C   LIG A   1      -8.624   1.451 123.049  0.00  0.00    +0.136 C 
ATOM     40  O   LIG A   1     -10.689   0.303 122.513  0.00  0.00    -0.251 OA
ENDBRANCH  37  38
ENDBRANCH  31  37
ENDBRANCH  25  26
ENDBRANCH  14  25
TORSDOF 9
ENDMDL
MODEL 5
REMARK VINA RESULT:      -7.8      2.577      4.913
REMARK  Name = NuBBE_1250
REMARK  11 active torsions:
REMARK  status: ('A' for Active; 'I' for Inactive)
REMARK    1  A    between atoms: C_5  and  O_6
REMARK    2  A    between atoms: C_7  and  O_40
REMARK    3  A    between atoms: C_14  and  O_15
REMARK    4  A    between atoms: C_16  and  O_17
REMARK    5  A    between atoms: O_17  and  C_18
REMARK    6  A    between atoms: C_21  and  C_35
REMARK    7  A    between atoms: C_23  and  O_34
REMARK    8  A    between atoms: C_25  and  O_33
REMARK    9  A    between atoms: C_27  and  O_29
REMARK   10  A    between atoms: O_29  and  C_30
REMARK   11  A    between atoms: C_30  and  C_31
REMARK                            x       y       z     vdW  Elec       q    Type
REMARK                         _______ _______ _______ _____ _____    ______ ____
ROOT
ATOM      1  O   LIG A   1      -7.887  -3.586 128.338  0.00  0.00    -0.244 OA
ATOM      2  C   LIG A   1      -7.952  -2.420 127.968  0.00  0.00    +0.345 A 
ATOM      3  C   LIG A   1      -8.466  -2.071 126.615  0.00  0.00    +0.074 A 
ATOM      4  C   LIG A   1      -8.952  -3.068 125.745  0.00  0.00    +0.065 A 
ATOM      5  C   LIG A   1      -9.432  -2.702 124.486  0.00  0.00    +0.163 A 
ATOM      6  C   LIG A   1      -9.417  -1.370 124.083  0.00  0.00    +0.202 A 
ATOM      7  C   LIG A   1      -8.935  -0.401 124.950  0.00  0.00    +0.185 A 
ATOM      8  O   LIG A   1      -8.958   0.947 124.536  0.00  0.00    -0.418 OA
ATOM      9  C   LIG A   1      -8.471  -0.734 126.219  0.00  0.00    +0.047 A 
ATOM     10  C   LIG A   1      -8.017   0.307 127.098  0.00  0.00    +0.047 A 
ATOM     11  C   LIG A   1      -7.570   0.005 128.374  0.00  0.00    +0.185 A 
ATOM     12  O   LIG A   1      -7.554  -1.353 128.793  0.00  0.00    -0.418 OA
ATOM     13  C   LIG A   1      -7.132   1.018 129.247  0.00  0.00    +0.203 A 
ATOM     14  C   LIG A   1      -7.081   2.363 128.819  0.00  0.00    +0.170 A 
ATOM     15  C   LIG A   1      -7.540   2.656 127.532  0.00  0.00    +0.065 A 
ATOM     16  C   LIG A   1      -8.030   1.638 126.692  0.00  0.00    +0.074 A 
ATOM     17  C   LIG A   1      -8.598   1.997 125.370  0.00  0.00    +0.345 A 
ATOM     18  O   LIG A   1      -8.749   3.170 125.044  0.00  0.00    -0.244 OA
ENDROOT
BRANCH   5  19
ATOM     19  O   LIG A   1      -9.948  -3.613 123.606  0.00  0.00    -0.503 OA
ATOM     20  H   LIG A   1      -9.703  -3.357 122.700  0.00  0.00    +0.292 HD
ENDBRANCH   5  19
BRANCH  13  21
ATOM     21  O   LIG A   1      -6.741   0.698 130.520  0.00  0.00    -0.501 OA
ATOM     22  H   LIG A   1      -6.958   1.448 131.103  0.00  0.00    +0.292 HD
ENDBRANCH  13  21
BRANCH   6  23
ATOM     23  O   LIG A   1      -9.895  -1.019 122.854  0.00  0.00    -0.501 OA
ATOM     24  H   LIG A   1     -10.604  -0.368 123.019  0.00  0.00    +0.292 HD
ENDBRANCH   6  23
BRANCH  14  25
ATOM     25  O   LIG A   1      -6.636   3.314 129.710  0.00  0.00    -0.456 OA
BRANCH  25  26
ATOM     26  C   LIG A   1      -5.560   4.217 129.317  0.00  0.00    +0.352 C 
ATOM     27  O   LIG A   1      -4.322   3.502 129.262  0.00  0.00    -0.333 OA
ATOM     28  C   LIG A   1      -3.156   4.308 129.038  0.00  0.00    +0.151 C 
ATOM     29  C   LIG A   1      -3.011   5.417 130.100  0.00  0.00    +0.175 C 
ATOM     30  C   LIG A   1      -4.272   6.278 130.177  0.00  0.00    +0.192 C 
ATOM     31  C   LIG A   1      -5.522   5.393 130.339  0.00  0.00    +0.275 C 
ATOM     32  C   LIG A   1      -3.091   4.813 127.596  0.00  0.00    +0.040 C 
BRANCH  30  33
ATOM     33  O   LIG A   1      -4.363   7.107 129.010  0.00  0.00    -0.385 OA
ATOM     34  H   LIG A   1      -4.411   6.505 128.245  0.00  0.00    +0.210 HD
ENDBRANCH  30  33
BRANCH  29  35
ATOM     35  O   LIG A   1      -2.792   4.836 131.392  0.00  0.00    -0.387 OA
ATOM     36  H   LIG A   1      -2.017   4.250 131.334  0.00  0.00    +0.210 HD
ENDBRANCH  29  35
BRANCH  31  37
ATOM     37  O   LIG A   1      -6.724   6.173 130.115  0.00  0.00    -0.453 OA
BRANCH  37  38
ATOM     38  C   LIG A   1      -7.502   6.438 131.205  0.00  0.00    +0.304 C 
ATOM     39  C   LIG A   1      -8.809   7.021 130.729  0.00  0.00    +0.136 C 
ATOM     40  O   LIG A   1      -7.207   6.224 132.361  0.00  0.00    -0.251 OA
ENDBRANCH  37  38
ENDBRANCH  31  37
ENDBRANCH  25  26
ENDBRANCH  14  25
TORSDOF 9
ENDMDL
MODEL 6
REMARK VINA RESULT:      -7.8      1.988      8.194
REMARK  Name = NuBBE_1250
REMARK  11 active torsions:
REMARK  status: ('A' for Active; 'I' for Inactive)
REMARK    1  A    between atoms: C_5  and  O_6
REMARK    2  A    between atoms: C_7  and  O_40
REMARK    3  A    between atoms: C_14  and  O_15
REMARK    4  A    between atoms: C_16  and  O_17
REMARK    5  A    between atoms: O_17  and  C_18
REMARK    6  A    between atoms: C_21  and  C_35
REMARK    7  A    between atoms: C_23  and  O_34
REMARK    8  A    between atoms: C_25  and  O_33
REMARK    9  A    between atoms: C_27  and  O_29
REMARK   10  A    between atoms: O_29  and  C_30
REMARK   11  A    between atoms: C_30  and  C_31
REMARK                            x       y       z     vdW  Elec       q    Type
REMARK                         _______ _______ _______ _____ _____    ______ ____
ROOT
ATOM      1  O   LIG A   1      -8.617  -0.539 132.589  0.00  0.00    -0.244 OA
ATOM      2  C   LIG A   1      -8.452   0.221 131.643  0.00  0.00    +0.345 A 
ATOM      3  C   LIG A   1      -8.741   1.676 131.767  0.00  0.00    +0.074 A 
ATOM      4  C   LIG A   1      -9.151   2.231 132.996  0.00  0.00    +0.065 A 
ATOM      5  C   LIG A   1      -9.407   3.602 133.076  0.00  0.00    +0.163 A 
ATOM      6  C   LIG A   1      -9.276   4.412 131.952  0.00  0.00    +0.202 A 
ATOM      7  C   LIG A   1      -8.874   3.851 130.750  0.00  0.00    +0.185 A 
ATOM      8  O   LIG A   1      -8.716   4.694 129.630  0.00  0.00    -0.418 OA
ATOM      9  C   LIG A   1      -8.591   2.493 130.647  0.00  0.00    +0.047 A 
ATOM     10  C   LIG A   1      -8.138   1.961 129.391  0.00  0.00    +0.047 A 
ATOM     11  C   LIG A   1      -7.830   0.616 129.265  0.00  0.00    +0.185 A 
ATOM     12  O   LIG A   1      -7.983  -0.231 130.396  0.00  0.00    -0.418 OA
ATOM     13  C   LIG A   1      -7.378   0.087 128.043  0.00  0.00    +0.203 A 
ATOM     14  C   LIG A   1      -7.286   0.906 126.896  0.00  0.00    +0.170 A 
ATOM     15  C   LIG A   1      -7.594   2.262 127.035  0.00  0.00    +0.065 A 
ATOM     16  C   LIG A   1      -7.989   2.787 128.280  0.00  0.00    +0.074 A 
ATOM     17  C   LIG A   1      -8.216   4.246 128.415  0.00  0.00    +0.345 A 
ATOM     18  O   LIG A   1      -7.959   5.014 127.494  0.00  0.00    -0.244 OA
ENDROOT
BRANCH   5  19
ATOM     19  O   LIG A   1      -9.775   4.211 134.243  0.00  0.00    -0.503 OA
ATOM     20  H   LIG A   1      -9.303   3.795 134.985  0.00  0.00    +0.292 HD
ENDBRANCH   5  19
BRANCH  13  21
ATOM     21  O   LIG A   1      -7.032  -1.235 127.960  0.00  0.00    -0.501 OA
ATOM     22  H   LIG A   1      -7.793  -1.727 127.600  0.00  0.00    +0.292 HD
ENDBRANCH  13  21
BRANCH   6  23
ATOM     23  O   LIG A   1      -9.520   5.752 132.040  0.00  0.00    -0.501 OA
ATOM     24  H   LIG A   1      -8.779   6.126 132.554  0.00  0.00    +0.292 HD
ENDBRANCH   6  23
BRANCH  14  25
ATOM     25  O   LIG A   1      -6.846   0.336 125.722  0.00  0.00    -0.456 OA
BRANCH  25  26
ATOM     26  C   LIG A   1      -7.752  -0.506 124.950  0.00  0.00    +0.352 C 
ATOM     27  O   LIG A   1      -7.247  -1.845 124.899  0.00  0.00    -0.333 OA
ATOM     28  C   LIG A   1      -7.964  -2.741 124.039  0.00  0.00    +0.151 C 
ATOM     29  C   LIG A   1      -8.041  -2.212 122.592  0.00  0.00    +0.175 C 
ATOM     30  C   LIG A   1      -8.637  -0.806 122.548  0.00  0.00    +0.192 C 
ATOM     31  C   LIG A   1      -7.906   0.125 123.534  0.00  0.00    +0.275 C 
ATOM     32  C   LIG A   1      -9.319  -3.124 124.634  0.00  0.00    +0.040 C 
BRANCH  30  33
ATOM     33  O   LIG A   1     -10.042  -0.868 122.829  0.00  0.00    -0.385 OA
ATOM     34  H   LIG A   1     -10.318  -1.787 122.662  0.00  0.00    +0.210 HD
ENDBRANCH  30  33
BRANCH  29  35
ATOM     35  O   LIG A   1      -6.727  -2.154 122.020  0.00  0.00    -0.387 OA
ATOM     36  H   LIG A   1      -6.688  -2.790 121.285  0.00  0.00    +0.210 HD
ENDBRANCH  29  35
BRANCH  31  37
ATOM     37  O   LIG A   1      -8.650   1.357 123.710  0.00  0.00    -0.453 OA
BRANCH  37  38
ATOM     38  C   LIG A   1      -8.240   2.437 122.981  0.00  0.00    +0.304 C 
ATOM     39  C   LIG A   1      -6.737   2.527 123.066  0.00  0.00    +0.136 C 
ATOM     40  O   LIG A   1      -8.956   3.187 122.352  0.00  0.00    -0.251 OA
ENDBRANCH  37  38
ENDBRANCH  31  37
ENDBRANCH  25  26
ENDBRANCH  14  25
TORSDOF 9
ENDMDL
MODEL 7
REMARK VINA RESULT:      -7.7      3.046      7.886
REMARK  Name = NuBBE_1250
REMARK  11 active torsions:
REMARK  status: ('A' for Active; 'I' for Inactive)
REMARK    1  A    between atoms: C_5  and  O_6
REMARK    2  A    between atoms: C_7  and  O_40
REMARK    3  A    between atoms: C_14  and  O_15
REMARK    4  A    between atoms: C_16  and  O_17
REMARK    5  A    between atoms: O_17  and  C_18
REMARK    6  A    between atoms: C_21  and  C_35
REMARK    7  A    between atoms: C_23  and  O_34
REMARK    8  A    between atoms: C_25  and  O_33
REMARK    9  A    between atoms: C_27  and  O_29
REMARK   10  A    between atoms: O_29  and  C_30
REMARK   11  A    between atoms: C_30  and  C_31
REMARK                            x       y       z     vdW  Elec       q    Type
REMARK                         _______ _______ _______ _____ _____    ______ ____
ROOT
ATOM      1  O   LIG A   1      -4.842   6.534 129.582  0.00  0.00    -0.244 OA
ATOM      2  C   LIG A   1      -5.233   5.373 129.608  0.00  0.00    +0.345 A 
ATOM      3  C   LIG A   1      -4.626   4.380 130.537  0.00  0.00    +0.074 A 
ATOM      4  C   LIG A   1      -3.630   4.763 131.457  0.00  0.00    +0.065 A 
ATOM      5  C   LIG A   1      -3.089   3.805 132.318  0.00  0.00    +0.163 A 
ATOM      6  C   LIG A   1      -3.514   2.480 132.258  0.00  0.00    +0.202 A 
ATOM      7  C   LIG A   1      -4.494   2.119 131.346  0.00  0.00    +0.185 A 
ATOM      8  O   LIG A   1      -4.935   0.780 131.323  0.00  0.00    -0.418 OA
ATOM      9  C   LIG A   1      -5.067   3.058 130.492  0.00  0.00    +0.047 A 
ATOM     10  C   LIG A   1      -6.107   2.646 129.591  0.00  0.00    +0.047 A 
ATOM     11  C   LIG A   1      -6.708   3.564 128.744  0.00  0.00    +0.185 A 
ATOM     12  O   LIG A   1      -6.268   4.915 128.773  0.00  0.00    -0.418 OA
ATOM     13  C   LIG A   1      -7.734   3.175 127.864  0.00  0.00    +0.203 A 
ATOM     14  C   LIG A   1      -8.133   1.822 127.780  0.00  0.00    +0.170 A 
ATOM     15  C   LIG A   1      -7.524   0.907 128.642  0.00  0.00    +0.065 A 
ATOM     16  C   LIG A   1      -6.540   1.324 129.558  0.00  0.00    +0.074 A 
ATOM     17  C   LIG A   1      -5.983   0.346 130.523  0.00  0.00    +0.345 A 
ATOM     18  O   LIG A   1      -6.443  -0.788 130.611  0.00  0.00    -0.244 OA
ENDROOT
BRANCH   5  19
ATOM     19  O   LIG A   1      -2.145   4.113 133.256  0.00  0.00    -0.503 OA
ATOM     20  H   LIG A   1      -2.322   5.002 133.610  0.00  0.00    +0.292 HD
ENDBRANCH   5  19
BRANCH  13  21
ATOM     21  O   LIG A   1      -8.345   4.111 127.074  0.00  0.00    -0.501 OA
ATOM     22  H   LIG A   1      -7.771   4.898 127.034  0.00  0.00    +0.292 HD
ENDBRANCH  13  21
BRANCH   6  23
ATOM     23  O   LIG A   1      -2.987   1.551 133.107  0.00  0.00    -0.501 OA
ATOM     24  H   LIG A   1      -3.292   1.802 134.000  0.00  0.00    +0.292 HD
ENDBRANCH   6  23
BRANCH  14  25
ATOM     25  O   LIG A   1      -9.136   1.493 126.895  0.00  0.00    -0.456 OA
BRANCH  25  26
ATOM     26  C   LIG A   1      -8.818   1.323 125.482  0.00  0.00    +0.352 C 
ATOM     27  O   LIG A   1      -9.451   2.351 124.714  0.00  0.00    -0.333 OA
ATOM     28  C   LIG A   1      -9.347   2.209 123.290  0.00  0.00    +0.151 C 
ATOM     29  C   LIG A   1      -9.899   0.853 122.806  0.00  0.00    +0.175 C 
ATOM     30  C   LIG A   1      -9.223  -0.311 123.530  0.00  0.00    +0.192 C 
ATOM     31  C   LIG A   1      -9.275  -0.104 125.055  0.00  0.00    +0.275 C 
ATOM     32  C   LIG A   1      -7.932   2.517 122.799  0.00  0.00    +0.040 C 
BRANCH  30  33
ATOM     33  O   LIG A   1      -7.873  -0.450 123.065  0.00  0.00    -0.385 OA
ATOM     34  H   LIG A   1      -7.902  -1.061 122.307  0.00  0.00    +0.210 HD
ENDBRANCH  30  33
BRANCH  29  35
ATOM     35  O   LIG A   1     -11.308   0.775 123.063  0.00  0.00    -0.387 OA
ATOM     36  H   LIG A   1     -11.698   0.148 122.429  0.00  0.00    +0.210 HD
ENDBRANCH  29  35
BRANCH  31  37
ATOM     37  O   LIG A   1      -8.388  -1.039 125.721  0.00  0.00    -0.453 OA
BRANCH  37  38
ATOM     38  C   LIG A   1      -8.951  -2.178 126.220  0.00  0.00    +0.304 C 
ATOM     39  C   LIG A   1      -8.217  -2.561 127.480  0.00  0.00    +0.136 C 
ATOM     40  O   LIG A   1      -9.895  -2.774 125.747  0.00  0.00    -0.251 OA
ENDBRANCH  37  38
ENDBRANCH  31  37
ENDBRANCH  25  26
ENDBRANCH  14  25
TORSDOF 9
ENDMDL
MODEL 8
REMARK VINA RESULT:      -7.7      1.805      4.406
REMARK  Name = NuBBE_1250
REMARK  11 active torsions:
REMARK  status: ('A' for Active; 'I' for Inactive)
REMARK    1  A    between atoms: C_5  and  O_6
REMARK    2  A    between atoms: C_7  and  O_40
REMARK    3  A    between atoms: C_14  and  O_15
REMARK    4  A    between atoms: C_16  and  O_17
REMARK    5  A    between atoms: O_17  and  C_18
REMARK    6  A    between atoms: C_21  and  C_35
REMARK    7  A    between atoms: C_23  and  O_34
REMARK    8  A    between atoms: C_25  and  O_33
REMARK    9  A    between atoms: C_27  and  O_29
REMARK   10  A    between atoms: O_29  and  C_30
REMARK   11  A    between atoms: C_30  and  C_31
REMARK                            x       y       z     vdW  Elec       q    Type
REMARK                         _______ _______ _______ _____ _____    ______ ____
ROOT
ATOM      1  O   LIG A   1      -7.916  -3.642 128.451  0.00  0.00    -0.244 OA
ATOM      2  C   LIG A   1      -8.036  -2.484 128.072  0.00  0.00    +0.345 A 
ATOM      3  C   LIG A   1      -8.384  -2.170 126.659  0.00  0.00    +0.074 A 
ATOM      4  C   LIG A   1      -8.648  -3.198 125.732  0.00  0.00    +0.065 A 
ATOM      5  C   LIG A   1      -8.978  -2.865 124.417  0.00  0.00    +0.163 A 
ATOM      6  C   LIG A   1      -9.030  -1.533 124.016  0.00  0.00    +0.202 A 
ATOM      7  C   LIG A   1      -8.766  -0.533 124.940  0.00  0.00    +0.185 A 
ATOM      8  O   LIG A   1      -8.855   0.812 124.522  0.00  0.00    -0.418 OA
ATOM      9  C   LIG A   1      -8.457  -0.835 126.262  0.00  0.00    +0.047 A 
ATOM     10  C   LIG A   1      -8.230   0.235 127.194  0.00  0.00    +0.047 A 
ATOM     11  C   LIG A   1      -7.940  -0.037 128.521  0.00  0.00    +0.185 A 
ATOM     12  O   LIG A   1      -7.858  -1.393 128.941  0.00  0.00    -0.418 OA
ATOM     13  C   LIG A   1      -7.725   1.002 129.444  0.00  0.00    +0.203 A 
ATOM     14  C   LIG A   1      -7.739   2.350 129.023  0.00  0.00    +0.170 A 
ATOM     15  C   LIG A   1      -8.037   2.613 127.684  0.00  0.00    +0.065 A 
ATOM     16  C   LIG A   1      -8.308   1.564 126.786  0.00  0.00    +0.074 A 
ATOM     17  C   LIG A   1      -8.715   1.881 125.396  0.00  0.00    +0.345 A 
ATOM     18  O   LIG A   1      -8.926   3.039 125.048  0.00  0.00    -0.244 OA
ENDROOT
BRANCH   5  19
ATOM     19  O   LIG A   1      -9.279  -3.810 123.475  0.00  0.00    -0.503 OA
ATOM     20  H   LIG A   1      -8.587  -4.494 123.475  0.00  0.00    +0.292 HD
ENDBRANCH   5  19
BRANCH  13  21
ATOM     21  O   LIG A   1      -7.490   0.707 130.760  0.00  0.00    -0.501 OA
ATOM     22  H   LIG A   1      -7.158  -0.209 130.813  0.00  0.00    +0.292 HD
ENDBRANCH  13  21
BRANCH   6  23
ATOM     23  O   LIG A   1      -9.361  -1.215 122.731  0.00  0.00    -0.501 OA
ATOM     24  H   LIG A   1      -8.654  -0.621 122.412  0.00  0.00    +0.292 HD
ENDBRANCH   6  23
BRANCH  14  25
ATOM     25  O   LIG A   1      -7.514   3.329 129.966  0.00  0.00    -0.456 OA
BRANCH  25  26
ATOM     26  C   LIG A   1      -8.639   4.100 130.482  0.00  0.00    +0.352 C 
ATOM     27  O   LIG A   1      -9.292   4.786 129.408  0.00  0.00    -0.333 OA
ATOM     28  C   LIG A   1     -10.322   5.704 129.801  0.00  0.00    +0.151 C 
ATOM     29  C   LIG A   1      -9.799   6.767 130.789  0.00  0.00    +0.175 C 
ATOM     30  C   LIG A   1      -9.144   6.116 132.007  0.00  0.00    +0.192 C 
ATOM     31  C   LIG A   1      -8.096   5.077 131.567  0.00  0.00    +0.275 C 
ATOM     32  C   LIG A   1     -11.574   4.970 130.281  0.00  0.00    +0.040 C 
BRANCH  30  33
ATOM     33  O   LIG A   1     -10.152   5.525 132.839  0.00  0.00    -0.385 OA
ATOM     34  H   LIG A   1     -10.171   4.576 132.620  0.00  0.00    +0.210 HD
ENDBRANCH  30  33
BRANCH  29  35
ATOM     35  O   LIG A   1      -8.818   7.594 130.148  0.00  0.00    -0.387 OA
ATOM     36  H   LIG A   1      -8.189   7.014 129.683  0.00  0.00    +0.210 HD
ENDBRANCH  29  35
BRANCH  31  37
ATOM     37  O   LIG A   1      -7.695   4.258 132.696  0.00  0.00    -0.453 OA
BRANCH  37  38
ATOM     38  C   LIG A   1      -6.709   4.754 133.501  0.00  0.00    +0.304 C 
ATOM     39  C   LIG A   1      -6.915   4.215 134.894  0.00  0.00    +0.136 C 
ATOM     40  O   LIG A   1      -5.807   5.486 133.155  0.00  0.00    -0.251 OA
ENDBRANCH  37  38
ENDBRANCH  31  37
ENDBRANCH  25  26
ENDBRANCH  14  25
TORSDOF 9
ENDMDL
MODEL 9
REMARK VINA RESULT:      -7.6      2.178      3.201
REMARK  Name = NuBBE_1250
REMARK  11 active torsions:
REMARK  status: ('A' for Active; 'I' for Inactive)
REMARK    1  A    between atoms: C_5  and  O_6
REMARK    2  A    between atoms: C_7  and  O_40
REMARK    3  A    between atoms: C_14  and  O_15
REMARK    4  A    between atoms: C_16  and  O_17
REMARK    5  A    between atoms: O_17  and  C_18
REMARK    6  A    between atoms: C_21  and  C_35
REMARK    7  A    between atoms: C_23  and  O_34
REMARK    8  A    between atoms: C_25  and  O_33
REMARK    9  A    between atoms: C_27  and  O_29
REMARK   10  A    between atoms: O_29  and  C_30
REMARK   11  A    between atoms: C_30  and  C_31
REMARK                            x       y       z     vdW  Elec       q    Type
REMARK                         _______ _______ _______ _____ _____    ______ ____
ROOT
ATOM      1  O   LIG A   1      -9.575   2.190 123.735  0.00  0.00    -0.244 OA
ATOM      2  C   LIG A   1      -9.148   1.766 124.801  0.00  0.00    +0.345 A 
ATOM      3  C   LIG A   1      -8.879   0.314 124.998  0.00  0.00    +0.074 A 
ATOM      4  C   LIG A   1      -9.048  -0.604 123.942  0.00  0.00    +0.065 A 
ATOM      5  C   LIG A   1      -8.780  -1.956 124.162  0.00  0.00    +0.163 A 
ATOM      6  C   LIG A   1      -8.367  -2.400 125.416  0.00  0.00    +0.202 A 
ATOM      7  C   LIG A   1      -8.206  -1.485 126.444  0.00  0.00    +0.185 A 
ATOM      8  O   LIG A   1      -7.755  -1.950 127.697  0.00  0.00    -0.418 OA
ATOM      9  C   LIG A   1      -8.444  -0.128 126.247  0.00  0.00    +0.047 A 
ATOM     10  C   LIG A   1      -8.227   0.789 127.331  0.00  0.00    +0.047 A 
ATOM     11  C   LIG A   1      -8.437   2.148 127.156  0.00  0.00    +0.185 A 
ATOM     12  O   LIG A   1      -8.885   2.615 125.890  0.00  0.00    -0.418 OA
ATOM     13  C   LIG A   1      -8.218   3.056 128.207  0.00  0.00    +0.203 A 
ATOM     14  C   LIG A   1      -7.838   2.596 129.487  0.00  0.00    +0.170 A 
ATOM     15  C   LIG A   1      -7.623   1.225 129.650  0.00  0.00    +0.065 A 
ATOM     16  C   LIG A   1      -7.790   0.335 128.572  0.00  0.00    +0.074 A 
ATOM     17  C   LIG A   1      -7.462  -1.099 128.754  0.00  0.00    +0.345 A 
ATOM     18  O   LIG A   1      -6.945  -1.503 129.791  0.00  0.00    -0.244 OA
ENDROOT
BRANCH   5  19
ATOM     19  O   LIG A   1      -8.891  -2.895 123.175  0.00  0.00    -0.503 OA
ATOM     20  H   LIG A   1      -9.261  -2.479 122.377  0.00  0.00    +0.292 HD
ENDBRANCH   5  19
BRANCH  13  21
ATOM     21  O   LIG A   1      -8.385   4.398 127.993  0.00  0.00    -0.501 OA
ATOM     22  H   LIG A   1      -8.436   4.841 128.860  0.00  0.00    +0.292 HD
ENDBRANCH  13  21
BRANCH   6  23
ATOM     23  O   LIG A   1      -8.099  -3.723 125.621  0.00  0.00    -0.501 OA
ATOM     24  H   LIG A   1      -7.247  -3.752 126.096  0.00  0.00    +0.292 HD
ENDBRANCH   6  23
BRANCH  14  25
ATOM     25  O   LIG A   1      -7.645   3.526 130.483  0.00  0.00    -0.456 OA
BRANCH  25  26
ATOM     26  C   LIG A   1      -6.502   4.430 130.410  0.00  0.00    +0.352 C 
ATOM     27  O   LIG A   1      -5.372   3.838 131.058  0.00  0.00    -0.333 OA
ATOM     28  C   LIG A   1      -4.224   4.688 131.192  0.00  0.00    +0.151 C 
ATOM     29  C   LIG A   1      -4.562   5.996 131.937  0.00  0.00    +0.175 C 
ATOM     30  C   LIG A   1      -5.721   6.732 131.266  0.00  0.00    +0.192 C 
ATOM     31  C   LIG A   1      -6.917   5.784 131.058  0.00  0.00    +0.275 C 
ATOM     32  C   LIG A   1      -3.523   4.899 129.851  0.00  0.00    +0.040 C 
BRANCH  30  33
ATOM     33  O   LIG A   1      -5.279   7.299 130.025  0.00  0.00    -0.385 OA
ATOM     34  H   LIG A   1      -5.561   6.684 129.323  0.00  0.00    +0.210 HD
ENDBRANCH  30  33
BRANCH  29  35
ATOM     35  O   LIG A   1      -4.944   5.707 133.289  0.00  0.00    -0.387 OA
ATOM     36  H   LIG A   1      -5.732   5.136 133.266  0.00  0.00    +0.210 HD
ENDBRANCH  29  35
BRANCH  31  37
ATOM     37  O   LIG A   1      -7.890   6.388 130.168  0.00  0.00    -0.453 OA
BRANCH  37  38
ATOM     38  C   LIG A   1      -9.055   6.827 130.730  0.00  0.00    +0.304 C 
ATOM     39  C   LIG A   1      -9.864   7.525 129.665  0.00  0.00    +0.136 C 
ATOM     40  O   LIG A   1      -9.395   6.667 131.882  0.00  0.00    -0.251 OA
ENDBRANCH  37  38
ENDBRANCH  31  37
ENDBRANCH  25  26
ENDBRANCH  14  25
TORSDOF 9
ENDMDL
