MODEL 1
REMARK VINA RESULT:      -6.8      0.000      0.000
REMARK  Name = NuBBE_1164
REMARK  12 active torsions:
REMARK  status: ('A' for Active; 'I' for Inactive)
REMARK    1  A    between atoms: O_1  and  C_2
REMARK    2  A    between atoms: O_1  and  C_3
REMARK    3  A    between atoms: C_13  and  O_25
REMARK    4  A    between atoms: C_14  and  O_16
REMARK    5  A    between atoms: O_16  and  C_17
REMARK    6  A    between atoms: C_17  and  C_18
REMARK    7  A    between atoms: C_18  and  C_20
REMARK    8  A    between atoms: C_18  and  O_24
REMARK    9  A    between atoms: C_20  and  C_21
REMARK   10  A    between atoms: C_20  and  C_22
REMARK   11  A    between atoms: C_20  and  O_23
REMARK   12  A    between atoms: O_25  and  C_26
REMARK                            x       y       z     vdW  Elec       q    Type
REMARK                         _______ _______ _______ _____ _____    ______ ____
ROOT
ATOM      1  C   LIG A   1      -4.211   6.879 130.884  0.00  0.00    +0.142 A 
ATOM      2  C   LIG A   1      -5.423   6.551 131.546  0.00  0.00    +0.046 A 
ATOM      3  C   LIG A   1      -5.339   5.832 132.757  0.00  0.00    +0.082 A 
ATOM      4  N   LIG A   1      -4.207   5.466 133.348  0.00  0.00    -0.212 NA
ATOM      5  C   LIG A   1      -3.096   5.809 132.703  0.00  0.00    +0.231 A 
ATOM      6  C   LIG A   1      -2.990   6.483 131.482  0.00  0.00    +0.082 A 
ATOM      7  C   LIG A   1      -1.590   6.571 131.242  0.00  0.00    +0.055 A 
ATOM      8  C   LIG A   1      -0.956   5.970 132.301  0.00  0.00    +0.198 A 
ATOM      9  O   LIG A   1      -1.864   5.515 133.193  0.00  0.00    -0.445 OA
ATOM     10  C   LIG A   1      -6.489   5.460 133.404  0.00  0.00    +0.078 A 
ATOM     11  C   LIG A   1      -7.763   5.805 132.941  0.00  0.00    +0.164 A 
ATOM     12  C   LIG A   1      -7.873   6.557 131.763  0.00  0.00    +0.163 A 
ATOM     13  C   LIG A   1      -6.713   6.891 131.061  0.00  0.00    +0.063 A 
ENDROOT
BRANCH   1  14
ATOM     14  O   LIG A   1      -4.341   7.686 129.756  0.00  0.00    -0.494 OA
ATOM     15  C   LIG A   1      -3.720   7.226 128.566  0.00  0.00    +0.277 C 
ENDBRANCH   1  14
BRANCH  11  16
ATOM     16  O   LIG A   1      -8.912   5.424 133.586  0.00  0.00    -0.491 OA
ATOM     17  C   LIG A   1      -9.059   4.016 133.775  0.00  0.00    +0.277 C 
ENDBRANCH  11  16
BRANCH  12  18
ATOM     18  O   LIG A   1      -9.137   6.895 131.339  0.00  0.00    -0.486 OA
BRANCH  18  19
ATOM     19  C   LIG A   1      -9.716   6.054 130.336  0.00  0.00    +0.263 C 
BRANCH  19  20
ATOM     20  C   LIG A   1     -11.232   5.885 130.546  0.00  0.00    +0.183 C 
BRANCH  20  21
ATOM     21  C   LIG A   1     -12.136   7.048 130.055  0.00  0.00    +0.089 C 
ATOM     22  C   LIG A   1     -13.044   6.680 128.879  0.00  0.00    +0.044 C 
ATOM     23  C   LIG A   1     -12.971   7.647 131.191  0.00  0.00    +0.044 C 
BRANCH  21  24
ATOM     24  O   LIG A   1     -11.229   8.071 129.581  0.00  0.00    -0.387 OA
ATOM     25  H   LIG A   1     -11.305   8.111 128.611  0.00  0.00    +0.210 HD
ENDBRANCH  21  24
ENDBRANCH  20  21
BRANCH  20  26
ATOM     26  O   LIG A   1     -11.499   5.604 131.932  0.00  0.00    -0.386 OA
ATOM     27  H   LIG A   1     -10.720   5.104 132.244  0.00  0.00    +0.210 HD
ENDBRANCH  20  26
ENDBRANCH  19  20
ENDBRANCH  18  19
ENDBRANCH  12  18
TORSDOF 8
ENDMDL
MODEL 2
REMARK VINA RESULT:      -6.8      7.874     10.426
REMARK  Name = NuBBE_1164
REMARK  12 active torsions:
REMARK  status: ('A' for Active; 'I' for Inactive)
REMARK    1  A    between atoms: O_1  and  C_2
REMARK    2  A    between atoms: O_1  and  C_3
REMARK    3  A    between atoms: C_13  and  O_25
REMARK    4  A    between atoms: C_14  and  O_16
REMARK    5  A    between atoms: O_16  and  C_17
REMARK    6  A    between atoms: C_17  and  C_18
REMARK    7  A    between atoms: C_18  and  C_20
REMARK    8  A    between atoms: C_18  and  O_24
REMARK    9  A    between atoms: C_20  and  C_21
REMARK   10  A    between atoms: C_20  and  C_22
REMARK   11  A    between atoms: C_20  and  O_23
REMARK   12  A    between atoms: O_25  and  C_26
REMARK                            x       y       z     vdW  Elec       q    Type
REMARK                         _______ _______ _______ _____ _____    ______ ____
ROOT
ATOM      1  C   LIG A   1      -6.271   3.758 121.519  0.00  0.00    +0.142 A 
ATOM      2  C   LIG A   1      -6.920   3.242 122.670  0.00  0.00    +0.046 A 
ATOM      3  C   LIG A   1      -8.319   3.063 122.614  0.00  0.00    +0.082 A 
ATOM      4  N   LIG A   1      -9.075   3.309 121.550  0.00  0.00    -0.212 NA
ATOM      5  C   LIG A   1      -8.423   3.775 120.489  0.00  0.00    +0.231 A 
ATOM      6  C   LIG A   1      -7.056   4.048 120.377  0.00  0.00    +0.082 A 
ATOM      7  C   LIG A   1      -6.896   4.541 119.052  0.00  0.00    +0.055 A 
ATOM      8  C   LIG A   1      -8.135   4.531 118.460  0.00  0.00    +0.198 A 
ATOM      9  O   LIG A   1      -9.062   4.059 119.324  0.00  0.00    -0.445 OA
ATOM     10  C   LIG A   1      -8.988   2.607 123.720  0.00  0.00    +0.078 A 
ATOM     11  C   LIG A   1      -8.337   2.257 124.907  0.00  0.00    +0.164 A 
ATOM     12  C   LIG A   1      -6.942   2.383 124.976  0.00  0.00    +0.163 A 
ATOM     13  C   LIG A   1      -6.254   2.903 123.877  0.00  0.00    +0.063 A 
ENDROOT
BRANCH   1  14
ATOM     14  O   LIG A   1      -4.880   3.806 121.584  0.00  0.00    -0.494 OA
ATOM     15  C   LIG A   1      -4.290   5.092 121.685  0.00  0.00    +0.277 C 
ENDBRANCH   1  14
BRANCH  11  16
ATOM     16  O   LIG A   1      -9.010   1.809 126.015  0.00  0.00    -0.491 OA
ATOM     17  C   LIG A   1      -9.515   0.476 125.916  0.00  0.00    +0.277 C 
ENDBRANCH  11  16
BRANCH  12  18
ATOM     18  O   LIG A   1      -6.326   2.016 126.149  0.00  0.00    -0.486 OA
BRANCH  18  19
ATOM     19  C   LIG A   1      -6.269   3.015 127.174  0.00  0.00    +0.263 C 
BRANCH  19  20
ATOM     20  C   LIG A   1      -4.981   3.851 127.076  0.00  0.00    +0.183 C 
BRANCH  20  21
ATOM     21  C   LIG A   1      -3.661   3.148 127.496  0.00  0.00    +0.089 C 
ATOM     22  C   LIG A   1      -2.427   4.052 127.443  0.00  0.00    +0.044 C 
ATOM     23  C   LIG A   1      -3.771   2.496 128.877  0.00  0.00    +0.044 C 
BRANCH  21  24
ATOM     24  O   LIG A   1      -3.455   2.097 126.523  0.00  0.00    -0.387 OA
ATOM     25  H   LIG A   1      -3.457   1.247 126.998  0.00  0.00    +0.210 HD
ENDBRANCH  21  24
ENDBRANCH  20  21
BRANCH  20  26
ATOM     26  O   LIG A   1      -5.143   5.076 127.813  0.00  0.00    -0.386 OA
ATOM     27  H   LIG A   1      -5.892   4.911 128.418  0.00  0.00    +0.210 HD
ENDBRANCH  20  26
ENDBRANCH  19  20
ENDBRANCH  18  19
ENDBRANCH  12  18
TORSDOF 8
ENDMDL
MODEL 3
REMARK VINA RESULT:      -6.8      8.864     10.447
REMARK  Name = NuBBE_1164
REMARK  12 active torsions:
REMARK  status: ('A' for Active; 'I' for Inactive)
REMARK    1  A    between atoms: O_1  and  C_2
REMARK    2  A    between atoms: O_1  and  C_3
REMARK    3  A    between atoms: C_13  and  O_25
REMARK    4  A    between atoms: C_14  and  O_16
REMARK    5  A    between atoms: O_16  and  C_17
REMARK    6  A    between atoms: C_17  and  C_18
REMARK    7  A    between atoms: C_18  and  C_20
REMARK    8  A    between atoms: C_18  and  O_24
REMARK    9  A    between atoms: C_20  and  C_21
REMARK   10  A    between atoms: C_20  and  C_22
REMARK   11  A    between atoms: C_20  and  O_23
REMARK   12  A    between atoms: O_25  and  C_26
REMARK                            x       y       z     vdW  Elec       q    Type
REMARK                         _______ _______ _______ _____ _____    ______ ____
ROOT
ATOM      1  C   LIG A   1      -7.659   3.482 121.444  0.00  0.00    +0.142 A 
ATOM      2  C   LIG A   1      -7.424   3.108 122.793  0.00  0.00    +0.046 A 
ATOM      3  C   LIG A   1      -6.195   3.482 123.376  0.00  0.00    +0.082 A 
ATOM      4  N   LIG A   1      -5.250   4.191 122.769  0.00  0.00    -0.212 NA
ATOM      5  C   LIG A   1      -5.519   4.534 121.513  0.00  0.00    +0.231 A 
ATOM      6  C   LIG A   1      -6.660   4.221 120.767  0.00  0.00    +0.082 A 
ATOM      7  C   LIG A   1      -6.427   4.809 119.493  0.00  0.00    +0.055 A 
ATOM      8  C   LIG A   1      -5.203   5.428 119.545  0.00  0.00    +0.198 A 
ATOM      9  O   LIG A   1      -4.653   5.272 120.771  0.00  0.00    -0.445 OA
ATOM     10  C   LIG A   1      -5.913   3.102 124.662  0.00  0.00    +0.078 A 
ATOM     11  C   LIG A   1      -6.818   2.393 125.458  0.00  0.00    +0.164 A 
ATOM     12  C   LIG A   1      -8.065   2.046 124.917  0.00  0.00    +0.163 A 
ATOM     13  C   LIG A   1      -8.342   2.373 123.588  0.00  0.00    +0.063 A 
ENDROOT
BRANCH   1  14
ATOM     14  O   LIG A   1      -8.930   3.191 120.953  0.00  0.00    -0.494 OA
ATOM     15  C   LIG A   1      -9.388   3.973 119.861  0.00  0.00    +0.277 C 
ENDBRANCH   1  14
BRANCH  11  16
ATOM     16  O   LIG A   1      -6.530   2.007 126.742  0.00  0.00    -0.491 OA
ATOM     17  C   LIG A   1      -5.141   1.832 127.021  0.00  0.00    +0.277 C 
ENDBRANCH  11  16
BRANCH  12  18
ATOM     18  O   LIG A   1      -8.942   1.361 125.726  0.00  0.00    -0.486 OA
BRANCH  18  19
ATOM     19  C   LIG A   1      -9.757   0.374 125.085  0.00  0.00    +0.263 C 
BRANCH  19  20
ATOM     20  C   LIG A   1      -9.020  -0.971 124.957  0.00  0.00    +0.183 C 
BRANCH  20  21
ATOM     21  C   LIG A   1      -8.879  -1.554 123.525  0.00  0.00    +0.089 C 
ATOM     22  C   LIG A   1      -7.497  -1.349 122.900  0.00  0.00    +0.044 C 
ATOM     23  C   LIG A   1      -9.263  -3.035 123.468  0.00  0.00    +0.044 C 
BRANCH  21  24
ATOM     24  O   LIG A   1      -9.822  -0.818 122.712  0.00  0.00    -0.387 OA
ATOM     25  H   LIG A   1     -10.154  -0.072 123.242  0.00  0.00    +0.210 HD
ENDBRANCH  21  24
ENDBRANCH  20  21
BRANCH  20  26
ATOM     26  O   LIG A   1      -9.629  -1.940 125.828  0.00  0.00    -0.386 OA
ATOM     27  H   LIG A   1      -8.885  -2.358 126.303  0.00  0.00    +0.210 HD
ENDBRANCH  20  26
ENDBRANCH  19  20
ENDBRANCH  18  19
ENDBRANCH  12  18
TORSDOF 8
ENDMDL
MODEL 4
REMARK VINA RESULT:      -6.6      8.898     10.787
REMARK  Name = NuBBE_1164
REMARK  12 active torsions:
REMARK  status: ('A' for Active; 'I' for Inactive)
REMARK    1  A    between atoms: O_1  and  C_2
REMARK    2  A    between atoms: O_1  and  C_3
REMARK    3  A    between atoms: C_13  and  O_25
REMARK    4  A    between atoms: C_14  and  O_16
REMARK    5  A    between atoms: O_16  and  C_17
REMARK    6  A    between atoms: C_17  and  C_18
REMARK    7  A    between atoms: C_18  and  C_20
REMARK    8  A    between atoms: C_18  and  O_24
REMARK    9  A    between atoms: C_20  and  C_21
REMARK   10  A    between atoms: C_20  and  C_22
REMARK   11  A    between atoms: C_20  and  O_23
REMARK   12  A    between atoms: O_25  and  C_26
REMARK                            x       y       z     vdW  Elec       q    Type
REMARK                         _______ _______ _______ _____ _____    ______ ____
ROOT
ATOM      1  C   LIG A   1      -6.321   3.724 121.509  0.00  0.00    +0.142 A 
ATOM      2  C   LIG A   1      -6.933   3.194 122.674  0.00  0.00    +0.046 A 
ATOM      3  C   LIG A   1      -8.333   3.018 122.662  0.00  0.00    +0.082 A 
ATOM      4  N   LIG A   1      -9.123   3.280 121.627  0.00  0.00    -0.212 NA
ATOM      5  C   LIG A   1      -8.506   3.759 120.551  0.00  0.00    +0.231 A 
ATOM      6  C   LIG A   1      -7.143   4.031 120.397  0.00  0.00    +0.082 A 
ATOM      7  C   LIG A   1      -7.026   4.541 119.074  0.00  0.00    +0.055 A 
ATOM      8  C   LIG A   1      -8.283   4.541 118.524  0.00  0.00    +0.198 A 
ATOM      9  O   LIG A   1      -9.182   4.058 119.411  0.00  0.00    -0.445 OA
ATOM     10  C   LIG A   1      -8.966   2.549 123.783  0.00  0.00    +0.078 A 
ATOM     11  C   LIG A   1      -8.277   2.181 124.943  0.00  0.00    +0.164 A 
ATOM     12  C   LIG A   1      -6.880   2.305 124.967  0.00  0.00    +0.163 A 
ATOM     13  C   LIG A   1      -6.228   2.839 123.854  0.00  0.00    +0.063 A 
ENDROOT
BRANCH   1  14
ATOM     14  O   LIG A   1      -4.929   3.770 121.529  0.00  0.00    -0.494 OA
ATOM     15  C   LIG A   1      -4.333   5.053 121.637  0.00  0.00    +0.277 C 
ENDBRANCH   1  14
BRANCH  11  16
ATOM     16  O   LIG A   1      -8.913   1.720 126.067  0.00  0.00    -0.491 OA
ATOM     17  C   LIG A   1      -9.836   0.653 125.841  0.00  0.00    +0.277 C 
ENDBRANCH  11  16
BRANCH  12  18
ATOM     18  O   LIG A   1      -6.227   1.922 126.115  0.00  0.00    -0.486 OA
BRANCH  18  19
ATOM     19  C   LIG A   1      -5.378   0.774 126.008  0.00  0.00    +0.263 C 
BRANCH  19  20
ATOM     20  C   LIG A   1      -5.964  -0.434 126.761  0.00  0.00    +0.183 C 
BRANCH  20  21
ATOM     21  C   LIG A   1      -6.513  -1.597 125.891  0.00  0.00    +0.089 C 
ATOM     22  C   LIG A   1      -5.451  -2.615 125.467  0.00  0.00    +0.044 C 
ATOM     23  C   LIG A   1      -7.685  -2.316 126.566  0.00  0.00    +0.044 C 
BRANCH  21  24
ATOM     24  O   LIG A   1      -7.008  -0.977 124.681  0.00  0.00    -0.387 OA
ATOM     25  H   LIG A   1      -7.578  -0.232 124.941  0.00  0.00    +0.210 HD
ENDBRANCH  21  24
ENDBRANCH  20  21
BRANCH  20  26
ATOM     26  O   LIG A   1      -6.976   0.015 127.681  0.00  0.00    -0.386 OA
ATOM     27  H   LIG A   1      -7.824  -0.180 127.238  0.00  0.00    +0.210 HD
ENDBRANCH  20  26
ENDBRANCH  19  20
ENDBRANCH  18  19
ENDBRANCH  12  18
TORSDOF 8
ENDMDL
MODEL 5
REMARK VINA RESULT:      -6.4      4.796      7.219
REMARK  Name = NuBBE_1164
REMARK  12 active torsions:
REMARK  status: ('A' for Active; 'I' for Inactive)
REMARK    1  A    between atoms: O_1  and  C_2
REMARK    2  A    between atoms: O_1  and  C_3
REMARK    3  A    between atoms: C_13  and  O_25
REMARK    4  A    between atoms: C_14  and  O_16
REMARK    5  A    between atoms: O_16  and  C_17
REMARK    6  A    between atoms: C_17  and  C_18
REMARK    7  A    between atoms: C_18  and  C_20
REMARK    8  A    between atoms: C_18  and  O_24
REMARK    9  A    between atoms: C_20  and  C_21
REMARK   10  A    between atoms: C_20  and  C_22
REMARK   11  A    between atoms: C_20  and  O_23
REMARK   12  A    between atoms: O_25  and  C_26
REMARK                            x       y       z     vdW  Elec       q    Type
REMARK                         _______ _______ _______ _____ _____    ______ ____
ROOT
ATOM      1  C   LIG A   1     -10.570   7.191 128.936  0.00  0.00    +0.142 A 
ATOM      2  C   LIG A   1     -10.069   5.967 129.450  0.00  0.00    +0.046 A 
ATOM      3  C   LIG A   1     -10.614   5.488 130.660  0.00  0.00    +0.082 A 
ATOM      4  N   LIG A   1     -11.588   6.079 131.343  0.00  0.00    -0.212 NA
ATOM      5  C   LIG A   1     -12.039   7.214 130.817  0.00  0.00    +0.231 A 
ATOM      6  C   LIG A   1     -11.595   7.853 129.655  0.00  0.00    +0.082 A 
ATOM      7  C   LIG A   1     -12.393   9.027 129.565  0.00  0.00    +0.055 A 
ATOM      8  C   LIG A   1     -13.247   9.024 130.639  0.00  0.00    +0.198 A 
ATOM      9  O   LIG A   1     -13.043   7.922 131.396  0.00  0.00    -0.445 OA
ATOM     10  C   LIG A   1     -10.126   4.331 131.210  0.00  0.00    +0.078 A 
ATOM     11  C   LIG A   1      -9.133   3.561 130.596  0.00  0.00    +0.164 A 
ATOM     12  C   LIG A   1      -8.606   3.991 129.371  0.00  0.00    +0.163 A 
ATOM     13  C   LIG A   1      -9.049   5.199 128.829  0.00  0.00    +0.063 A 
ENDROOT
BRANCH   1  14
ATOM     14  O   LIG A   1     -10.084   7.561 127.684  0.00  0.00    -0.494 OA
ATOM     15  C   LIG A   1     -10.989   7.469 126.595  0.00  0.00    +0.277 C 
ENDBRANCH   1  14
BRANCH  11  16
ATOM     16  O   LIG A   1      -8.642   2.408 131.153  0.00  0.00    -0.491 OA
ATOM     17  C   LIG A   1      -9.564   1.696 131.979  0.00  0.00    +0.277 C 
ENDBRANCH  11  16
BRANCH  12  18
ATOM     18  O   LIG A   1      -7.642   3.207 128.782  0.00  0.00    -0.486 OA
BRANCH  18  19
ATOM     19  C   LIG A   1      -7.280   3.548 127.439  0.00  0.00    +0.263 C 
BRANCH  19  20
ATOM     20  C   LIG A   1      -7.835   2.527 126.428  0.00  0.00    +0.183 C 
BRANCH  20  21
ATOM     21  C   LIG A   1      -8.315   3.090 125.063  0.00  0.00    +0.089 C 
ATOM     22  C   LIG A   1      -7.181   3.409 124.086  0.00  0.00    +0.044 C 
ATOM     23  C   LIG A   1      -9.340   2.172 124.391  0.00  0.00    +0.044 C 
BRANCH  21  24
ATOM     24  O   LIG A   1      -8.971   4.343 125.368  0.00  0.00    -0.387 OA
ATOM     25  H   LIG A   1      -9.673   4.160 126.018  0.00  0.00    +0.210 HD
ENDBRANCH  21  24
ENDBRANCH  20  21
BRANCH  20  26
ATOM     26  O   LIG A   1      -8.886   1.761 127.043  0.00  0.00    -0.386 OA
ATOM     27  H   LIG A   1      -8.482   0.897 127.251  0.00  0.00    +0.210 HD
ENDBRANCH  20  26
ENDBRANCH  19  20
ENDBRANCH  18  19
ENDBRANCH  12  18
TORSDOF 8
ENDMDL
MODEL 6
REMARK VINA RESULT:      -6.4      7.855      9.842
REMARK  Name = NuBBE_1164
REMARK  12 active torsions:
REMARK  status: ('A' for Active; 'I' for Inactive)
REMARK    1  A    between atoms: O_1  and  C_2
REMARK    2  A    between atoms: O_1  and  C_3
REMARK    3  A    between atoms: C_13  and  O_25
REMARK    4  A    between atoms: C_14  and  O_16
REMARK    5  A    between atoms: O_16  and  C_17
REMARK    6  A    between atoms: C_17  and  C_18
REMARK    7  A    between atoms: C_18  and  C_20
REMARK    8  A    between atoms: C_18  and  O_24
REMARK    9  A    between atoms: C_20  and  C_21
REMARK   10  A    between atoms: C_20  and  C_22
REMARK   11  A    between atoms: C_20  and  O_23
REMARK   12  A    between atoms: O_25  and  C_26
REMARK                            x       y       z     vdW  Elec       q    Type
REMARK                         _______ _______ _______ _____ _____    ______ ____
ROOT
ATOM      1  C   LIG A   1      -6.273   3.772 121.616  0.00  0.00    +0.142 A 
ATOM      2  C   LIG A   1      -6.952   3.234 122.741  0.00  0.00    +0.046 A 
ATOM      3  C   LIG A   1      -8.345   3.035 122.636  0.00  0.00    +0.082 A 
ATOM      4  N   LIG A   1      -9.069   3.281 121.550  0.00  0.00    -0.212 NA
ATOM      5  C   LIG A   1      -8.390   3.767 120.516  0.00  0.00    +0.231 A 
ATOM      6  C   LIG A   1      -7.024   4.062 120.452  0.00  0.00    +0.082 A 
ATOM      7  C   LIG A   1      -6.828   4.571 119.138  0.00  0.00    +0.055 A 
ATOM      8  C   LIG A   1      -8.046   4.548 118.505  0.00  0.00    +0.198 A 
ATOM      9  O   LIG A   1      -8.994   4.053 119.333  0.00  0.00    -0.445 OA
ATOM     10  C   LIG A   1      -9.043   2.558 123.715  0.00  0.00    +0.078 A 
ATOM     11  C   LIG A   1      -8.427   2.205 124.919  0.00  0.00    +0.164 A 
ATOM     12  C   LIG A   1      -7.037   2.352 125.035  0.00  0.00    +0.163 A 
ATOM     13  C   LIG A   1      -6.321   2.894 123.966  0.00  0.00    +0.063 A 
ENDROOT
BRANCH   1  14
ATOM     14  O   LIG A   1      -4.886   3.841 121.729  0.00  0.00    -0.494 OA
ATOM     15  C   LIG A   1      -4.301   5.130 121.635  0.00  0.00    +0.277 C 
ENDBRANCH   1  14
BRANCH  11  16
ATOM     16  O   LIG A   1      -9.129   1.736 126.000  0.00  0.00    -0.491 OA
ATOM     17  C   LIG A   1      -9.618   0.400 125.867  0.00  0.00    +0.277 C 
ENDBRANCH  11  16
BRANCH  12  18
ATOM     18  O   LIG A   1      -6.455   1.983 126.225  0.00  0.00    -0.486 OA
BRANCH  18  19
ATOM     19  C   LIG A   1      -6.017   3.049 127.074  0.00  0.00    +0.263 C 
BRANCH  19  20
ATOM     20  C   LIG A   1      -6.120   2.665 128.562  0.00  0.00    +0.183 C 
BRANCH  20  21
ATOM     21  C   LIG A   1      -7.549   2.589 129.164  0.00  0.00    +0.089 C 
ATOM     22  C   LIG A   1      -8.094   1.166 129.301  0.00  0.00    +0.044 C 
ATOM     23  C   LIG A   1      -7.646   3.317 130.508  0.00  0.00    +0.044 C 
BRANCH  21  24
ATOM     24  O   LIG A   1      -8.404   3.279 128.222  0.00  0.00    -0.387 OA
ATOM     25  H   LIG A   1      -8.771   2.615 127.611  0.00  0.00    +0.210 HD
ENDBRANCH  21  24
ENDBRANCH  20  21
BRANCH  20  26
ATOM     26  O   LIG A   1      -5.300   3.549 129.347  0.00  0.00    -0.386 OA
ATOM     27  H   LIG A   1      -5.782   4.399 129.359  0.00  0.00    +0.210 HD
ENDBRANCH  20  26
ENDBRANCH  19  20
ENDBRANCH  18  19
ENDBRANCH  12  18
TORSDOF 8
ENDMDL
MODEL 7
REMARK VINA RESULT:      -6.4      7.834     10.450
REMARK  Name = NuBBE_1164
REMARK  12 active torsions:
REMARK  status: ('A' for Active; 'I' for Inactive)
REMARK    1  A    between atoms: O_1  and  C_2
REMARK    2  A    between atoms: O_1  and  C_3
REMARK    3  A    between atoms: C_13  and  O_25
REMARK    4  A    between atoms: C_14  and  O_16
REMARK    5  A    between atoms: O_16  and  C_17
REMARK    6  A    between atoms: C_17  and  C_18
REMARK    7  A    between atoms: C_18  and  C_20
REMARK    8  A    between atoms: C_18  and  O_24
REMARK    9  A    between atoms: C_20  and  C_21
REMARK   10  A    between atoms: C_20  and  C_22
REMARK   11  A    between atoms: C_20  and  O_23
REMARK   12  A    between atoms: O_25  and  C_26
REMARK                            x       y       z     vdW  Elec       q    Type
REMARK                         _______ _______ _______ _____ _____    ______ ____
ROOT
ATOM      1  C   LIG A   1      -6.768  -1.408 125.421  0.00  0.00    +0.142 A 
ATOM      2  C   LIG A   1      -6.559  -0.023 125.193  0.00  0.00    +0.046 A 
ATOM      3  C   LIG A   1      -7.394   0.624 124.258  0.00  0.00    +0.082 A 
ATOM      4  N   LIG A   1      -8.388   0.043 123.595  0.00  0.00    -0.212 NA
ATOM      5  C   LIG A   1      -8.559  -1.250 123.852  0.00  0.00    +0.231 A 
ATOM      6  C   LIG A   1      -7.808  -2.058 124.713  0.00  0.00    +0.082 A 
ATOM      7  C   LIG A   1      -8.396  -3.348 124.597  0.00  0.00    +0.055 A 
ATOM      8  C   LIG A   1      -9.436  -3.245 123.707  0.00  0.00    +0.198 A 
ATOM      9  O   LIG A   1      -9.544  -1.973 123.260  0.00  0.00    -0.445 OA
ATOM     10  C   LIG A   1      -7.195   1.951 123.979  0.00  0.00    +0.078 A 
ATOM     11  C   LIG A   1      -6.223   2.723 124.622  0.00  0.00    +0.164 A 
ATOM     12  C   LIG A   1      -5.408   2.115 125.588  0.00  0.00    +0.163 A 
ATOM     13  C   LIG A   1      -5.558   0.749 125.839  0.00  0.00    +0.063 A 
ENDROOT
BRANCH   1  14
ATOM     14  O   LIG A   1      -5.998  -1.974 126.435  0.00  0.00    -0.494 OA
ATOM     15  C   LIG A   1      -6.661  -2.262 127.656  0.00  0.00    +0.277 C 
ENDBRANCH   1  14
BRANCH  11  16
ATOM     16  O   LIG A   1      -6.021   4.049 124.335  0.00  0.00    -0.491 OA
ATOM     17  C   LIG A   1      -5.500   4.310 123.031  0.00  0.00    +0.277 C 
ENDBRANCH  11  16
BRANCH  12  18
ATOM     18  O   LIG A   1      -4.470   2.900 126.216  0.00  0.00    -0.486 OA
BRANCH  18  19
ATOM     19  C   LIG A   1      -4.803   3.355 127.533  0.00  0.00    +0.263 C 
BRANCH  19  20
ATOM     20  C   LIG A   1      -4.449   4.841 127.723  0.00  0.00    +0.183 C 
BRANCH  20  21
ATOM     21  C   LIG A   1      -3.044   5.153 128.305  0.00  0.00    +0.089 C 
ATOM     22  C   LIG A   1      -2.624   6.618 128.173  0.00  0.00    +0.044 C 
ATOM     23  C   LIG A   1      -2.912   4.701 129.763  0.00  0.00    +0.044 C 
BRANCH  21  24
ATOM     24  O   LIG A   1      -2.115   4.376 127.513  0.00  0.00    -0.387 OA
ATOM     25  H   LIG A   1      -2.479   3.478 127.421  0.00  0.00    +0.210 HD
ENDBRANCH  21  24
ENDBRANCH  20  21
BRANCH  20  26
ATOM     26  O   LIG A   1      -5.465   5.481 128.515  0.00  0.00    -0.386 OA
ATOM     27  H   LIG A   1      -5.925   6.084 127.899  0.00  0.00    +0.210 HD
ENDBRANCH  20  26
ENDBRANCH  19  20
ENDBRANCH  18  19
ENDBRANCH  12  18
TORSDOF 8
ENDMDL
MODEL 8
REMARK VINA RESULT:      -6.4      2.187      2.804
REMARK  Name = NuBBE_1164
REMARK  12 active torsions:
REMARK  status: ('A' for Active; 'I' for Inactive)
REMARK    1  A    between atoms: O_1  and  C_2
REMARK    2  A    between atoms: O_1  and  C_3
REMARK    3  A    between atoms: C_13  and  O_25
REMARK    4  A    between atoms: C_14  and  O_16
REMARK    5  A    between atoms: O_16  and  C_17
REMARK    6  A    between atoms: C_17  and  C_18
REMARK    7  A    between atoms: C_18  and  C_20
REMARK    8  A    between atoms: C_18  and  O_24
REMARK    9  A    between atoms: C_20  and  C_21
REMARK   10  A    between atoms: C_20  and  C_22
REMARK   11  A    between atoms: C_20  and  O_23
REMARK   12  A    between atoms: O_25  and  C_26
REMARK                            x       y       z     vdW  Elec       q    Type
REMARK                         _______ _______ _______ _____ _____    ______ ____
ROOT
ATOM      1  C   LIG A   1      -5.515   4.686 128.847  0.00  0.00    +0.142 A 
ATOM      2  C   LIG A   1      -6.358   5.042 129.932  0.00  0.00    +0.046 A 
ATOM      3  C   LIG A   1      -5.896   6.029 130.829  0.00  0.00    +0.082 A 
ATOM      4  N   LIG A   1      -4.744   6.680 130.717  0.00  0.00    -0.212 NA
ATOM      5  C   LIG A   1      -3.994   6.327 129.677  0.00  0.00    +0.231 A 
ATOM      6  C   LIG A   1      -4.271   5.350 128.715  0.00  0.00    +0.082 A 
ATOM      7  C   LIG A   1      -3.140   5.365 127.853  0.00  0.00    +0.055 A 
ATOM      8  C   LIG A   1      -2.278   6.323 128.326  0.00  0.00    +0.198 A 
ATOM      9  O   LIG A   1      -2.796   6.915 129.426  0.00  0.00    -0.445 OA
ATOM     10  C   LIG A   1      -6.663   6.369 131.913  0.00  0.00    +0.078 A 
ATOM     11  C   LIG A   1      -7.924   5.814 132.153  0.00  0.00    +0.164 A 
ATOM     12  C   LIG A   1      -8.425   4.862 131.253  0.00  0.00    +0.163 A 
ATOM     13  C   LIG A   1      -7.629   4.461 130.178  0.00  0.00    +0.063 A 
ENDROOT
BRANCH   1  14
ATOM     14  O   LIG A   1      -6.063   3.793 127.928  0.00  0.00    -0.494 OA
ATOM     15  C   LIG A   1      -5.477   2.503 127.864  0.00  0.00    +0.277 C 
ENDBRANCH   1  14
BRANCH  11  16
ATOM     16  O   LIG A   1      -8.685   6.150 133.243  0.00  0.00    -0.491 OA
ATOM     17  C   LIG A   1      -8.115   5.804 134.506  0.00  0.00    +0.277 C 
ENDBRANCH  11  16
BRANCH  12  18
ATOM     18  O   LIG A   1      -9.674   4.343 131.505  0.00  0.00    -0.486 OA
BRANCH  18  19
ATOM     19  C   LIG A   1     -10.647   4.502 130.467  0.00  0.00    +0.263 C 
BRANCH  19  20
ATOM     20  C   LIG A   1     -11.635   5.638 130.789  0.00  0.00    +0.183 C 
BRANCH  20  21
ATOM     21  C   LIG A   1     -11.622   6.863 129.835  0.00  0.00    +0.089 C 
ATOM     22  C   LIG A   1     -12.620   7.959 130.212  0.00  0.00    +0.044 C 
ATOM     23  C   LIG A   1     -10.220   7.462 129.688  0.00  0.00    +0.044 C 
BRANCH  21  24
ATOM     24  O   LIG A   1     -12.025   6.353 128.542  0.00  0.00    -0.387 OA
ATOM     25  H   LIG A   1     -12.904   5.946 128.643  0.00  0.00    +0.210 HD
ENDBRANCH  21  24
ENDBRANCH  20  21
BRANCH  20  26
ATOM     26  O   LIG A   1     -11.449   6.069 132.148  0.00  0.00    -0.386 OA
ATOM     27  H   LIG A   1     -11.229   7.019 132.085  0.00  0.00    +0.210 HD
ENDBRANCH  20  26
ENDBRANCH  19  20
ENDBRANCH  18  19
ENDBRANCH  12  18
TORSDOF 8
ENDMDL
MODEL 9
REMARK VINA RESULT:      -6.3      7.419      9.150
REMARK  Name = NuBBE_1164
REMARK  12 active torsions:
REMARK  status: ('A' for Active; 'I' for Inactive)
REMARK    1  A    between atoms: O_1  and  C_2
REMARK    2  A    between atoms: O_1  and  C_3
REMARK    3  A    between atoms: C_13  and  O_25
REMARK    4  A    between atoms: C_14  and  O_16
REMARK    5  A    between atoms: O_16  and  C_17
REMARK    6  A    between atoms: C_17  and  C_18
REMARK    7  A    between atoms: C_18  and  C_20
REMARK    8  A    between atoms: C_18  and  O_24
REMARK    9  A    between atoms: C_20  and  C_21
REMARK   10  A    between atoms: C_20  and  C_22
REMARK   11  A    between atoms: C_20  and  O_23
REMARK   12  A    between atoms: O_25  and  C_26
REMARK                            x       y       z     vdW  Elec       q    Type
REMARK                         _______ _______ _______ _____ _____    ______ ____
ROOT
ATOM      1  C   LIG A   1      -8.002  -1.749 126.495  0.00  0.00    +0.142 A 
ATOM      2  C   LIG A   1      -8.067  -0.336 126.602  0.00  0.00    +0.046 A 
ATOM      3  C   LIG A   1      -8.657   0.379 125.538  0.00  0.00    +0.082 A 
ATOM      4  N   LIG A   1      -9.190  -0.173 124.454  0.00  0.00    -0.212 NA
ATOM      5  C   LIG A   1      -9.122  -1.500 124.403  0.00  0.00    +0.231 A 
ATOM      6  C   LIG A   1      -8.544  -2.363 125.340  0.00  0.00    +0.082 A 
ATOM      7  C   LIG A   1      -8.727  -3.662 124.791  0.00  0.00    +0.055 A 
ATOM      8  C   LIG A   1      -9.388  -3.512 123.598  0.00  0.00    +0.198 A 
ATOM      9  O   LIG A   1      -9.638  -2.204 123.363  0.00  0.00    -0.445 OA
ATOM     10  C   LIG A   1      -8.700   1.748 125.585  0.00  0.00    +0.078 A 
ATOM     11  C   LIG A   1      -8.226   2.484 126.675  0.00  0.00    +0.164 A 
ATOM     12  C   LIG A   1      -7.674   1.796 127.765  0.00  0.00    +0.163 A 
ATOM     13  C   LIG A   1      -7.567   0.405 127.705  0.00  0.00    +0.063 A 
ENDROOT
BRANCH   1  14
ATOM     14  O   LIG A   1      -7.517  -2.415 127.619  0.00  0.00    -0.494 OA
ATOM     15  C   LIG A   1      -8.423  -3.274 128.293  0.00  0.00    +0.277 C 
ENDBRANCH   1  14
BRANCH  11  16
ATOM     16  O   LIG A   1      -8.262   3.854 126.715  0.00  0.00    -0.491 OA
ATOM     17  C   LIG A   1      -7.888   4.503 125.499  0.00  0.00    +0.277 C 
ENDBRANCH  11  16
BRANCH  12  18
ATOM     18  O   LIG A   1      -7.229   2.543 128.830  0.00  0.00    -0.486 OA
BRANCH  18  19
ATOM     19  C   LIG A   1      -8.233   3.026 129.730  0.00  0.00    +0.263 C 
BRANCH  19  20
ATOM     20  C   LIG A   1      -8.042   4.521 130.040  0.00  0.00    +0.183 C 
BRANCH  20  21
ATOM     21  C   LIG A   1      -9.302   5.421 129.932  0.00  0.00    +0.089 C 
ATOM     22  C   LIG A   1     -10.602   4.729 130.347  0.00  0.00    +0.044 C 
ATOM     23  C   LIG A   1      -9.140   6.733 130.706  0.00  0.00    +0.044 C 
BRANCH  21  24
ATOM     24  O   LIG A   1      -9.428   5.746 128.528  0.00  0.00    -0.387 OA
ATOM     25  H   LIG A   1      -8.574   6.102 128.226  0.00  0.00    +0.210 HD
ENDBRANCH  21  24
ENDBRANCH  20  21
BRANCH  20  26
ATOM     26  O   LIG A   1      -6.984   5.053 129.223  0.00  0.00    -0.386 OA
ATOM     27  H   LIG A   1      -6.281   5.307 129.852  0.00  0.00    +0.210 HD
ENDBRANCH  20  26
ENDBRANCH  19  20
ENDBRANCH  18  19
ENDBRANCH  12  18
TORSDOF 8
ENDMDL
