MODEL 1
REMARK VINA RESULT:      -8.3      0.000      0.000
REMARK  Name = NuBBE_1487
REMARK  17 active torsions:
REMARK  status: ('A' for Active; 'I' for Inactive)
REMARK    1  A    between atoms: C_1  and  C_2
REMARK    2  A    between atoms: C_5  and  C_6
REMARK    3  A    between atoms: C_6  and  C_7
REMARK    4  A    between atoms: C_8  and  C_16
REMARK    5  A    between atoms: C_9  and  C_10
REMARK    6  A    between atoms: C_9  and  C_15
REMARK    7  A    between atoms: C_16  and  C_17
REMARK    8  A    between atoms: C_17  and  O_18
REMARK    9  A    between atoms: O_18  and  C_19
REMARK   10  A    between atoms: C_21  and  O_22
REMARK   11  A    between atoms: O_22  and  C_23
REMARK   12  A    between atoms: C_23  and  C_24
REMARK   13  A    between atoms: C_26  and  O_27
REMARK   14  A    between atoms: O_27  and  C_28
REMARK   15  A    between atoms: C_28  and  C_29
REMARK   16  A    between atoms: C_34  and  C_35
REMARK   17  A    between atoms: C_37  and  O_38
REMARK                            x       y       z     vdW  Elec       q    Type
REMARK                         _______ _______ _______ _____ _____    ______ ____
ROOT
ATOM      1  C   LIG A   1      -4.912   1.842 125.932  0.00  0.00    +0.019 C 
ATOM      2  C   LIG A   1      -6.429   1.427 125.728  0.00  0.00    +0.051 C 
ATOM      3  C   LIG A   1      -7.328   2.145 126.761  0.00  0.00    +0.127 C 
ATOM      4  C   LIG A   1      -7.714   1.515 128.064  0.00  0.00    -0.035 C 
ATOM      5  C   LIG A   1      -7.300   0.062 128.364  0.00  0.00    +0.072 C 
ATOM      6  C   LIG A   1      -7.283  -0.736 127.015  0.00  0.00    +0.225 C 
ATOM      7  C   LIG A   1      -6.405  -0.117 125.897  0.00  0.00    +0.227 C 
ATOM      8  C   LIG A   1      -8.779   2.001 128.745  0.00  0.00    +0.011 C 
ATOM      9  C   LIG A   1      -7.334   3.577 126.279  0.00  0.00    +0.157 C 
ATOM     10  C   LIG A   1      -6.798   3.687 124.862  0.00  0.00    +0.044 C 
ATOM     11  C   LIG A   1      -6.816   2.175 124.363  0.00  0.00    +0.041 C 
ATOM     12  O   LIG A   1      -8.520   2.844 126.218  0.00  0.00    -0.359 OA
ENDROOT
BRANCH   5  13
ATOM     13  C   LIG A   1      -6.120  -0.217 129.404  0.00  0.00    +0.001 C 
ATOM     14  C   LIG A   1      -5.218  -1.325 128.800  0.00  0.00    +0.016 C 
ATOM     15  C   LIG A   1      -6.586  -0.701 130.870  0.00  0.00    +0.023 C 
ATOM     16  C   LIG A   1      -6.975   0.494 131.882  0.00  0.00    +0.032 C 
ATOM     17  C   LIG A   1      -8.479   0.779 132.095  0.00  0.00    +0.019 C 
ATOM     18  C   LIG A   1      -6.329   1.835 131.500  0.00  0.00    +0.162 C 
ATOM     19  C   LIG A   1      -5.227   1.852 130.532  0.00  0.00    +0.043 C 
ATOM     20  C   LIG A   1      -5.165   0.932 129.570  0.00  0.00    -0.016 C 
ATOM     21  O   LIG A   1      -6.639   2.905 132.024  0.00  0.00    -0.292 OA
ATOM     22  C   LIG A   1      -6.374   0.188 133.281  0.00  0.00    +0.019 C 
BRANCH  15  23
ATOM     23  C   LIG A   1      -7.554  -1.935 130.895  0.00  0.00    +0.126 C 
BRANCH  23  24
ATOM     24  C   LIG A   1      -7.037  -3.279 131.455  0.00  0.00    +0.307 C 
ATOM     25  O   LIG A   1      -6.890  -3.600 132.607  0.00  0.00    -0.251 OA
BRANCH  24  26
ATOM     26  O   LIG A   1      -6.641  -4.089 130.428  0.00  0.00    -0.468 OA
ATOM     27  C   LIG A   1      -5.438  -4.799 130.747  0.00  0.00    +0.280 C 
ENDBRANCH  24  26
ENDBRANCH  23  24
ENDBRANCH  15  23
ENDBRANCH   5  13
BRANCH  11  28
ATOM     28  C   LIG A   1      -8.123   1.871 123.663  0.00  0.00    +0.042 C 
ATOM     29  C   LIG A   1      -9.148   1.067 123.940  0.00  0.00    +0.057 C 
ATOM     30  C   LIG A   1     -10.219   1.163 122.941  0.00  0.00    +0.334 C 
ATOM     31  O   LIG A   1      -9.738   2.101 121.999  0.00  0.00    -0.428 OA
ATOM     32  C   LIG A   1      -8.532   2.566 122.423  0.00  0.00    +0.338 C 
ATOM     33  O   LIG A   1      -7.881   3.427 121.856  0.00  0.00    -0.245 OA
BRANCH  30  34
ATOM     34  O   LIG A   1     -10.434  -0.104 122.350  0.00  0.00    -0.354 OA
ATOM     35  H   LIG A   1     -10.389   0.012 121.388  0.00  0.00    +0.214 HD
ENDBRANCH  30  34
ENDBRANCH  11  28
BRANCH   6  36
ATOM     36  O   LIG A   1      -8.663  -0.859 126.576  0.00  0.00    -0.457 OA
BRANCH  36  37
ATOM     37  C   LIG A   1      -9.077  -2.112 126.232  0.00  0.00    +0.304 C 
ATOM     38  C   LIG A   1      -8.521  -3.111 127.196  0.00  0.00    +0.136 C 
ATOM     39  O   LIG A   1      -9.732  -2.399 125.241  0.00  0.00    -0.251 OA
ENDBRANCH  36  37
ENDBRANCH   6  36
BRANCH   7  40
ATOM     40  O   LIG A   1      -6.600  -0.849 124.672  0.00  0.00    -0.457 OA
BRANCH  40  41
ATOM     41  C   LIG A   1      -5.823  -1.971 124.556  0.00  0.00    +0.304 C 
ATOM     42  C   LIG A   1      -5.731  -2.382 123.121  0.00  0.00    +0.136 C 
ATOM     43  O   LIG A   1      -5.339  -2.603 125.484  0.00  0.00    -0.251 OA
ENDBRANCH  40  41
ENDBRANCH   7  40
TORSDOF 10
ENDMDL
MODEL 2
REMARK VINA RESULT:      -8.1      1.998      8.270
REMARK  Name = NuBBE_1487
REMARK  17 active torsions:
REMARK  status: ('A' for Active; 'I' for Inactive)
REMARK    1  A    between atoms: C_1  and  C_2
REMARK    2  A    between atoms: C_5  and  C_6
REMARK    3  A    between atoms: C_6  and  C_7
REMARK    4  A    between atoms: C_8  and  C_16
REMARK    5  A    between atoms: C_9  and  C_10
REMARK    6  A    between atoms: C_9  and  C_15
REMARK    7  A    between atoms: C_16  and  C_17
REMARK    8  A    between atoms: C_17  and  O_18
REMARK    9  A    between atoms: O_18  and  C_19
REMARK   10  A    between atoms: C_21  and  O_22
REMARK   11  A    between atoms: O_22  and  C_23
REMARK   12  A    between atoms: C_23  and  C_24
REMARK   13  A    between atoms: C_26  and  O_27
REMARK   14  A    between atoms: O_27  and  C_28
REMARK   15  A    between atoms: C_28  and  C_29
REMARK   16  A    between atoms: C_34  and  C_35
REMARK   17  A    between atoms: C_37  and  O_38
REMARK                            x       y       z     vdW  Elec       q    Type
REMARK                         _______ _______ _______ _____ _____    ______ ____
ROOT
ATOM      1  C   LIG A   1      -3.895  -1.963 129.733  0.00  0.00    +0.019 C 
ATOM      2  C   LIG A   1      -5.283  -1.980 130.499  0.00  0.00    +0.051 C 
ATOM      3  C   LIG A   1      -6.245  -3.003 129.850  0.00  0.00    +0.127 C 
ATOM      4  C   LIG A   1      -7.245  -2.612 128.806  0.00  0.00    -0.035 C 
ATOM      5  C   LIG A   1      -7.413  -1.129 128.424  0.00  0.00    +0.072 C 
ATOM      6  C   LIG A   1      -7.139  -0.255 129.696  0.00  0.00    +0.225 C 
ATOM      7  C   LIG A   1      -5.775  -0.511 130.386  0.00  0.00    +0.227 C 
ATOM      8  C   LIG A   1      -8.293  -3.431 128.553  0.00  0.00    +0.011 C 
ATOM      9  C   LIG A   1      -5.656  -4.334 130.251  0.00  0.00    +0.157 C 
ATOM     10  C   LIG A   1      -4.634  -4.177 131.363  0.00  0.00    +0.044 C 
ATOM     11  C   LIG A   1      -4.909  -2.698 131.884  0.00  0.00    +0.041 C 
ATOM     12  O   LIG A   1      -6.896  -3.966 130.773  0.00  0.00    -0.359 OA
ENDROOT
BRANCH   5  13
ATOM     13  C   LIG A   1      -6.831  -0.609 127.030  0.00  0.00    +0.001 C 
ATOM     14  C   LIG A   1      -6.206   0.789 127.278  0.00  0.00    +0.016 C 
ATOM     15  C   LIG A   1      -7.906  -0.468 125.837  0.00  0.00    +0.023 C 
ATOM     16  C   LIG A   1      -8.191  -1.832 125.022  0.00  0.00    +0.032 C 
ATOM     17  C   LIG A   1      -9.485  -2.602 125.365  0.00  0.00    +0.019 C 
ATOM     18  C   LIG A   1      -7.040  -2.845 125.132  0.00  0.00    +0.162 C 
ATOM     19  C   LIG A   1      -5.737  -2.400 125.635  0.00  0.00    +0.043 C 
ATOM     20  C   LIG A   1      -5.662  -1.405 126.519  0.00  0.00    -0.016 C 
ATOM     21  O   LIG A   1      -7.130  -4.010 124.745  0.00  0.00    -0.292 OA
ATOM     22  C   LIG A   1      -8.248  -1.512 123.504  0.00  0.00    +0.019 C 
BRANCH  15  23
ATOM     23  C   LIG A   1      -9.179   0.383 126.175  0.00  0.00    +0.126 C 
BRANCH  23  24
ATOM     24  C   LIG A   1      -9.781   1.294 125.083  0.00  0.00    +0.307 C 
ATOM     25  O   LIG A   1     -10.610   1.017 124.253  0.00  0.00    -0.251 OA
BRANCH  24  26
ATOM     26  O   LIG A   1      -9.156   2.509 125.095  0.00  0.00    -0.468 OA
ATOM     27  C   LIG A   1      -8.602   2.832 123.813  0.00  0.00    +0.280 C 
ENDBRANCH  24  26
ENDBRANCH  23  24
ENDBRANCH  15  23
ENDBRANCH   5  13
BRANCH  11  28
ATOM     28  C   LIG A   1      -5.898  -2.723 133.030  0.00  0.00    +0.042 C 
ATOM     29  C   LIG A   1      -6.944  -3.494 133.322  0.00  0.00    +0.057 C 
ATOM     30  C   LIG A   1      -7.569  -3.127 134.599  0.00  0.00    +0.334 C 
ATOM     31  O   LIG A   1      -6.807  -2.028 135.059  0.00  0.00    -0.428 OA
ATOM     32  C   LIG A   1      -5.792  -1.801 134.181  0.00  0.00    +0.338 C 
ATOM     33  O   LIG A   1      -4.928  -0.955 134.322  0.00  0.00    -0.245 OA
BRANCH  30  34
ATOM     34  O   LIG A   1      -8.920  -2.769 134.384  0.00  0.00    -0.354 OA
ATOM     35  H   LIG A   1      -8.925  -1.907 133.938  0.00  0.00    +0.214 HD
ENDBRANCH  30  34
ENDBRANCH  11  28
BRANCH   6  36
ATOM     36  O   LIG A   1      -8.235  -0.495 130.620  0.00  0.00    -0.457 OA
BRANCH  36  37
ATOM     37  C   LIG A   1      -8.965   0.598 130.987  0.00  0.00    +0.304 C 
ATOM     38  C   LIG A   1      -8.602   1.762 130.121  0.00  0.00    +0.136 C 
ATOM     39  O   LIG A   1      -9.738   0.654 131.932  0.00  0.00    -0.251 OA
ENDBRANCH  36  37
ENDBRANCH   6  36
BRANCH   7  40
ATOM     40  O   LIG A   1      -5.714   0.229 131.621  0.00  0.00    -0.457 OA
BRANCH  40  41
ATOM     41  C   LIG A   1      -5.313   1.531 131.478  0.00  0.00    +0.304 C 
ATOM     42  C   LIG A   1      -4.226   1.621 130.455  0.00  0.00    +0.136 C 
ATOM     43  O   LIG A   1      -5.714   2.479 132.139  0.00  0.00    -0.251 OA
ENDBRANCH  40  41
ENDBRANCH   7  40
TORSDOF 10
ENDMDL
MODEL 3
REMARK VINA RESULT:      -7.9      2.875      7.055
REMARK  Name = NuBBE_1487
REMARK  17 active torsions:
REMARK  status: ('A' for Active; 'I' for Inactive)
REMARK    1  A    between atoms: C_1  and  C_2
REMARK    2  A    between atoms: C_5  and  C_6
REMARK    3  A    between atoms: C_6  and  C_7
REMARK    4  A    between atoms: C_8  and  C_16
REMARK    5  A    between atoms: C_9  and  C_10
REMARK    6  A    between atoms: C_9  and  C_15
REMARK    7  A    between atoms: C_16  and  C_17
REMARK    8  A    between atoms: C_17  and  O_18
REMARK    9  A    between atoms: O_18  and  C_19
REMARK   10  A    between atoms: C_21  and  O_22
REMARK   11  A    between atoms: O_22  and  C_23
REMARK   12  A    between atoms: C_23  and  C_24
REMARK   13  A    between atoms: C_26  and  O_27
REMARK   14  A    between atoms: O_27  and  C_28
REMARK   15  A    between atoms: C_28  and  C_29
REMARK   16  A    between atoms: C_34  and  C_35
REMARK   17  A    between atoms: C_37  and  O_38
REMARK                            x       y       z     vdW  Elec       q    Type
REMARK                         _______ _______ _______ _____ _____    ______ ____
ROOT
ATOM      1  C   LIG A   1      -5.741   2.417 130.957  0.00  0.00    +0.019 C 
ATOM      2  C   LIG A   1      -6.787   3.299 130.156  0.00  0.00    +0.051 C 
ATOM      3  C   LIG A   1      -7.930   2.415 129.606  0.00  0.00    +0.127 C 
ATOM      4  C   LIG A   1      -7.907   1.844 128.221  0.00  0.00    -0.035 C 
ATOM      5  C   LIG A   1      -6.767   2.222 127.256  0.00  0.00    +0.072 C 
ATOM      6  C   LIG A   1      -6.321   3.692 127.569  0.00  0.00    +0.225 C 
ATOM      7  C   LIG A   1      -5.925   3.958 129.044  0.00  0.00    +0.227 C 
ATOM      8  C   LIG A   1      -9.063   1.413 127.663  0.00  0.00    +0.011 C 
ATOM      9  C   LIG A   1      -8.716   2.055 130.844  0.00  0.00    +0.157 C 
ATOM     10  C   LIG A   1      -8.330   2.935 132.021  0.00  0.00    +0.044 C 
ATOM     11  C   LIG A   1      -7.523   4.117 131.324  0.00  0.00    +0.041 C 
ATOM     12  O   LIG A   1      -9.311   2.879 129.888  0.00  0.00    -0.359 OA
ENDROOT
BRANCH   5  13
ATOM     13  C   LIG A   1      -5.623   1.154 126.938  0.00  0.00    +0.001 C 
ATOM     14  C   LIG A   1      -4.432   1.919 126.305  0.00  0.00    +0.016 C 
ATOM     15  C   LIG A   1      -6.042  -0.034 125.932  0.00  0.00    +0.023 C 
ATOM     16  C   LIG A   1      -6.786  -1.282 126.634  0.00  0.00    +0.032 C 
ATOM     17  C   LIG A   1      -8.322  -1.359 126.495  0.00  0.00    +0.019 C 
ATOM     18  C   LIG A   1      -6.480  -1.392 128.136  0.00  0.00    +0.162 C 
ATOM     19  C   LIG A   1      -5.359  -0.630 128.699  0.00  0.00    +0.043 C 
ATOM     20  C   LIG A   1      -5.004   0.537 128.162  0.00  0.00    -0.016 C 
ATOM     21  O   LIG A   1      -7.084  -2.153 128.893  0.00  0.00    -0.292 OA
ATOM     22  C   LIG A   1      -6.216  -2.604 126.051  0.00  0.00    +0.019 C 
BRANCH  15  23
ATOM     23  C   LIG A   1      -6.663   0.428 124.567  0.00  0.00    +0.126 C 
BRANCH  23  24
ATOM     24  C   LIG A   1      -6.927  -0.627 123.471  0.00  0.00    +0.307 C 
ATOM     25  O   LIG A   1      -6.128  -1.320 122.893  0.00  0.00    -0.251 OA
BRANCH  24  26
ATOM     26  O   LIG A   1      -8.251  -0.620 123.130  0.00  0.00    -0.468 OA
ATOM     27  C   LIG A   1      -8.741  -1.945 122.885  0.00  0.00    +0.280 C 
ENDBRANCH  24  26
ENDBRANCH  23  24
ENDBRANCH  15  23
ENDBRANCH   5  13
BRANCH  11  28
ATOM     28  C   LIG A   1      -8.454   5.262 130.993  0.00  0.00    +0.042 C 
ATOM     29  C   LIG A   1      -9.012   5.694 129.864  0.00  0.00    +0.057 C 
ATOM     30  C   LIG A   1      -9.890   6.851 130.081  0.00  0.00    +0.334 C 
ATOM     31  O   LIG A   1      -9.799   7.104 131.470  0.00  0.00    -0.428 OA
ATOM     32  C   LIG A   1      -9.001   6.158 132.035  0.00  0.00    +0.338 C 
ATOM     33  O   LIG A   1      -8.767   6.070 133.227  0.00  0.00    -0.245 OA
BRANCH  30  34
ATOM     34  O   LIG A   1      -9.427   7.950 129.322  0.00  0.00    -0.354 OA
ATOM     35  H   LIG A   1      -8.464   7.994 129.428  0.00  0.00    +0.214 HD
ENDBRANCH  30  34
ENDBRANCH  11  28
BRANCH   6  36
ATOM     36  O   LIG A   1      -7.412   4.563 127.165  0.00  0.00    -0.457 OA
BRANCH  36  37
ATOM     37  C   LIG A   1      -7.659   4.639 125.825  0.00  0.00    +0.304 C 
ATOM     38  C   LIG A   1      -6.420   5.071 125.107  0.00  0.00    +0.136 C 
ATOM     39  O   LIG A   1      -8.743   4.466 125.289  0.00  0.00    -0.251 OA
ENDBRANCH  36  37
ENDBRANCH   6  36
BRANCH   7  40
ATOM     40  O   LIG A   1      -5.692   5.367 129.233  0.00  0.00    -0.457 OA
BRANCH  40  41
ATOM     41  C   LIG A   1      -4.439   5.785 128.870  0.00  0.00    +0.304 C 
ATOM     42  C   LIG A   1      -3.405   5.010 129.623  0.00  0.00    +0.136 C 
ATOM     43  O   LIG A   1      -4.187   6.709 128.109  0.00  0.00    -0.251 OA
ENDBRANCH  40  41
ENDBRANCH   7  40
TORSDOF 10
ENDMDL
MODEL 4
REMARK VINA RESULT:      -7.6      2.922      6.413
REMARK  Name = NuBBE_1487
REMARK  17 active torsions:
REMARK  status: ('A' for Active; 'I' for Inactive)
REMARK    1  A    between atoms: C_1  and  C_2
REMARK    2  A    between atoms: C_5  and  C_6
REMARK    3  A    between atoms: C_6  and  C_7
REMARK    4  A    between atoms: C_8  and  C_16
REMARK    5  A    between atoms: C_9  and  C_10
REMARK    6  A    between atoms: C_9  and  C_15
REMARK    7  A    between atoms: C_16  and  C_17
REMARK    8  A    between atoms: C_17  and  O_18
REMARK    9  A    between atoms: O_18  and  C_19
REMARK   10  A    between atoms: C_21  and  O_22
REMARK   11  A    between atoms: O_22  and  C_23
REMARK   12  A    between atoms: C_23  and  C_24
REMARK   13  A    between atoms: C_26  and  O_27
REMARK   14  A    between atoms: O_27  and  C_28
REMARK   15  A    between atoms: C_28  and  C_29
REMARK   16  A    between atoms: C_34  and  C_35
REMARK   17  A    between atoms: C_37  and  O_38
REMARK                            x       y       z     vdW  Elec       q    Type
REMARK                         _______ _______ _______ _____ _____    ______ ____
ROOT
ATOM      1  C   LIG A   1      -5.867   3.818 133.316  0.00  0.00    +0.019 C 
ATOM      2  C   LIG A   1      -6.994   3.926 132.207  0.00  0.00    +0.051 C 
ATOM      3  C   LIG A   1      -8.116   2.896 132.475  0.00  0.00    +0.127 C 
ATOM      4  C   LIG A   1      -8.131   1.542 131.836  0.00  0.00    -0.035 C 
ATOM      5  C   LIG A   1      -7.061   1.177 130.790  0.00  0.00    +0.072 C 
ATOM      6  C   LIG A   1      -6.676   2.476 130.001  0.00  0.00    +0.225 C 
ATOM      7  C   LIG A   1      -6.223   3.668 130.883  0.00  0.00    +0.227 C 
ATOM      8  C   LIG A   1      -9.290   0.841 131.795  0.00  0.00    +0.011 C 
ATOM      9  C   LIG A   1      -8.821   3.460 133.686  0.00  0.00    +0.157 C 
ATOM     10  C   LIG A   1      -8.424   4.905 133.936  0.00  0.00    +0.044 C 
ATOM     11  C   LIG A   1      -7.712   5.313 132.571  0.00  0.00    +0.041 C 
ATOM     12  O   LIG A   1      -9.504   3.423 132.469  0.00  0.00    -0.359 OA
ENDROOT
BRANCH   5  13
ATOM     13  C   LIG A   1      -5.881   0.179 131.192  0.00  0.00    +0.001 C 
ATOM     14  C   LIG A   1      -4.540   0.881 130.854  0.00  0.00    +0.016 C 
ATOM     15  C   LIG A   1      -5.895  -1.251 130.446  0.00  0.00    +0.023 C 
ATOM     16  C   LIG A   1      -6.846  -2.359 131.132  0.00  0.00    +0.032 C 
ATOM     17  C   LIG A   1      -8.221  -2.615 130.475  0.00  0.00    +0.019 C 
ATOM     18  C   LIG A   1      -7.121  -2.075 132.617  0.00  0.00    +0.162 C 
ATOM     19  C   LIG A   1      -6.291  -1.096 133.327  0.00  0.00    +0.043 C 
ATOM     20  C   LIG A   1      -5.761  -0.064 132.671  0.00  0.00    -0.016 C 
ATOM     21  O   LIG A   1      -7.964  -2.686 133.275  0.00  0.00    -0.292 OA
ATOM     22  C   LIG A   1      -6.101  -3.721 131.156  0.00  0.00    +0.019 C 
BRANCH  15  23
ATOM     23  C   LIG A   1      -5.964  -1.192 128.880  0.00  0.00    +0.126 C 
BRANCH  23  24
ATOM     24  C   LIG A   1      -5.175  -2.234 128.058  0.00  0.00    +0.307 C 
ATOM     25  O   LIG A   1      -4.246  -2.917 128.410  0.00  0.00    -0.251 OA
BRANCH  24  26
ATOM     26  O   LIG A   1      -5.609  -2.228 126.762  0.00  0.00    -0.468 OA
ATOM     27  C   LIG A   1      -7.035  -2.104 126.682  0.00  0.00    +0.280 C 
ENDBRANCH  24  26
ENDBRANCH  23  24
ENDBRANCH  15  23
ENDBRANCH   5  13
BRANCH  11  28
ATOM     28  C   LIG A   1      -8.717   5.933 131.624  0.00  0.00    +0.042 C 
ATOM     29  C   LIG A   1     -10.021   5.755 131.425  0.00  0.00    +0.057 C 
ATOM     30  C   LIG A   1     -10.555   6.648 130.388  0.00  0.00    +0.334 C 
ATOM     31  O   LIG A   1      -9.432   7.387 129.950  0.00  0.00    -0.428 OA
ATOM     32  C   LIG A   1      -8.351   7.020 130.691  0.00  0.00    +0.338 C 
ATOM     33  O   LIG A   1      -7.242   7.514 130.591  0.00  0.00    -0.245 OA
BRANCH  30  34
ATOM     34  O   LIG A   1     -11.114   5.881 129.340  0.00  0.00    -0.354 OA
ATOM     35  H   LIG A   1     -12.017   6.204 129.191  0.00  0.00    +0.214 HD
ENDBRANCH  30  34
ENDBRANCH  11  28
BRANCH   6  36
ATOM     36  O   LIG A   1      -7.828   2.842 129.196  0.00  0.00    -0.457 OA
BRANCH  36  37
ATOM     37  C   LIG A   1      -7.952   2.206 127.995  0.00  0.00    +0.304 C 
ATOM     38  C   LIG A   1      -6.627   2.174 127.302  0.00  0.00    +0.136 C 
ATOM     39  O   LIG A   1      -8.996   1.797 127.510  0.00  0.00    -0.251 OA
ENDBRANCH  36  37
ENDBRANCH   6  36
BRANCH   7  40
ATOM     40  O   LIG A   1      -6.053   4.838 130.060  0.00  0.00    -0.457 OA
BRANCH  40  41
ATOM     41  C   LIG A   1      -4.897   4.849 129.326  0.00  0.00    +0.304 C 
ATOM     42  C   LIG A   1      -3.736   4.492 130.199  0.00  0.00    +0.136 C 
ATOM     43  O   LIG A   1      -4.798   5.179 128.153  0.00  0.00    -0.251 OA
ENDBRANCH  40  41
ENDBRANCH   7  40
TORSDOF 10
ENDMDL
MODEL 5
REMARK VINA RESULT:      -7.6      2.244      8.399
REMARK  Name = NuBBE_1487
REMARK  17 active torsions:
REMARK  status: ('A' for Active; 'I' for Inactive)
REMARK    1  A    between atoms: C_1  and  C_2
REMARK    2  A    between atoms: C_5  and  C_6
REMARK    3  A    between atoms: C_6  and  C_7
REMARK    4  A    between atoms: C_8  and  C_16
REMARK    5  A    between atoms: C_9  and  C_10
REMARK    6  A    between atoms: C_9  and  C_15
REMARK    7  A    between atoms: C_16  and  C_17
REMARK    8  A    between atoms: C_17  and  O_18
REMARK    9  A    between atoms: O_18  and  C_19
REMARK   10  A    between atoms: C_21  and  O_22
REMARK   11  A    between atoms: O_22  and  C_23
REMARK   12  A    between atoms: C_23  and  C_24
REMARK   13  A    between atoms: C_26  and  O_27
REMARK   14  A    between atoms: O_27  and  C_28
REMARK   15  A    between atoms: C_28  and  C_29
REMARK   16  A    between atoms: C_34  and  C_35
REMARK   17  A    between atoms: C_37  and  O_38
REMARK                            x       y       z     vdW  Elec       q    Type
REMARK                         _______ _______ _______ _____ _____    ______ ____
ROOT
ATOM      1  C   LIG A   1      -3.823  -2.026 130.579  0.00  0.00    +0.019 C 
ATOM      2  C   LIG A   1      -5.297  -2.097 131.159  0.00  0.00    +0.051 C 
ATOM      3  C   LIG A   1      -6.283  -2.584 130.071  0.00  0.00    +0.127 C 
ATOM      4  C   LIG A   1      -7.061  -1.636 129.212  0.00  0.00    -0.035 C 
ATOM      5  C   LIG A   1      -6.973  -0.120 129.471  0.00  0.00    +0.072 C 
ATOM      6  C   LIG A   1      -6.773   0.109 131.009  0.00  0.00    +0.225 C 
ATOM      7  C   LIG A   1      -5.568  -0.642 131.632  0.00  0.00    +0.227 C 
ATOM      8  C   LIG A   1      -8.161  -2.082 128.561  0.00  0.00    +0.011 C 
ATOM      9  C   LIG A   1      -5.940  -4.047 129.924  0.00  0.00    +0.157 C 
ATOM     10  C   LIG A   1      -5.077  -4.533 131.076  0.00  0.00    +0.044 C 
ATOM     11  C   LIG A   1      -5.226  -3.362 132.143  0.00  0.00    +0.041 C 
ATOM     12  O   LIG A   1      -7.183  -3.700 130.456  0.00  0.00    -0.359 OA
ENDROOT
BRANCH   5  13
ATOM     13  C   LIG A   1      -6.133   0.799 128.470  0.00  0.00    +0.001 C 
ATOM     14  C   LIG A   1      -5.132   1.623 129.322  0.00  0.00    +0.016 C 
ATOM     15  C   LIG A   1      -6.996   1.830 127.582  0.00  0.00    +0.023 C 
ATOM     16  C   LIG A   1      -7.612   1.202 126.228  0.00  0.00    +0.032 C 
ATOM     17  C   LIG A   1      -9.107   0.814 126.246  0.00  0.00    +0.019 C 
ATOM     18  C   LIG A   1      -6.846  -0.039 125.743  0.00  0.00    +0.162 C 
ATOM     19  C   LIG A   1      -5.521  -0.329 126.301  0.00  0.00    +0.043 C 
ATOM     20  C   LIG A   1      -5.225   0.030 127.550  0.00  0.00    -0.016 C 
ATOM     21  O   LIG A   1      -7.256  -0.774 124.844  0.00  0.00    -0.292 OA
ATOM     22  C   LIG A   1      -7.426   2.218 125.069  0.00  0.00    +0.019 C 
BRANCH  15  23
ATOM     23  C   LIG A   1      -7.970   2.760 128.386  0.00  0.00    +0.126 C 
BRANCH  23  24
ATOM     24  C   LIG A   1      -7.878   4.288 128.187  0.00  0.00    +0.307 C 
ATOM     25  O   LIG A   1      -8.646   5.014 127.606  0.00  0.00    -0.251 OA
BRANCH  24  26
ATOM     26  O   LIG A   1      -6.696   4.753 128.691  0.00  0.00    -0.468 OA
ATOM     27  C   LIG A   1      -6.789   5.024 130.096  0.00  0.00    +0.280 C 
ENDBRANCH  24  26
ENDBRANCH  23  24
ENDBRANCH  15  23
ENDBRANCH   5  13
BRANCH  11  28
ATOM     28  C   LIG A   1      -6.364  -3.663 133.094  0.00  0.00    +0.042 C 
ATOM     29  C   LIG A   1      -7.566  -3.123 133.286  0.00  0.00    +0.057 C 
ATOM     30  C   LIG A   1      -8.330  -3.817 134.331  0.00  0.00    +0.334 C 
ATOM     31  O   LIG A   1      -7.459  -4.836 134.783  0.00  0.00    -0.428 OA
ATOM     32  C   LIG A   1      -6.318  -4.797 134.042  0.00  0.00    +0.338 C 
ATOM     33  O   LIG A   1      -5.392  -5.580 134.152  0.00  0.00    -0.245 OA
BRANCH  30  34
ATOM     34  O   LIG A   1      -8.652  -2.911 135.367  0.00  0.00    -0.354 OA
ATOM     35  H   LIG A   1      -8.055  -2.151 135.286  0.00  0.00    +0.214 HD
ENDBRANCH  30  34
ENDBRANCH  11  28
BRANCH   6  36
ATOM     36  O   LIG A   1      -8.012  -0.277 131.661  0.00  0.00    -0.457 OA
BRANCH  36  37
ATOM     37  C   LIG A   1      -8.888   0.732 131.938  0.00  0.00    +0.304 C 
ATOM     38  C   LIG A   1      -8.135   1.952 132.364  0.00  0.00    +0.136 C 
ATOM     39  O   LIG A   1     -10.106   0.641 131.927  0.00  0.00    -0.251 OA
ENDBRANCH  36  37
ENDBRANCH   6  36
BRANCH   7  40
ATOM     40  O   LIG A   1      -5.588  -0.479 133.063  0.00  0.00    -0.457 OA
BRANCH  40  41
ATOM     41  C   LIG A   1      -4.375  -0.157 133.611  0.00  0.00    +0.304 C 
ATOM     42  C   LIG A   1      -3.866   1.115 133.011  0.00  0.00    +0.136 C 
ATOM     43  O   LIG A   1      -3.748  -0.839 134.410  0.00  0.00    -0.251 OA
ENDBRANCH  40  41
ENDBRANCH   7  40
TORSDOF 10
ENDMDL
MODEL 6
REMARK VINA RESULT:      -7.5      2.614      8.307
REMARK  Name = NuBBE_1487
REMARK  17 active torsions:
REMARK  status: ('A' for Active; 'I' for Inactive)
REMARK    1  A    between atoms: C_1  and  C_2
REMARK    2  A    between atoms: C_5  and  C_6
REMARK    3  A    between atoms: C_6  and  C_7
REMARK    4  A    between atoms: C_8  and  C_16
REMARK    5  A    between atoms: C_9  and  C_10
REMARK    6  A    between atoms: C_9  and  C_15
REMARK    7  A    between atoms: C_16  and  C_17
REMARK    8  A    between atoms: C_17  and  O_18
REMARK    9  A    between atoms: O_18  and  C_19
REMARK   10  A    between atoms: C_21  and  O_22
REMARK   11  A    between atoms: O_22  and  C_23
REMARK   12  A    between atoms: C_23  and  C_24
REMARK   13  A    between atoms: C_26  and  O_27
REMARK   14  A    between atoms: O_27  and  C_28
REMARK   15  A    between atoms: C_28  and  C_29
REMARK   16  A    between atoms: C_34  and  C_35
REMARK   17  A    between atoms: C_37  and  O_38
REMARK                            x       y       z     vdW  Elec       q    Type
REMARK                         _______ _______ _______ _____ _____    ______ ____
ROOT
ATOM      1  C   LIG A   1      -3.927   3.107 129.830  0.00  0.00    +0.019 C 
ATOM      2  C   LIG A   1      -5.419   3.306 130.328  0.00  0.00    +0.051 C 
ATOM      3  C   LIG A   1      -6.237   2.011 130.116  0.00  0.00    +0.127 C 
ATOM      4  C   LIG A   1      -7.066   1.778 128.891  0.00  0.00    -0.035 C 
ATOM      5  C   LIG A   1      -7.210   2.895 127.840  0.00  0.00    +0.072 C 
ATOM      6  C   LIG A   1      -7.169   4.277 128.578  0.00  0.00    +0.225 C 
ATOM      7  C   LIG A   1      -5.926   4.503 129.477  0.00  0.00    +0.227 C 
ATOM      8  C   LIG A   1      -8.038   0.835 128.918  0.00  0.00    +0.011 C 
ATOM      9  C   LIG A   1      -5.684   1.077 131.166  0.00  0.00    +0.157 C 
ATOM     10  C   LIG A   1      -4.858   1.828 132.196  0.00  0.00    +0.044 C 
ATOM     11  C   LIG A   1      -5.254   3.346 131.923  0.00  0.00    +0.041 C 
ATOM     12  O   LIG A   1      -7.002   1.520 131.289  0.00  0.00    -0.359 OA
ENDROOT
BRANCH   5  13
ATOM     13  C   LIG A   1      -6.426   2.772 126.454  0.00  0.00    +0.001 C 
ATOM     14  C   LIG A   1      -6.097   4.210 125.975  0.00  0.00    +0.016 C 
ATOM     15  C   LIG A   1      -7.223   2.024 125.268  0.00  0.00    +0.023 C 
ATOM     16  C   LIG A   1      -7.106   0.415 125.289  0.00  0.00    +0.032 C 
ATOM     17  C   LIG A   1      -8.308  -0.374 125.856  0.00  0.00    +0.019 C 
ATOM     18  C   LIG A   1      -5.864  -0.085 126.043  0.00  0.00    +0.162 C 
ATOM     19  C   LIG A   1      -4.788   0.860 126.360  0.00  0.00    +0.043 C 
ATOM     20  C   LIG A   1      -5.064   2.146 126.573  0.00  0.00    -0.016 C 
ATOM     21  O   LIG A   1      -5.684  -1.268 126.335  0.00  0.00    -0.292 OA
ATOM     22  C   LIG A   1      -6.879  -0.095 123.839  0.00  0.00    +0.019 C 
BRANCH  15  23
ATOM     23  C   LIG A   1      -8.656   2.584 124.963  0.00  0.00    +0.126 C 
BRANCH  23  24
ATOM     24  C   LIG A   1      -9.246   2.396 123.549  0.00  0.00    +0.307 C 
ATOM     25  O   LIG A   1      -8.950   2.975 122.533  0.00  0.00    -0.251 OA
BRANCH  24  26
ATOM     26  O   LIG A   1     -10.286   1.511 123.592  0.00  0.00    -0.468 OA
ATOM     27  C   LIG A   1     -10.226   0.569 122.513  0.00  0.00    +0.280 C 
ENDBRANCH  24  26
ENDBRANCH  23  24
ENDBRANCH  15  23
ENDBRANCH   5  13
BRANCH  11  28
ATOM     28  C   LIG A   1      -6.413   3.751 132.808  0.00  0.00    +0.042 C 
ATOM     29  C   LIG A   1      -7.685   4.065 132.568  0.00  0.00    +0.057 C 
ATOM     30  C   LIG A   1      -8.431   4.356 133.799  0.00  0.00    +0.334 C 
ATOM     31  O   LIG A   1      -7.475   4.209 134.831  0.00  0.00    -0.428 OA
ATOM     32  C   LIG A   1      -6.296   3.809 134.281  0.00  0.00    +0.338 C 
ATOM     33  O   LIG A   1      -5.289   3.545 134.914  0.00  0.00    -0.245 OA
BRANCH  30  34
ATOM     34  O   LIG A   1      -8.941   5.673 133.747  0.00  0.00    -0.354 OA
ATOM     35  H   LIG A   1      -8.696   6.047 132.886  0.00  0.00    +0.214 HD
ENDBRANCH  30  34
ENDBRANCH  11  28
BRANCH   6  36
ATOM     36  O   LIG A   1      -8.392   4.381 129.355  0.00  0.00    -0.457 OA
BRANCH  36  37
ATOM     37  C   LIG A   1      -9.207   5.434 129.059  0.00  0.00    +0.304 C 
ATOM     38  C   LIG A   1      -9.934   5.872 130.291  0.00  0.00    +0.136 C 
ATOM     39  O   LIG A   1      -9.391   5.902 127.945  0.00  0.00    -0.251 OA
ENDBRANCH  36  37
ENDBRANCH   6  36
BRANCH   7  40
ATOM     40  O   LIG A   1      -6.085   5.730 130.216  0.00  0.00    -0.457 OA
BRANCH  40  41
ATOM     41  C   LIG A   1      -4.999   6.563 130.166  0.00  0.00    +0.304 C 
ATOM     42  C   LIG A   1      -4.600   6.964 131.551  0.00  0.00    +0.136 C 
ATOM     43  O   LIG A   1      -4.473   6.990 129.148  0.00  0.00    -0.251 OA
ENDBRANCH  40  41
ENDBRANCH   7  40
TORSDOF 10
ENDMDL
MODEL 7
REMARK VINA RESULT:      -7.3      4.007      6.989
REMARK  Name = NuBBE_1487
REMARK  17 active torsions:
REMARK  status: ('A' for Active; 'I' for Inactive)
REMARK    1  A    between atoms: C_1  and  C_2
REMARK    2  A    between atoms: C_5  and  C_6
REMARK    3  A    between atoms: C_6  and  C_7
REMARK    4  A    between atoms: C_8  and  C_16
REMARK    5  A    between atoms: C_9  and  C_10
REMARK    6  A    between atoms: C_9  and  C_15
REMARK    7  A    between atoms: C_16  and  C_17
REMARK    8  A    between atoms: C_17  and  O_18
REMARK    9  A    between atoms: O_18  and  C_19
REMARK   10  A    between atoms: C_21  and  O_22
REMARK   11  A    between atoms: O_22  and  C_23
REMARK   12  A    between atoms: C_23  and  C_24
REMARK   13  A    between atoms: C_26  and  O_27
REMARK   14  A    between atoms: O_27  and  C_28
REMARK   15  A    between atoms: C_28  and  C_29
REMARK   16  A    between atoms: C_34  and  C_35
REMARK   17  A    between atoms: C_37  and  O_38
REMARK                            x       y       z     vdW  Elec       q    Type
REMARK                         _______ _______ _______ _____ _____    ______ ____
ROOT
ATOM      1  C   LIG A   1      -4.136   1.519 129.417  0.00  0.00    +0.019 C 
ATOM      2  C   LIG A   1      -4.908   2.808 128.908  0.00  0.00    +0.051 C 
ATOM      3  C   LIG A   1      -3.942   4.011 128.807  0.00  0.00    +0.127 C 
ATOM      4  C   LIG A   1      -3.774   5.001 129.918  0.00  0.00    -0.035 C 
ATOM      5  C   LIG A   1      -4.661   4.899 131.174  0.00  0.00    +0.072 C 
ATOM      6  C   LIG A   1      -6.062   4.341 130.747  0.00  0.00    +0.225 C 
ATOM      7  C   LIG A   1      -6.026   3.001 129.970  0.00  0.00    +0.227 C 
ATOM      8  C   LIG A   1      -3.230   6.212 129.651  0.00  0.00    +0.011 C 
ATOM      9  C   LIG A   1      -3.089   3.670 127.608  0.00  0.00    +0.157 C 
ATOM     10  C   LIG A   1      -3.700   2.541 126.796  0.00  0.00    +0.044 C 
ATOM     11  C   LIG A   1      -5.185   2.464 127.366  0.00  0.00    +0.041 C 
ATOM     12  O   LIG A   1      -3.959   4.758 127.525  0.00  0.00    -0.359 OA
ENDROOT
BRANCH   5  13
ATOM     13  C   LIG A   1      -4.030   4.351 132.536  0.00  0.00    +0.001 C 
ATOM     14  C   LIG A   1      -4.883   3.138 132.990  0.00  0.00    +0.016 C 
ATOM     15  C   LIG A   1      -3.981   5.407 133.753  0.00  0.00    +0.023 C 
ATOM     16  C   LIG A   1      -2.698   6.386 133.744  0.00  0.00    +0.032 C 
ATOM     17  C   LIG A   1      -2.911   7.825 133.223  0.00  0.00    +0.019 C 
ATOM     18  C   LIG A   1      -1.511   5.810 132.955  0.00  0.00    +0.162 C 
ATOM     19  C   LIG A   1      -1.511   4.388 132.595  0.00  0.00    +0.043 C 
ATOM     20  C   LIG A   1      -2.661   3.750 132.379  0.00  0.00    -0.016 C 
ATOM     21  O   LIG A   1      -0.510   6.467 132.668  0.00  0.00    -0.292 OA
ATOM     22  C   LIG A   1      -2.145   6.510 135.190  0.00  0.00    +0.019 C 
BRANCH  15  23
ATOM     23  C   LIG A   1      -5.344   6.100 134.098  0.00  0.00    +0.126 C 
BRANCH  23  24
ATOM     24  C   LIG A   1      -5.850   6.071 135.557  0.00  0.00    +0.307 C 
ATOM     25  O   LIG A   1      -5.635   6.864 136.439  0.00  0.00    -0.251 OA
BRANCH  24  26
ATOM     26  O   LIG A   1      -6.536   4.911 135.787  0.00  0.00    -0.468 OA
ATOM     27  C   LIG A   1      -7.690   4.803 134.944  0.00  0.00    +0.280 C 
ENDBRANCH  24  26
ENDBRANCH  23  24
ENDBRANCH  15  23
ENDBRANCH   5  13
BRANCH  11  28
ATOM     28  C   LIG A   1      -6.108   3.331 126.538  0.00  0.00    +0.042 C 
ATOM     29  C   LIG A   1      -6.596   4.561 126.691  0.00  0.00    +0.057 C 
ATOM     30  C   LIG A   1      -7.440   4.972 125.562  0.00  0.00    +0.334 C 
ATOM     31  O   LIG A   1      -7.440   3.853 124.698  0.00  0.00    -0.428 OA
ATOM     32  C   LIG A   1      -6.629   2.895 125.224  0.00  0.00    +0.338 C 
ATOM     33  O   LIG A   1      -6.377   1.829 124.690  0.00  0.00    -0.245 OA
BRANCH  30  34
ATOM     34  O   LIG A   1      -8.742   5.272 126.025  0.00  0.00    -0.354 OA
ATOM     35  H   LIG A   1      -8.749   5.136 126.985  0.00  0.00    +0.214 HD
ENDBRANCH  30  34
ENDBRANCH  11  28
BRANCH   6  36
ATOM     36  O   LIG A   1      -6.709   5.375 129.957  0.00  0.00    -0.457 OA
BRANCH  36  37
ATOM     37  C   LIG A   1      -7.030   6.526 130.616  0.00  0.00    +0.304 C 
ATOM     38  C   LIG A   1      -8.241   6.302 131.463  0.00  0.00    +0.136 C 
ATOM     39  O   LIG A   1      -6.473   7.605 130.479  0.00  0.00    -0.251 OA
ENDBRANCH  36  37
ENDBRANCH   6  36
BRANCH   7  40
ATOM     40  O   LIG A   1      -7.349   2.680 129.500  0.00  0.00    -0.457 OA
BRANCH  40  41
ATOM     41  C   LIG A   1      -7.925   1.606 130.124  0.00  0.00    +0.304 C 
ATOM     42  C   LIG A   1      -7.778   0.384 129.274  0.00  0.00    +0.136 C 
ATOM     43  O   LIG A   1      -8.543   1.639 131.179  0.00  0.00    -0.251 OA
ENDBRANCH  40  41
ENDBRANCH   7  40
TORSDOF 10
ENDMDL
MODEL 8
REMARK VINA RESULT:      -7.2      4.386      9.069
REMARK  Name = NuBBE_1487
REMARK  17 active torsions:
REMARK  status: ('A' for Active; 'I' for Inactive)
REMARK    1  A    between atoms: C_1  and  C_2
REMARK    2  A    between atoms: C_5  and  C_6
REMARK    3  A    between atoms: C_6  and  C_7
REMARK    4  A    between atoms: C_8  and  C_16
REMARK    5  A    between atoms: C_9  and  C_10
REMARK    6  A    between atoms: C_9  and  C_15
REMARK    7  A    between atoms: C_16  and  C_17
REMARK    8  A    between atoms: C_17  and  O_18
REMARK    9  A    between atoms: O_18  and  C_19
REMARK   10  A    between atoms: C_21  and  O_22
REMARK   11  A    between atoms: O_22  and  C_23
REMARK   12  A    between atoms: C_23  and  C_24
REMARK   13  A    between atoms: C_26  and  O_27
REMARK   14  A    between atoms: O_27  and  C_28
REMARK   15  A    between atoms: C_28  and  C_29
REMARK   16  A    between atoms: C_34  and  C_35
REMARK   17  A    between atoms: C_37  and  O_38
REMARK                            x       y       z     vdW  Elec       q    Type
REMARK                         _______ _______ _______ _____ _____    ______ ____
ROOT
ATOM      1  C   LIG A   1      -6.842   3.412 134.577  0.00  0.00    +0.019 C 
ATOM      2  C   LIG A   1      -6.107   2.565 133.457  0.00  0.00    +0.051 C 
ATOM      3  C   LIG A   1      -4.574   2.624 133.654  0.00  0.00    +0.127 C 
ATOM      4  C   LIG A   1      -3.713   3.623 132.945  0.00  0.00    -0.035 C 
ATOM      5  C   LIG A   1      -4.337   4.567 131.899  0.00  0.00    +0.072 C 
ATOM      6  C   LIG A   1      -5.509   3.809 131.185  0.00  0.00    +0.225 C 
ATOM      7  C   LIG A   1      -6.586   3.224 132.134  0.00  0.00    +0.227 C 
ATOM      8  C   LIG A   1      -2.380   3.400 132.849  0.00  0.00    +0.011 C 
ATOM      9  C   LIG A   1      -4.350   1.772 134.880  0.00  0.00    +0.157 C 
ATOM     10  C   LIG A   1      -5.578   0.941 135.210  0.00  0.00    +0.044 C 
ATOM     11  C   LIG A   1      -6.445   1.055 133.880  0.00  0.00    +0.041 C 
ATOM     12  O   LIG A   1      -3.863   1.321 133.652  0.00  0.00    -0.359 OA
ENDROOT
BRANCH   5  13
ATOM     13  C   LIG A   1      -4.566   6.104 132.269  0.00  0.00    +0.001 C 
ATOM     14  C   LIG A   1      -5.882   6.557 131.584  0.00  0.00    +0.016 C 
ATOM     15  C   LIG A   1      -3.395   7.111 131.809  0.00  0.00    +0.023 C 
ATOM     16  C   LIG A   1      -2.156   7.218 132.838  0.00  0.00    +0.032 C 
ATOM     17  C   LIG A   1      -0.873   6.434 132.484  0.00  0.00    +0.019 C 
ATOM     18  C   LIG A   1      -2.532   6.811 134.272  0.00  0.00    +0.162 C 
ATOM     19  C   LIG A   1      -3.948   6.699 134.638  0.00  0.00    +0.043 C 
ATOM     20  C   LIG A   1      -4.853   6.348 133.724  0.00  0.00    -0.016 C 
ATOM     21  O   LIG A   1      -1.701   6.643 135.164  0.00  0.00    -0.292 OA
ATOM     22  C   LIG A   1      -1.744   8.709 132.982  0.00  0.00    +0.019 C 
BRANCH  15  23
ATOM     23  C   LIG A   1      -2.996   7.035 130.294  0.00  0.00    +0.126 C 
BRANCH  23  24
ATOM     24  C   LIG A   1      -3.700   7.970 129.288  0.00  0.00    +0.307 C 
ATOM     25  O   LIG A   1      -3.957   9.142 129.410  0.00  0.00    -0.251 OA
BRANCH  24  26
ATOM     26  O   LIG A   1      -4.121   7.254 128.203  0.00  0.00    -0.468 OA
ATOM     27  C   LIG A   1      -3.477   5.975 128.130  0.00  0.00    +0.280 C 
ENDBRANCH  24  26
ENDBRANCH  23  24
ENDBRANCH  15  23
ENDBRANCH   5  13
BRANCH  11  28
ATOM     28  C   LIG A   1      -6.128  -0.096 132.950  0.00  0.00    +0.042 C 
ATOM     29  C   LIG A   1      -5.389  -0.208 131.848  0.00  0.00    +0.057 C 
ATOM     30  C   LIG A   1      -5.371  -1.579 131.323  0.00  0.00    +0.334 C 
ATOM     31  O   LIG A   1      -6.200  -2.304 132.211  0.00  0.00    -0.428 OA
ATOM     32  C   LIG A   1      -6.618  -1.468 133.200  0.00  0.00    +0.338 C 
ATOM     33  O   LIG A   1      -7.304  -1.804 134.149  0.00  0.00    -0.245 OA
BRANCH  30  34
ATOM     34  O   LIG A   1      -5.884  -1.593 130.006  0.00  0.00    -0.354 OA
ATOM     35  H   LIG A   1      -6.835  -1.770 130.065  0.00  0.00    +0.214 HD
ENDBRANCH  30  34
ENDBRANCH  11  28
BRANCH   6  36
ATOM     36  O   LIG A   1      -4.908   2.758 130.381  0.00  0.00    -0.457 OA
BRANCH  36  37
ATOM     37  C   LIG A   1      -5.343   2.662 129.091  0.00  0.00    +0.304 C 
ATOM     38  C   LIG A   1      -4.797   1.418 128.465  0.00  0.00    +0.136 C 
ATOM     39  O   LIG A   1      -6.008   3.499 128.499  0.00  0.00    -0.251 OA
ENDBRANCH  36  37
ENDBRANCH   6  36
BRANCH   7  40
ATOM     40  O   LIG A   1      -7.512   2.423 131.375  0.00  0.00    -0.457 OA
BRANCH  40  41
ATOM     41  C   LIG A   1      -8.798   2.895 131.375  0.00  0.00    +0.304 C 
ATOM     42  C   LIG A   1      -9.677   1.979 132.165  0.00  0.00    +0.136 C 
ATOM     43  O   LIG A   1      -9.200   3.872 130.759  0.00  0.00    -0.251 OA
ENDBRANCH  40  41
ENDBRANCH   7  40
TORSDOF 10
ENDMDL
MODEL 9
REMARK VINA RESULT:      -7.1      3.176      6.202
REMARK  Name = NuBBE_1487
REMARK  17 active torsions:
REMARK  status: ('A' for Active; 'I' for Inactive)
REMARK    1  A    between atoms: C_1  and  C_2
REMARK    2  A    between atoms: C_5  and  C_6
REMARK    3  A    between atoms: C_6  and  C_7
REMARK    4  A    between atoms: C_8  and  C_16
REMARK    5  A    between atoms: C_9  and  C_10
REMARK    6  A    between atoms: C_9  and  C_15
REMARK    7  A    between atoms: C_16  and  C_17
REMARK    8  A    between atoms: C_17  and  O_18
REMARK    9  A    between atoms: O_18  and  C_19
REMARK   10  A    between atoms: C_21  and  O_22
REMARK   11  A    between atoms: O_22  and  C_23
REMARK   12  A    between atoms: C_23  and  C_24
REMARK   13  A    between atoms: C_26  and  O_27
REMARK   14  A    between atoms: O_27  and  C_28
REMARK   15  A    between atoms: C_28  and  C_29
REMARK   16  A    between atoms: C_34  and  C_35
REMARK   17  A    between atoms: C_37  and  O_38
REMARK                            x       y       z     vdW  Elec       q    Type
REMARK                         _______ _______ _______ _____ _____    ______ ____
ROOT
ATOM      1  C   LIG A   1      -6.228   4.045 133.015  0.00  0.00    +0.019 C 
ATOM      2  C   LIG A   1      -7.398   3.833 131.967  0.00  0.00    +0.051 C 
ATOM      3  C   LIG A   1      -8.284   2.635 132.383  0.00  0.00    +0.127 C 
ATOM      4  C   LIG A   1      -8.060   1.251 131.858  0.00  0.00    -0.035 C 
ATOM      5  C   LIG A   1      -6.982   1.005 130.785  0.00  0.00    +0.072 C 
ATOM      6  C   LIG A   1      -6.892   2.276 129.873  0.00  0.00    +0.225 C 
ATOM      7  C   LIG A   1      -6.646   3.608 130.627  0.00  0.00    +0.227 C 
ATOM      8  C   LIG A   1      -9.059   0.340 131.942  0.00  0.00    +0.011 C 
ATOM      9  C   LIG A   1      -9.036   3.162 133.582  0.00  0.00    +0.157 C 
ATOM     10  C   LIG A   1      -8.921   4.672 133.690  0.00  0.00    +0.044 C 
ATOM     11  C   LIG A   1      -8.360   5.083 132.258  0.00  0.00    +0.041 C 
ATOM     12  O   LIG A   1      -9.748   2.883 132.414  0.00  0.00    -0.359 OA
ENDROOT
BRANCH   5  13
ATOM     13  C   LIG A   1      -5.613   0.292 131.199  0.00  0.00    +0.001 C 
ATOM     14  C   LIG A   1      -4.570   0.608 130.095  0.00  0.00    +0.016 C 
ATOM     15  C   LIG A   1      -5.687  -1.309 131.369  0.00  0.00    +0.023 C 
ATOM     16  C   LIG A   1      -6.195  -1.811 132.816  0.00  0.00    +0.032 C 
ATOM     17  C   LIG A   1      -7.664  -2.278 132.926  0.00  0.00    +0.019 C 
ATOM     18  C   LIG A   1      -5.989  -0.761 133.919  0.00  0.00    +0.162 C 
ATOM     19  C   LIG A   1      -5.107   0.383 133.666  0.00  0.00    +0.043 C 
ATOM     20  C   LIG A   1      -4.972   0.867 132.431  0.00  0.00    -0.016 C 
ATOM     21  O   LIG A   1      -6.472  -0.866 135.047  0.00  0.00    -0.292 OA
ATOM     22  C   LIG A   1      -5.311  -3.000 133.279  0.00  0.00    +0.019 C 
BRANCH  15  23
ATOM     23  C   LIG A   1      -6.286  -2.089 130.146  0.00  0.00    +0.126 C 
BRANCH  23  24
ATOM     24  C   LIG A   1      -5.630  -3.418 129.714  0.00  0.00    +0.307 C 
ATOM     25  O   LIG A   1      -5.832  -4.526 130.144  0.00  0.00    -0.251 OA
BRANCH  24  26
ATOM     26  O   LIG A   1      -4.651  -3.175 128.792  0.00  0.00    -0.468 OA
ATOM     27  C   LIG A   1      -3.363  -3.590 129.265  0.00  0.00    +0.280 C 
ENDBRANCH  24  26
ENDBRANCH  23  24
ENDBRANCH  15  23
ENDBRANCH   5  13
BRANCH  11  28
ATOM     28  C   LIG A   1      -9.504   5.409 131.323  0.00  0.00    +0.042 C 
ATOM     29  C   LIG A   1      -9.807   5.040 130.079  0.00  0.00    +0.057 C 
ATOM     30  C   LIG A   1     -11.077   5.615 129.619  0.00  0.00    +0.334 C 
ATOM     31  O   LIG A   1     -11.521   6.401 130.708  0.00  0.00    -0.428 OA
ATOM     32  C   LIG A   1     -10.641   6.260 131.736  0.00  0.00    +0.338 C 
ATOM     33  O   LIG A   1     -10.770   6.770 132.835  0.00  0.00    -0.245 OA
BRANCH  30  34
ATOM     34  O   LIG A   1     -10.853   6.403 128.466  0.00  0.00    -0.354 OA
ATOM     35  H   LIG A   1      -9.932   6.267 128.194  0.00  0.00    +0.214 HD
ENDBRANCH  30  34
ENDBRANCH  11  28
BRANCH   6  36
ATOM     36  O   LIG A   1      -8.126   2.339 129.108  0.00  0.00    -0.457 OA
BRANCH  36  37
ATOM     37  C   LIG A   1      -8.074   1.843 127.838  0.00  0.00    +0.304 C 
ATOM     38  C   LIG A   1      -6.673   1.918 127.322  0.00  0.00    +0.136 C 
ATOM     39  O   LIG A   1      -9.033   1.469 127.179  0.00  0.00    -0.251 OA
ENDBRANCH  36  37
ENDBRANCH   6  36
BRANCH   7  40
ATOM     40  O   LIG A   1      -6.743   4.709 129.702  0.00  0.00    -0.457 OA
BRANCH  40  41
ATOM     41  C   LIG A   1      -5.540   5.142 129.212  0.00  0.00    +0.304 C 
ATOM     42  C   LIG A   1      -4.824   5.942 130.253  0.00  0.00    +0.136 C 
ATOM     43  O   LIG A   1      -5.133   4.978 128.071  0.00  0.00    -0.251 OA
ENDBRANCH  40  41
ENDBRANCH   7  40
TORSDOF 10
ENDMDL
