MODEL 1
REMARK VINA RESULT:      -6.8      0.000      0.000
REMARK  Name = NuBBE_18
REMARK  8 active torsions:
REMARK  status: ('A' for Active; 'I' for Inactive)
REMARK    1  A    between atoms: C_2  and  C_10
REMARK    2  A    between atoms: C_11  and  C_12
REMARK    3  A    between atoms: C_14  and  O_15
REMARK    4  A    between atoms: O_15  and  C_16
REMARK    5  A    between atoms: C_17  and  O_18
REMARK    6  A    between atoms: O_18  and  C_19
REMARK    7  A    between atoms: C_20  and  O_21
REMARK    8  A    between atoms: O_21  and  C_22
REMARK                            x       y       z     vdW  Elec       q    Type
REMARK                         _______ _______ _______ _____ _____    ______ ____
ROOT
ATOM      1  C   LIG A   1      -9.179   0.120 123.534  0.00  0.00    -0.018 A 
ATOM      2  C   LIG A   1      -8.962   1.229 122.723  0.00  0.00    +0.057 A 
ATOM      3  C   LIG A   1      -8.792   2.503 123.279  0.00  0.00    +0.166 A 
ATOM      4  C   LIG A   1      -8.846   2.678 124.681  0.00  0.00    +0.203 A 
ATOM      5  C   LIG A   1      -9.059   1.552 125.503  0.00  0.00    +0.166 A 
ATOM      6  C   LIG A   1      -9.176   0.277 124.918  0.00  0.00    +0.057 A 
ENDROOT
BRANCH   1   8
ATOM      7  C   LIG A   1      -8.552  -2.218 122.866  0.00  0.00    +0.068 C 
ATOM      8  C   LIG A   1      -9.413  -1.186 122.916  0.00  0.00    +0.013 C 
BRANCH   7  10
ATOM      9  O   LIG A   1      -6.204  -2.002 122.761  0.00  0.00    -0.270 OA
ATOM     10  C   LIG A   1      -7.180  -2.265 123.460  0.00  0.00    +0.246 C 
ATOM     11  N   LIG A   1      -7.076  -2.545 124.833  0.00  0.00    -0.235 N 
ATOM     12  C   LIG A   1      -5.724  -2.509 125.400  0.00  0.00    +0.121 C 
ATOM     13  C   LIG A   1      -5.677  -1.839 126.771  0.00  0.00    +0.047 C 
ATOM     14  C   LIG A   1      -6.767  -2.363 127.646  0.00  0.00    -0.020 C 
ATOM     15  C   LIG A   1      -7.860  -2.936 127.128  0.00  0.00    +0.064 C 
ATOM     16  C   LIG A   1      -8.106  -2.997 125.658  0.00  0.00    +0.246 C 
ATOM     17  O   LIG A   1      -9.200  -3.432 125.284  0.00  0.00    -0.270 OA
ENDBRANCH   7  10
ENDBRANCH   1   8
BRANCH   3  18
ATOM     18  O   LIG A   1      -8.528   3.613 122.507  0.00  0.00    -0.491 OA
ATOM     19  C   LIG A   1      -8.749   3.460 121.108  0.00  0.00    +0.277 C 
ENDBRANCH   3  18
BRANCH   4  20
ATOM     20  O   LIG A   1      -8.798   3.989 125.099  0.00  0.00    -0.488 OA
ATOM     21  C   LIG A   1      -7.578   4.480 125.635  0.00  0.00    +0.277 C 
ENDBRANCH   4  20
BRANCH   5  22
ATOM     22  O   LIG A   1      -9.152   1.718 126.865  0.00  0.00    -0.491 OA
ATOM     23  C   LIG A   1      -8.129   1.072 127.623  0.00  0.00    +0.277 C 
ENDBRANCH   5  22
TORSDOF 5
ENDMDL
MODEL 2
REMARK VINA RESULT:      -6.7      0.482      2.648
REMARK  Name = NuBBE_18
REMARK  8 active torsions:
REMARK  status: ('A' for Active; 'I' for Inactive)
REMARK    1  A    between atoms: C_2  and  C_10
REMARK    2  A    between atoms: C_11  and  C_12
REMARK    3  A    between atoms: C_14  and  O_15
REMARK    4  A    between atoms: O_15  and  C_16
REMARK    5  A    between atoms: C_17  and  O_18
REMARK    6  A    between atoms: O_18  and  C_19
REMARK    7  A    between atoms: C_20  and  O_21
REMARK    8  A    between atoms: O_21  and  C_22
REMARK                            x       y       z     vdW  Elec       q    Type
REMARK                         _______ _______ _______ _____ _____    ______ ____
ROOT
ATOM      1  C   LIG A   1      -9.243  -0.076 123.549  0.00  0.00    -0.018 A 
ATOM      2  C   LIG A   1      -9.271   0.181 124.915  0.00  0.00    +0.057 A 
ATOM      3  C   LIG A   1      -9.154   1.489 125.402  0.00  0.00    +0.166 A 
ATOM      4  C   LIG A   1      -9.000   2.570 124.504  0.00  0.00    +0.203 A 
ATOM      5  C   LIG A   1      -8.979   2.309 123.118  0.00  0.00    +0.166 A 
ATOM      6  C   LIG A   1      -9.149   0.990 122.657  0.00  0.00    +0.057 A 
ENDROOT
BRANCH   1   8
ATOM      7  C   LIG A   1      -8.356  -2.401 123.212  0.00  0.00    +0.068 C 
ATOM      8  C   LIG A   1      -9.306  -1.460 123.077  0.00  0.00    +0.013 C 
BRANCH   7  10
ATOM      9  O   LIG A   1      -6.059  -1.857 123.271  0.00  0.00    -0.270 OA
ATOM     10  C   LIG A   1      -7.039  -2.245 123.905  0.00  0.00    +0.246 C 
ATOM     11  N   LIG A   1      -6.998  -2.488 125.288  0.00  0.00    -0.235 N 
ATOM     12  C   LIG A   1      -5.711  -2.253 125.949  0.00  0.00    +0.121 C 
ATOM     13  C   LIG A   1      -5.860  -1.564 127.303  0.00  0.00    +0.047 C 
ATOM     14  C   LIG A   1      -6.928  -2.223 128.110  0.00  0.00    -0.020 C 
ATOM     15  C   LIG A   1      -7.889  -2.952 127.530  0.00  0.00    +0.064 C 
ATOM     16  C   LIG A   1      -8.013  -3.069 126.048  0.00  0.00    +0.246 C 
ATOM     17  O   LIG A   1      -9.006  -3.659 125.608  0.00  0.00    -0.270 OA
ENDBRANCH   7  10
ENDBRANCH   1   8
BRANCH   3  18
ATOM     18  O   LIG A   1      -9.227   1.783 126.747  0.00  0.00    -0.491 OA
ATOM     19  C   LIG A   1      -8.233   1.174 127.566  0.00  0.00    +0.277 C 
ENDBRANCH   3  18
BRANCH   4  20
ATOM     20  O   LIG A   1      -8.764   3.787 125.103  0.00  0.00    -0.488 OA
ATOM     21  C   LIG A   1      -7.418   4.219 125.240  0.00  0.00    +0.277 C 
ENDBRANCH   4  20
BRANCH   5  22
ATOM     22  O   LIG A   1      -8.790   3.348 122.238  0.00  0.00    -0.491 OA
ATOM     23  C   LIG A   1      -7.492   3.410 121.647  0.00  0.00    +0.277 C 
ENDBRANCH   5  22
TORSDOF 5
ENDMDL
MODEL 3
REMARK VINA RESULT:      -6.3      6.330      9.905
REMARK  Name = NuBBE_18
REMARK  8 active torsions:
REMARK  status: ('A' for Active; 'I' for Inactive)
REMARK    1  A    between atoms: C_2  and  C_10
REMARK    2  A    between atoms: C_11  and  C_12
REMARK    3  A    between atoms: C_14  and  O_15
REMARK    4  A    between atoms: O_15  and  C_16
REMARK    5  A    between atoms: C_17  and  O_18
REMARK    6  A    between atoms: O_18  and  C_19
REMARK    7  A    between atoms: C_20  and  O_21
REMARK    8  A    between atoms: O_21  and  C_22
REMARK                            x       y       z     vdW  Elec       q    Type
REMARK                         _______ _______ _______ _____ _____    ______ ____
ROOT
ATOM      1  C   LIG A   1      -7.682   5.719 131.103  0.00  0.00    -0.018 A 
ATOM      2  C   LIG A   1      -7.545   4.712 130.155  0.00  0.00    +0.057 A 
ATOM      3  C   LIG A   1      -6.336   4.529 129.472  0.00  0.00    +0.166 A 
ATOM      4  C   LIG A   1      -5.236   5.377 129.737  0.00  0.00    +0.203 A 
ATOM      5  C   LIG A   1      -5.374   6.393 130.704  0.00  0.00    +0.166 A 
ATOM      6  C   LIG A   1      -6.585   6.521 131.410  0.00  0.00    +0.057 A 
ENDROOT
BRANCH   1   8
ATOM      7  C   LIG A   1      -9.999   6.668 131.300  0.00  0.00    +0.068 C 
ATOM      8  C   LIG A   1      -8.978   5.920 131.754  0.00  0.00    +0.013 C 
BRANCH   7  10
ATOM      9  O   LIG A   1      -9.016   7.938 129.571  0.00  0.00    -0.270 OA
ATOM     10  C   LIG A   1     -10.044   7.430 130.014  0.00  0.00    +0.246 C 
ATOM     11  N   LIG A   1     -11.268   7.472 129.325  0.00  0.00    -0.235 N 
ATOM     12  C   LIG A   1     -11.259   8.161 128.031  0.00  0.00    +0.121 C 
ATOM     13  C   LIG A   1     -12.073   7.430 126.967  0.00  0.00    +0.047 C 
ATOM     14  C   LIG A   1     -13.402   7.025 127.512  0.00  0.00    -0.020 C 
ATOM     15  C   LIG A   1     -13.605   6.900 128.829  0.00  0.00    +0.064 C 
ATOM     16  C   LIG A   1     -12.503   7.056 129.822  0.00  0.00    +0.246 C 
ATOM     17  O   LIG A   1     -12.763   6.798 131.002  0.00  0.00    -0.270 OA
ENDBRANCH   7  10
ENDBRANCH   1   8
BRANCH   3  18
ATOM     18  O   LIG A   1      -6.151   3.510 128.562  0.00  0.00    -0.491 OA
ATOM     19  C   LIG A   1      -6.907   3.613 127.359  0.00  0.00    +0.277 C 
ENDBRANCH   3  18
BRANCH   4  20
ATOM     20  O   LIG A   1      -4.150   5.185 128.913  0.00  0.00    -0.488 OA
ATOM     21  C   LIG A   1      -3.022   4.499 129.435  0.00  0.00    +0.277 C 
ENDBRANCH   4  20
BRANCH   5  22
ATOM     22  O   LIG A   1      -4.323   7.248 130.941  0.00  0.00    -0.491 OA
ATOM     23  C   LIG A   1      -4.178   8.304 129.991  0.00  0.00    +0.277 C 
ENDBRANCH   5  22
TORSDOF 5
ENDMDL
MODEL 4
REMARK VINA RESULT:      -6.3      5.542      9.123
REMARK  Name = NuBBE_18
REMARK  8 active torsions:
REMARK  status: ('A' for Active; 'I' for Inactive)
REMARK    1  A    between atoms: C_2  and  C_10
REMARK    2  A    between atoms: C_11  and  C_12
REMARK    3  A    between atoms: C_14  and  O_15
REMARK    4  A    between atoms: O_15  and  C_16
REMARK    5  A    between atoms: C_17  and  O_18
REMARK    6  A    between atoms: O_18  and  C_19
REMARK    7  A    between atoms: C_20  and  O_21
REMARK    8  A    between atoms: O_21  and  C_22
REMARK                            x       y       z     vdW  Elec       q    Type
REMARK                         _______ _______ _______ _____ _____    ______ ____
ROOT
ATOM      1  C   LIG A   1      -7.955   4.545 130.212  0.00  0.00    -0.018 A 
ATOM      2  C   LIG A   1      -8.536   3.835 129.168  0.00  0.00    +0.057 A 
ATOM      3  C   LIG A   1      -7.779   3.442 128.058  0.00  0.00    +0.166 A 
ATOM      4  C   LIG A   1      -6.405   3.769 127.984  0.00  0.00    +0.203 A 
ATOM      5  C   LIG A   1      -5.815   4.482 129.047  0.00  0.00    +0.166 A 
ATOM      6  C   LIG A   1      -6.590   4.820 130.173  0.00  0.00    +0.057 A 
ENDROOT
BRANCH   1   8
ATOM      7  C   LIG A   1      -9.494   6.135 131.400  0.00  0.00    +0.068 C 
ATOM      8  C   LIG A   1      -8.790   4.992 131.329  0.00  0.00    +0.013 C 
BRANCH   7  10
ATOM      9  O   LIG A   1      -8.593   7.771 129.956  0.00  0.00    -0.270 OA
ATOM     10  C   LIG A   1      -9.603   7.183 130.337  0.00  0.00    +0.246 C 
ATOM     11  N   LIG A   1     -10.868   7.400 129.766  0.00  0.00    -0.235 N 
ATOM     12  C   LIG A   1     -10.927   8.378 128.675  0.00  0.00    +0.121 C 
ATOM     13  C   LIG A   1     -11.828   7.930 127.528  0.00  0.00    +0.047 C 
ATOM     14  C   LIG A   1     -13.129   7.420 128.054  0.00  0.00    -0.020 C 
ATOM     15  C   LIG A   1     -13.248   6.987 129.315  0.00  0.00    +0.064 C 
ATOM     16  C   LIG A   1     -12.078   6.891 130.236  0.00  0.00    +0.246 C 
ATOM     17  O   LIG A   1     -12.267   6.361 131.336  0.00  0.00    -0.270 OA
ENDBRANCH   7  10
ENDBRANCH   1   8
BRANCH   3  18
ATOM     18  O   LIG A   1      -8.313   2.696 127.029  0.00  0.00    -0.491 OA
ATOM     19  C   LIG A   1      -8.599   1.335 127.337  0.00  0.00    +0.277 C 
ENDBRANCH   3  18
BRANCH   4  20
ATOM     20  O   LIG A   1      -5.800   3.446 126.791  0.00  0.00    -0.488 OA
ATOM     21  C   LIG A   1      -5.652   4.465 125.813  0.00  0.00    +0.277 C 
ENDBRANCH   4  20
BRANCH   5  22
ATOM     22  O   LIG A   1      -4.490   4.840 128.967  0.00  0.00    -0.491 OA
ATOM     23  C   LIG A   1      -3.585   3.956 129.630  0.00  0.00    +0.277 C 
ENDBRANCH   5  22
TORSDOF 5
ENDMDL
MODEL 5
REMARK VINA RESULT:      -6.3      2.246      3.380
REMARK  Name = NuBBE_18
REMARK  8 active torsions:
REMARK  status: ('A' for Active; 'I' for Inactive)
REMARK    1  A    between atoms: C_2  and  C_10
REMARK    2  A    between atoms: C_11  and  C_12
REMARK    3  A    between atoms: C_14  and  O_15
REMARK    4  A    between atoms: O_15  and  C_16
REMARK    5  A    between atoms: C_17  and  O_18
REMARK    6  A    between atoms: O_18  and  C_19
REMARK    7  A    between atoms: C_20  and  O_21
REMARK    8  A    between atoms: O_21  and  C_22
REMARK                            x       y       z     vdW  Elec       q    Type
REMARK                         _______ _______ _______ _____ _____    ______ ____
ROOT
ATOM      1  C   LIG A   1      -7.899   2.242 124.769  0.00  0.00    -0.018 A 
ATOM      2  C   LIG A   1      -8.229   2.575 123.461  0.00  0.00    +0.057 A 
ATOM      3  C   LIG A   1      -7.369   3.358 122.681  0.00  0.00    +0.166 A 
ATOM      4  C   LIG A   1      -6.150   3.827 123.221  0.00  0.00    +0.203 A 
ATOM      5  C   LIG A   1      -5.812   3.482 124.546  0.00  0.00    +0.166 A 
ATOM      6  C   LIG A   1      -6.673   2.652 125.289  0.00  0.00    +0.057 A 
ENDROOT
BRANCH   1   8
ATOM      7  C   LIG A   1      -9.346   0.257 125.291  0.00  0.00    +0.068 C 
ATOM      8  C   LIG A   1      -8.848   1.472 125.576  0.00  0.00    +0.013 C 
BRANCH   7  10
ATOM      9  O   LIG A   1      -9.696  -0.509 123.086  0.00  0.00    -0.270 OA
ATOM     10  C   LIG A   1      -9.011  -0.589 124.104  0.00  0.00    +0.246 C 
ATOM     11  N   LIG A   1      -7.866  -1.399 124.184  0.00  0.00    -0.235 N 
ATOM     12  C   LIG A   1      -7.522  -2.156 122.977  0.00  0.00    +0.121 C 
ATOM     13  C   LIG A   1      -6.023  -2.163 122.692  0.00  0.00    +0.047 C 
ATOM     14  C   LIG A   1      -5.255  -2.478 123.932  0.00  0.00    -0.020 C 
ATOM     15  C   LIG A   1      -5.787  -2.288 125.146  0.00  0.00    +0.064 C 
ATOM     16  C   LIG A   1      -7.127  -1.661 125.338  0.00  0.00    +0.246 C 
ATOM     17  O   LIG A   1      -7.475  -1.412 126.497  0.00  0.00    -0.270 OA
ENDBRANCH   7  10
ENDBRANCH   1   8
BRANCH   3  18
ATOM     18  O   LIG A   1      -7.644   3.666 121.365  0.00  0.00    -0.491 OA
ATOM     19  C   LIG A   1      -8.997   3.481 120.957  0.00  0.00    +0.277 C 
ENDBRANCH   3  18
BRANCH   4  20
ATOM     20  O   LIG A   1      -5.455   4.692 122.407  0.00  0.00    -0.488 OA
ATOM     21  C   LIG A   1      -4.628   4.144 121.391  0.00  0.00    +0.277 C 
ENDBRANCH   4  20
BRANCH   5  22
ATOM     22  O   LIG A   1      -4.648   3.965 125.094  0.00  0.00    -0.491 OA
ATOM     23  C   LIG A   1      -4.231   3.316 126.296  0.00  0.00    +0.277 C 
ENDBRANCH   5  22
TORSDOF 5
ENDMDL
MODEL 6
REMARK VINA RESULT:      -6.3      6.605     10.213
REMARK  Name = NuBBE_18
REMARK  8 active torsions:
REMARK  status: ('A' for Active; 'I' for Inactive)
REMARK    1  A    between atoms: C_2  and  C_10
REMARK    2  A    between atoms: C_11  and  C_12
REMARK    3  A    between atoms: C_14  and  O_15
REMARK    4  A    between atoms: O_15  and  C_16
REMARK    5  A    between atoms: C_17  and  O_18
REMARK    6  A    between atoms: O_18  and  C_19
REMARK    7  A    between atoms: C_20  and  O_21
REMARK    8  A    between atoms: O_21  and  C_22
REMARK                            x       y       z     vdW  Elec       q    Type
REMARK                         _______ _______ _______ _____ _____    ______ ____
ROOT
ATOM      1  C   LIG A   1      -7.216   5.766 131.157  0.00  0.00    -0.018 A 
ATOM      2  C   LIG A   1      -6.205   6.596 131.628  0.00  0.00    +0.057 A 
ATOM      3  C   LIG A   1      -4.929   6.570 131.053  0.00  0.00    +0.166 A 
ATOM      4  C   LIG A   1      -4.650   5.689 129.982  0.00  0.00    +0.203 A 
ATOM      5  C   LIG A   1      -5.679   4.853 129.501  0.00  0.00    +0.166 A 
ATOM      6  C   LIG A   1      -6.965   4.938 130.066  0.00  0.00    +0.057 A 
ENDROOT
BRANCH   1   8
ATOM      7  C   LIG A   1      -9.611   6.465 131.443  0.00  0.00    +0.068 C 
ATOM      8  C   LIG A   1      -8.521   5.776 131.821  0.00  0.00    +0.013 C 
BRANCH   7  10
ATOM      9  O   LIG A   1      -8.741   7.911 129.793  0.00  0.00    -0.270 OA
ATOM     10  C   LIG A   1      -9.737   7.347 130.241  0.00  0.00    +0.246 C 
ATOM     11  N   LIG A   1     -10.998   7.435 129.628  0.00  0.00    -0.235 N 
ATOM     12  C   LIG A   1     -11.070   8.246 128.408  0.00  0.00    +0.121 C 
ATOM     13  C   LIG A   1     -11.935   7.608 127.326  0.00  0.00    +0.047 C 
ATOM     14  C   LIG A   1     -13.227   7.131 127.902  0.00  0.00    -0.020 C 
ATOM     15  C   LIG A   1     -13.354   6.877 129.210  0.00  0.00    +0.064 C 
ATOM     16  C   LIG A   1     -12.199   6.954 130.150  0.00  0.00    +0.246 C 
ATOM     17  O   LIG A   1     -12.388   6.579 131.312  0.00  0.00    -0.270 OA
ENDBRANCH   7  10
ENDBRANCH   1   8
BRANCH   3  18
ATOM     18  O   LIG A   1      -3.919   7.413 131.464  0.00  0.00    -0.491 OA
ATOM     19  C   LIG A   1      -3.412   7.176 132.774  0.00  0.00    +0.277 C 
ENDBRANCH   3  18
BRANCH   4  20
ATOM     20  O   LIG A   1      -3.331   5.660 129.590  0.00  0.00    -0.488 OA
ATOM     21  C   LIG A   1      -2.972   6.326 128.389  0.00  0.00    +0.277 C 
ENDBRANCH   4  20
BRANCH   5  22
ATOM     22  O   LIG A   1      -5.408   3.965 128.486  0.00  0.00    -0.491 OA
ATOM     23  C   LIG A   1      -6.516   3.166 128.071  0.00  0.00    +0.277 C 
ENDBRANCH   5  22
TORSDOF 5
ENDMDL
MODEL 7
REMARK VINA RESULT:      -6.2      5.550      9.514
REMARK  Name = NuBBE_18
REMARK  8 active torsions:
REMARK  status: ('A' for Active; 'I' for Inactive)
REMARK    1  A    between atoms: C_2  and  C_10
REMARK    2  A    between atoms: C_11  and  C_12
REMARK    3  A    between atoms: C_14  and  O_15
REMARK    4  A    between atoms: O_15  and  C_16
REMARK    5  A    between atoms: C_17  and  O_18
REMARK    6  A    between atoms: O_18  and  C_19
REMARK    7  A    between atoms: C_20  and  O_21
REMARK    8  A    between atoms: O_21  and  C_22
REMARK                            x       y       z     vdW  Elec       q    Type
REMARK                         _______ _______ _______ _____ _____    ______ ____
ROOT
ATOM      1  C   LIG A   1      -9.109   4.478 131.041  0.00  0.00    -0.018 A 
ATOM      2  C   LIG A   1      -7.831   4.369 131.577  0.00  0.00    +0.057 A 
ATOM      3  C   LIG A   1      -6.882   3.514 131.004  0.00  0.00    +0.166 A 
ATOM      4  C   LIG A   1      -7.218   2.741 129.868  0.00  0.00    +0.203 A 
ATOM      5  C   LIG A   1      -8.512   2.858 129.321  0.00  0.00    +0.166 A 
ATOM      6  C   LIG A   1      -9.428   3.763 129.889  0.00  0.00    +0.057 A 
ENDROOT
BRANCH   1   8
ATOM      7  C   LIG A   1     -10.521   6.541 131.286  0.00  0.00    +0.068 C 
ATOM      8  C   LIG A   1     -10.094   5.336 131.702  0.00  0.00    +0.013 C 
BRANCH   7  10
ATOM      9  O   LIG A   1      -8.939   7.619 129.904  0.00  0.00    -0.270 OA
ATOM     10  C   LIG A   1     -10.105   7.251 130.037  0.00  0.00    +0.246 C 
ATOM     11  N   LIG A   1     -11.067   7.405 129.025  0.00  0.00    -0.235 N 
ATOM     12  C   LIG A   1     -10.608   8.037 127.784  0.00  0.00    +0.121 C 
ATOM     13  C   LIG A   1     -11.168   7.363 126.536  0.00  0.00    +0.047 C 
ATOM     14  C   LIG A   1     -12.636   7.135 126.678  0.00  0.00    -0.020 C 
ATOM     15  C   LIG A   1     -13.219   7.087 127.882  0.00  0.00    +0.064 C 
ATOM     16  C   LIG A   1     -12.434   7.155 129.149  0.00  0.00    +0.246 C 
ATOM     17  O   LIG A   1     -13.048   6.975 130.206  0.00  0.00    -0.270 OA
ENDBRANCH   7  10
ENDBRANCH   1   8
BRANCH   3  18
ATOM     18  O   LIG A   1      -5.593   3.419 131.481  0.00  0.00    -0.491 OA
ATOM     19  C   LIG A   1      -4.772   4.565 131.276  0.00  0.00    +0.277 C 
ENDBRANCH   3  18
BRANCH   4  20
ATOM     20  O   LIG A   1      -6.250   1.844 129.476  0.00  0.00    -0.488 OA
ATOM     21  C   LIG A   1      -6.373   0.494 129.899  0.00  0.00    +0.277 C 
ENDBRANCH   4  20
BRANCH   5  22
ATOM     22  O   LIG A   1      -8.861   2.082 128.241  0.00  0.00    -0.491 OA
ATOM     23  C   LIG A   1      -8.229   2.438 127.011  0.00  0.00    +0.277 C 
ENDBRANCH   5  22
TORSDOF 5
ENDMDL
MODEL 8
REMARK VINA RESULT:      -6.2      3.609      6.511
REMARK  Name = NuBBE_18
REMARK  8 active torsions:
REMARK  status: ('A' for Active; 'I' for Inactive)
REMARK    1  A    between atoms: C_2  and  C_10
REMARK    2  A    between atoms: C_11  and  C_12
REMARK    3  A    between atoms: C_14  and  O_15
REMARK    4  A    between atoms: O_15  and  C_16
REMARK    5  A    between atoms: C_17  and  O_18
REMARK    6  A    between atoms: O_18  and  C_19
REMARK    7  A    between atoms: C_20  and  O_21
REMARK    8  A    between atoms: O_21  and  C_22
REMARK                            x       y       z     vdW  Elec       q    Type
REMARK                         _______ _______ _______ _____ _____    ______ ____
ROOT
ATOM      1  C   LIG A   1      -7.884  -3.290 129.196  0.00  0.00    -0.018 A 
ATOM      2  C   LIG A   1      -6.613  -3.846 129.284  0.00  0.00    +0.057 A 
ATOM      3  C   LIG A   1      -5.667  -3.338 130.183  0.00  0.00    +0.166 A 
ATOM      4  C   LIG A   1      -5.996  -2.241 131.014  0.00  0.00    +0.203 A 
ATOM      5  C   LIG A   1      -7.287  -1.683 130.929  0.00  0.00    +0.166 A 
ATOM      6  C   LIG A   1      -8.233  -2.248 130.051  0.00  0.00    +0.057 A 
ENDROOT
BRANCH   1   8
ATOM      7  C   LIG A   1      -9.059  -3.309 126.976  0.00  0.00    +0.068 C 
ATOM      8  C   LIG A   1      -8.827  -3.808 128.203  0.00  0.00    +0.013 C 
BRANCH   7  10
ATOM      9  O   LIG A   1      -8.611  -1.001 126.763  0.00  0.00    -0.270 OA
ATOM     10  C   LIG A   1      -8.377  -2.135 126.348  0.00  0.00    +0.246 C 
ATOM     11  N   LIG A   1      -7.433  -2.393 125.340  0.00  0.00    -0.235 N 
ATOM     12  C   LIG A   1      -6.728  -1.227 124.799  0.00  0.00    +0.121 C 
ATOM     13  C   LIG A   1      -5.242  -1.489 124.573  0.00  0.00    +0.047 C 
ATOM     14  C   LIG A   1      -5.040  -2.790 123.871  0.00  0.00    -0.020 C 
ATOM     15  C   LIG A   1      -5.974  -3.748 123.901  0.00  0.00    +0.064 C 
ATOM     16  C   LIG A   1      -7.220  -3.620 124.713  0.00  0.00    +0.246 C 
ATOM     17  O   LIG A   1      -7.959  -4.608 124.776  0.00  0.00    -0.270 OA
ENDBRANCH   7  10
ENDBRANCH   1   8
BRANCH   3  18
ATOM     18  O   LIG A   1      -4.416  -3.896 130.330  0.00  0.00    -0.491 OA
ATOM     19  C   LIG A   1      -3.516  -3.688 129.245  0.00  0.00    +0.277 C 
ENDBRANCH   3  18
BRANCH   4  20
ATOM     20  O   LIG A   1      -4.947  -1.749 131.757  0.00  0.00    -0.488 OA
ATOM     21  C   LIG A   1      -4.253  -0.609 131.270  0.00  0.00    +0.277 C 
ENDBRANCH   4  20
BRANCH   5  22
ATOM     22  O   LIG A   1      -7.604  -0.592 131.703  0.00  0.00    -0.491 OA
ATOM     23  C   LIG A   1      -7.887   0.604 130.976  0.00  0.00    +0.277 C 
ENDBRANCH   5  22
TORSDOF 5
ENDMDL
MODEL 9
REMARK VINA RESULT:      -6.1      3.735      7.060
REMARK  Name = NuBBE_18
REMARK  8 active torsions:
REMARK  status: ('A' for Active; 'I' for Inactive)
REMARK    1  A    between atoms: C_2  and  C_10
REMARK    2  A    between atoms: C_11  and  C_12
REMARK    3  A    between atoms: C_14  and  O_15
REMARK    4  A    between atoms: O_15  and  C_16
REMARK    5  A    between atoms: C_17  and  O_18
REMARK    6  A    between atoms: O_18  and  C_19
REMARK    7  A    between atoms: C_20  and  O_21
REMARK    8  A    between atoms: O_21  and  C_22
REMARK                            x       y       z     vdW  Elec       q    Type
REMARK                         _______ _______ _______ _____ _____    ______ ____
ROOT
ATOM      1  C   LIG A   1      -7.735  -3.076 129.620  0.00  0.00    -0.018 A 
ATOM      2  C   LIG A   1      -6.667  -3.824 130.103  0.00  0.00    +0.057 A 
ATOM      3  C   LIG A   1      -5.822  -3.311 131.095  0.00  0.00    +0.166 A 
ATOM      4  C   LIG A   1      -6.044  -2.015 131.615  0.00  0.00    +0.203 A 
ATOM      5  C   LIG A   1      -7.132  -1.261 131.130  0.00  0.00    +0.166 A 
ATOM      6  C   LIG A   1      -7.993  -1.823 130.169  0.00  0.00    +0.057 A 
ENDROOT
BRANCH   1   8
ATOM      7  C   LIG A   1      -8.416  -3.392 127.223  0.00  0.00    +0.068 C 
ATOM      8  C   LIG A   1      -8.562  -3.619 128.540  0.00  0.00    +0.013 C 
BRANCH   7  10
ATOM      9  O   LIG A   1      -6.333  -2.281 127.196  0.00  0.00    -0.270 OA
ATOM     10  C   LIG A   1      -7.356  -2.561 126.573  0.00  0.00    +0.246 C 
ATOM     11  N   LIG A   1      -7.551  -2.190 125.232  0.00  0.00    -0.235 N 
ATOM     12  C   LIG A   1      -6.459  -1.441 124.602  0.00  0.00    +0.121 C 
ATOM     13  C   LIG A   1      -6.183  -1.891 123.170  0.00  0.00    +0.047 C 
ATOM     14  C   LIG A   1      -7.459  -2.007 122.404  0.00  0.00    -0.020 C 
ATOM     15  C   LIG A   1      -8.633  -2.164 123.027  0.00  0.00    +0.064 C 
ATOM     16  C   LIG A   1      -8.732  -2.334 124.505  0.00  0.00    +0.246 C 
ATOM     17  O   LIG A   1      -9.846  -2.599 124.971  0.00  0.00    -0.270 OA
ENDBRANCH   7  10
ENDBRANCH   1   8
BRANCH   3  18
ATOM     18  O   LIG A   1      -4.785  -4.044 131.629  0.00  0.00    -0.491 OA
ATOM     19  C   LIG A   1      -5.164  -5.102 132.505  0.00  0.00    +0.277 C 
ENDBRANCH   3  18
BRANCH   4  20
ATOM     20  O   LIG A   1      -5.074  -1.572 132.486  0.00  0.00    -0.488 OA
ATOM     21  C   LIG A   1      -4.015  -0.781 131.967  0.00  0.00    +0.277 C 
ENDBRANCH   4  20
BRANCH   5  22
ATOM     22  O   LIG A   1      -7.333   0.015 131.601  0.00  0.00    -0.491 OA
ATOM     23  C   LIG A   1      -8.689   0.339 131.908  0.00  0.00    +0.277 C 
ENDBRANCH   5  22
TORSDOF 5
ENDMDL
