MODEL 1
REMARK VINA RESULT:      -7.1      0.000      0.000
REMARK  Name = NuBBE_2476
REMARK  16 active torsions:
REMARK  status: ('A' for Active; 'I' for Inactive)
REMARK    1  A    between atoms: C_1  and  O_2
REMARK    2  A    between atoms: O_2  and  C_3
REMARK    3  A    between atoms: C_5  and  C_6
REMARK    4  A    between atoms: C_6  and  C_7
REMARK    5  A    between atoms: C_9  and  C_11
REMARK    6  A    between atoms: C_11  and  O_12
REMARK    7  A    between atoms: O_12  and  C_13
REMARK    8  A    between atoms: C_13  and  C_14
REMARK    9  A    between atoms: C_16  and  C_18
REMARK   10  A    between atoms: C_21  and  O_22
REMARK   11  A    between atoms: O_22  and  C_23
REMARK   12  A    between atoms: C_24  and  O_25
REMARK   13  A    between atoms: O_25  and  C_26
REMARK   14  A    between atoms: C_32  and  O_33
REMARK   15  A    between atoms: O_33  and  C_34
REMARK   16  A    between atoms: C_34  and  C_35
REMARK                            x       y       z     vdW  Elec       q    Type
REMARK                         _______ _______ _______ _____ _____    ______ ____
ROOT
ATOM      1  C   LIG A   1      -8.897   3.666 131.231  0.00  0.00    +0.028 C 
ATOM      2  C   LIG A   1      -9.357   5.095 131.561  0.00  0.00    +0.066 C 
ATOM      3  C   LIG A   1     -10.856   5.039 131.218  0.00  0.00    +0.155 C 
ATOM      4  O   LIG A   1     -11.016   3.993 130.236  0.00  0.00    -0.371 OA
ATOM      5  C   LIG A   1      -9.723   3.444 129.962  0.00  0.00    +0.165 C 
ENDROOT
BRANCH   3   6
ATOM      6  C   LIG A   1     -11.407   6.313 130.635  0.00  0.00    -0.015 A 
ATOM      7  C   LIG A   1     -12.424   7.018 131.278  0.00  0.00    +0.010 A 
ATOM      8  C   LIG A   1     -12.925   8.196 130.718  0.00  0.00    +0.050 A 
ATOM      9  C   LIG A   1     -12.406   8.693 129.516  0.00  0.00    +0.162 A 
ATOM     10  C   LIG A   1     -11.397   7.980 128.846  0.00  0.00    +0.162 A 
ATOM     11  C   LIG A   1     -10.915   6.800 129.414  0.00  0.00    +0.055 A 
BRANCH   9  12
ATOM     12  O   LIG A   1     -12.870   9.835 128.911  0.00  0.00    -0.491 OA
ATOM     13  C   LIG A   1     -13.482  10.786 129.774  0.00  0.00    +0.277 C 
ENDBRANCH   9  12
BRANCH  10  14
ATOM     14  O   LIG A   1     -10.931   8.501 127.664  0.00  0.00    -0.491 OA
ATOM     15  C   LIG A   1     -11.002   7.657 126.518  0.00  0.00    +0.277 C 
ENDBRANCH  10  14
ENDBRANCH   3   6
BRANCH   1  16
ATOM     16  C   LIG A   1      -9.215   2.628 132.327  0.00  0.00    +0.041 C 
BRANCH  16  19
ATOM     17  C   LIG A   1      -6.382   0.083 132.665  0.00  0.00    +0.163 A 
ATOM     18  C   LIG A   1      -7.118   1.267 132.724  0.00  0.00    +0.053 A 
ATOM     19  C   LIG A   1      -8.424   1.342 132.209  0.00  0.00    -0.043 A 
ATOM     20  C   LIG A   1      -8.976   0.212 131.596  0.00  0.00    +0.007 A 
ATOM     21  C   LIG A   1      -8.238  -0.971 131.492  0.00  0.00    +0.050 A 
ATOM     22  C   LIG A   1      -6.947  -1.027 132.025  0.00  0.00    +0.173 A 
BRANCH  17  24
ATOM     23  C   LIG A   1      -4.047   0.557 132.591  0.00  0.00    +0.277 C 
ATOM     24  O   LIG A   1      -5.142  -0.096 133.225  0.00  0.00    -0.491 OA
ENDBRANCH  17  24
BRANCH  22  25
ATOM     25  O   LIG A   1      -6.189  -2.216 132.088  0.00  0.00    -0.422 OA
BRANCH  25  26
ATOM     26  C   LIG A   1      -5.557  -2.735 130.971  0.00  0.00    +0.309 C 
ATOM     27  C   LIG A   1      -5.715  -4.224 131.017  0.00  0.00    +0.136 C 
ATOM     28  O   LIG A   1      -5.045  -2.104 130.058  0.00  0.00    -0.251 OA
ENDBRANCH  25  26
ENDBRANCH  22  25
ENDBRANCH  16  19
ENDBRANCH   1  16
BRANCH   2  29
ATOM     29  C   LIG A   1      -9.107   5.685 132.946  0.00  0.00    +0.238 C 
BRANCH  29  30
ATOM     30  O   LIG A   1      -7.734   6.048 133.176  0.00  0.00    -0.464 OA
BRANCH  30  31
ATOM     31  C   LIG A   1      -7.008   5.173 133.951  0.00  0.00    +0.304 C 
ATOM     32  C   LIG A   1      -7.759   4.873 135.219  0.00  0.00    +0.136 C 
ATOM     33  O   LIG A   1      -5.907   4.733 133.683  0.00  0.00    -0.251 OA
ENDBRANCH  30  31
ENDBRANCH  29  30
ENDBRANCH   2  29
TORSDOF 11
ENDMDL
MODEL 2
REMARK VINA RESULT:      -7.0      5.494      7.193
REMARK  Name = NuBBE_2476
REMARK  16 active torsions:
REMARK  status: ('A' for Active; 'I' for Inactive)
REMARK    1  A    between atoms: C_1  and  O_2
REMARK    2  A    between atoms: O_2  and  C_3
REMARK    3  A    between atoms: C_5  and  C_6
REMARK    4  A    between atoms: C_6  and  C_7
REMARK    5  A    between atoms: C_9  and  C_11
REMARK    6  A    between atoms: C_11  and  O_12
REMARK    7  A    between atoms: O_12  and  C_13
REMARK    8  A    between atoms: C_13  and  C_14
REMARK    9  A    between atoms: C_16  and  C_18
REMARK   10  A    between atoms: C_21  and  O_22
REMARK   11  A    between atoms: O_22  and  C_23
REMARK   12  A    between atoms: C_24  and  O_25
REMARK   13  A    between atoms: O_25  and  C_26
REMARK   14  A    between atoms: C_32  and  O_33
REMARK   15  A    between atoms: O_33  and  C_34
REMARK   16  A    between atoms: C_34  and  C_35
REMARK                            x       y       z     vdW  Elec       q    Type
REMARK                         _______ _______ _______ _____ _____    ______ ____
ROOT
ATOM      1  C   LIG A   1      -7.315  -2.641 127.670  0.00  0.00    +0.028 C 
ATOM      2  C   LIG A   1      -6.926  -1.184 127.373  0.00  0.00    +0.066 C 
ATOM      3  C   LIG A   1      -8.232  -0.613 126.793  0.00  0.00    +0.155 C 
ATOM      4  O   LIG A   1      -8.960  -1.728 126.238  0.00  0.00    -0.371 OA
ATOM      5  C   LIG A   1      -8.173  -2.908 126.431  0.00  0.00    +0.165 C 
ENDROOT
BRANCH   3   6
ATOM      6  C   LIG A   1      -8.033   0.402 125.698  0.00  0.00    -0.015 A 
ATOM      7  C   LIG A   1      -7.372   0.066 124.516  0.00  0.00    +0.010 A 
ATOM      8  C   LIG A   1      -7.194   1.024 123.515  0.00  0.00    +0.050 A 
ATOM      9  C   LIG A   1      -7.686   2.325 123.674  0.00  0.00    +0.162 A 
ATOM     10  C   LIG A   1      -8.333   2.683 124.869  0.00  0.00    +0.162 A 
ATOM     11  C   LIG A   1      -8.494   1.717 125.864  0.00  0.00    +0.055 A 
BRANCH   9  12
ATOM     12  O   LIG A   1      -7.525   3.311 122.731  0.00  0.00    -0.491 OA
ATOM     13  C   LIG A   1      -6.180   3.619 122.384  0.00  0.00    +0.277 C 
ENDBRANCH   9  12
BRANCH  10  14
ATOM     14  O   LIG A   1      -8.785   3.975 124.983  0.00  0.00    -0.491 OA
ATOM     15  C   LIG A   1      -8.063   4.833 125.861  0.00  0.00    +0.277 C 
ENDBRANCH  10  14
ENDBRANCH   3   6
BRANCH   1  16
ATOM     16  C   LIG A   1      -8.104  -2.832 128.982  0.00  0.00    +0.041 C 
BRANCH  16  19
ATOM     17  C   LIG A   1      -6.748  -3.273 132.529  0.00  0.00    +0.163 A 
ATOM     18  C   LIG A   1      -7.481  -2.811 131.435  0.00  0.00    +0.053 A 
ATOM     19  C   LIG A   1      -7.264  -3.321 130.143  0.00  0.00    -0.043 A 
ATOM     20  C   LIG A   1      -6.268  -4.285 129.954  0.00  0.00    +0.007 A 
ATOM     21  C   LIG A   1      -5.498  -4.731 131.032  0.00  0.00    +0.050 A 
ATOM     22  C   LIG A   1      -5.741  -4.222 132.310  0.00  0.00    +0.173 A 
BRANCH  17  24
ATOM     23  C   LIG A   1      -8.212  -3.255 134.410  0.00  0.00    +0.277 C 
ATOM     24  O   LIG A   1      -6.963  -2.895 133.831  0.00  0.00    -0.491 OA
ENDBRANCH  17  24
BRANCH  22  25
ATOM     25  O   LIG A   1      -5.109  -4.715 133.472  0.00  0.00    -0.422 OA
BRANCH  25  26
ATOM     26  C   LIG A   1      -3.745  -4.956 133.511  0.00  0.00    +0.309 C 
ATOM     27  C   LIG A   1      -3.553  -6.373 133.960  0.00  0.00    +0.136 C 
ATOM     28  O   LIG A   1      -2.856  -4.197 133.156  0.00  0.00    -0.251 OA
ENDBRANCH  25  26
ENDBRANCH  22  25
ENDBRANCH  16  19
ENDBRANCH   1  16
BRANCH   2  29
ATOM     29  C   LIG A   1      -6.353  -0.299 128.476  0.00  0.00    +0.238 C 
BRANCH  29  30
ATOM     30  O   LIG A   1      -5.122   0.350 128.109  0.00  0.00    -0.464 OA
BRANCH  30  31
ATOM     31  C   LIG A   1      -5.235   1.664 127.718  0.00  0.00    +0.304 C 
ATOM     32  C   LIG A   1      -4.594   1.849 126.369  0.00  0.00    +0.136 C 
ATOM     33  O   LIG A   1      -5.737   2.559 128.369  0.00  0.00    -0.251 OA
ENDBRANCH  30  31
ENDBRANCH  29  30
ENDBRANCH   2  29
TORSDOF 11
ENDMDL
MODEL 3
REMARK VINA RESULT:      -6.9      4.223      9.690
REMARK  Name = NuBBE_2476
REMARK  16 active torsions:
REMARK  status: ('A' for Active; 'I' for Inactive)
REMARK    1  A    between atoms: C_1  and  O_2
REMARK    2  A    between atoms: O_2  and  C_3
REMARK    3  A    between atoms: C_5  and  C_6
REMARK    4  A    between atoms: C_6  and  C_7
REMARK    5  A    between atoms: C_9  and  C_11
REMARK    6  A    between atoms: C_11  and  O_12
REMARK    7  A    between atoms: O_12  and  C_13
REMARK    8  A    between atoms: C_13  and  C_14
REMARK    9  A    between atoms: C_16  and  C_18
REMARK   10  A    between atoms: C_21  and  O_22
REMARK   11  A    between atoms: O_22  and  C_23
REMARK   12  A    between atoms: C_24  and  O_25
REMARK   13  A    between atoms: O_25  and  C_26
REMARK   14  A    between atoms: C_32  and  O_33
REMARK   15  A    between atoms: O_33  and  C_34
REMARK   16  A    between atoms: C_34  and  C_35
REMARK                            x       y       z     vdW  Elec       q    Type
REMARK                         _______ _______ _______ _____ _____    ______ ____
ROOT
ATOM      1  C   LIG A   1      -7.269   1.348 129.757  0.00  0.00    +0.028 C 
ATOM      2  C   LIG A   1      -7.528   0.994 128.284  0.00  0.00    +0.066 C 
ATOM      3  C   LIG A   1      -7.784  -0.521 128.355  0.00  0.00    +0.155 C 
ATOM      4  O   LIG A   1      -7.104  -1.001 129.534  0.00  0.00    -0.371 OA
ATOM      5  C   LIG A   1      -6.452   0.115 130.150  0.00  0.00    +0.165 C 
ENDROOT
BRANCH   3   6
ATOM      6  C   LIG A   1      -7.265  -1.295 127.173  0.00  0.00    -0.015 A 
ATOM      7  C   LIG A   1      -5.959  -1.118 126.714  0.00  0.00    +0.010 A 
ATOM      8  C   LIG A   1      -5.498  -1.842 125.612  0.00  0.00    +0.050 A 
ATOM      9  C   LIG A   1      -6.328  -2.764 124.963  0.00  0.00    +0.162 A 
ATOM     10  C   LIG A   1      -7.652  -2.935 125.401  0.00  0.00    +0.162 A 
ATOM     11  C   LIG A   1      -8.102  -2.197 126.497  0.00  0.00    +0.055 A 
BRANCH   9  12
ATOM     12  O   LIG A   1      -5.934  -3.491 123.866  0.00  0.00    -0.491 OA
ATOM     13  C   LIG A   1      -4.556  -3.843 123.821  0.00  0.00    +0.277 C 
ENDBRANCH   9  12
BRANCH  10  14
ATOM     14  O   LIG A   1      -8.432  -3.841 124.724  0.00  0.00    -0.491 OA
ATOM     15  C   LIG A   1      -9.393  -3.309 123.816  0.00  0.00    +0.277 C 
ENDBRANCH  10  14
ENDBRANCH   3   6
BRANCH   1  16
ATOM     16  C   LIG A   1      -8.548   1.498 130.607  0.00  0.00    +0.041 C 
BRANCH  16  19
ATOM     17  C   LIG A   1      -8.656   5.292 131.071  0.00  0.00    +0.163 A 
ATOM     18  C   LIG A   1      -8.208   3.971 131.027  0.00  0.00    +0.053 A 
ATOM     19  C   LIG A   1      -9.073   2.917 130.688  0.00  0.00    -0.043 A 
ATOM     20  C   LIG A   1     -10.417   3.202 130.424  0.00  0.00    +0.007 A 
ATOM     21  C   LIG A   1     -10.892   4.514 130.501  0.00  0.00    +0.050 A 
ATOM     22  C   LIG A   1     -10.011   5.549 130.825  0.00  0.00    +0.173 A 
BRANCH  17  24
ATOM     23  C   LIG A   1      -6.456   6.209 131.108  0.00  0.00    +0.277 C 
ATOM     24  O   LIG A   1      -7.856   6.383 131.302  0.00  0.00    -0.491 OA
ENDBRANCH  17  24
BRANCH  22  25
ATOM     25  O   LIG A   1     -10.373   6.913 130.789  0.00  0.00    -0.422 OA
BRANCH  25  26
ATOM     26  C   LIG A   1     -10.592   7.576 129.593  0.00  0.00    +0.309 C 
ATOM     27  C   LIG A   1     -11.943   8.218 129.676  0.00  0.00    +0.136 C 
ATOM     28  O   LIG A   1      -9.801   7.704 128.671  0.00  0.00    -0.251 OA
ENDBRANCH  25  26
ENDBRANCH  22  25
ENDBRANCH  16  19
ENDBRANCH   1  16
BRANCH   2  29
ATOM     29  C   LIG A   1      -8.612   1.723 127.495  0.00  0.00    +0.238 C 
BRANCH  29  30
ATOM     30  O   LIG A   1      -8.128   2.341 126.290  0.00  0.00    -0.464 OA
BRANCH  30  31
ATOM     31  C   LIG A   1      -8.667   1.864 125.118  0.00  0.00    +0.304 C 
ATOM     32  C   LIG A   1      -7.620   1.108 124.346  0.00  0.00    +0.136 C 
ATOM     33  O   LIG A   1      -9.804   2.052 124.730  0.00  0.00    -0.251 OA
ENDBRANCH  30  31
ENDBRANCH  29  30
ENDBRANCH   2  29
TORSDOF 11
ENDMDL
MODEL 4
REMARK VINA RESULT:      -6.9      6.469      9.979
REMARK  Name = NuBBE_2476
REMARK  16 active torsions:
REMARK  status: ('A' for Active; 'I' for Inactive)
REMARK    1  A    between atoms: C_1  and  O_2
REMARK    2  A    between atoms: O_2  and  C_3
REMARK    3  A    between atoms: C_5  and  C_6
REMARK    4  A    between atoms: C_6  and  C_7
REMARK    5  A    between atoms: C_9  and  C_11
REMARK    6  A    between atoms: C_11  and  O_12
REMARK    7  A    between atoms: O_12  and  C_13
REMARK    8  A    between atoms: C_13  and  C_14
REMARK    9  A    between atoms: C_16  and  C_18
REMARK   10  A    between atoms: C_21  and  O_22
REMARK   11  A    between atoms: O_22  and  C_23
REMARK   12  A    between atoms: C_24  and  O_25
REMARK   13  A    between atoms: O_25  and  C_26
REMARK   14  A    between atoms: C_32  and  O_33
REMARK   15  A    between atoms: O_33  and  C_34
REMARK   16  A    between atoms: C_34  and  C_35
REMARK                            x       y       z     vdW  Elec       q    Type
REMARK                         _______ _______ _______ _____ _____    ______ ____
ROOT
ATOM      1  C   LIG A   1      -4.185   3.994 126.161  0.00  0.00    +0.028 C 
ATOM      2  C   LIG A   1      -5.162   3.363 125.157  0.00  0.00    +0.066 C 
ATOM      3  C   LIG A   1      -5.995   2.434 126.057  0.00  0.00    +0.155 C 
ATOM      4  O   LIG A   1      -5.166   2.106 127.192  0.00  0.00    -0.371 OA
ATOM      5  C   LIG A   1      -3.903   2.758 127.018  0.00  0.00    +0.165 C 
ENDROOT
BRANCH   3   6
ATOM      6  C   LIG A   1      -6.413   1.145 125.400  0.00  0.00    -0.015 A 
ATOM      7  C   LIG A   1      -5.634  -0.007 125.514  0.00  0.00    +0.010 A 
ATOM      8  C   LIG A   1      -6.037  -1.191 124.893  0.00  0.00    +0.050 A 
ATOM      9  C   LIG A   1      -7.231  -1.246 124.163  0.00  0.00    +0.162 A 
ATOM     10  C   LIG A   1      -8.013  -0.088 124.022  0.00  0.00    +0.162 A 
ATOM     11  C   LIG A   1      -7.592   1.091 124.640  0.00  0.00    +0.055 A 
BRANCH   9  12
ATOM     12  O   LIG A   1      -7.668  -2.378 123.518  0.00  0.00    -0.491 OA
ATOM     13  C   LIG A   1      -8.074  -3.450 124.360  0.00  0.00    +0.277 C 
ENDBRANCH   9  12
BRANCH  10  14
ATOM     14  O   LIG A   1      -9.168  -0.188 123.285  0.00  0.00    -0.491 OA
ATOM     15  C   LIG A   1      -9.806   1.033 122.921  0.00  0.00    +0.277 C 
ENDBRANCH  10  14
ENDBRANCH   3   6
BRANCH   1  16
ATOM     16  C   LIG A   1      -4.782   5.154 126.984  0.00  0.00    +0.041 C 
BRANCH  16  19
ATOM     17  C   LIG A   1      -3.832   5.529 130.668  0.00  0.00    +0.163 A 
ATOM     18  C   LIG A   1      -4.550   5.259 129.502  0.00  0.00    +0.053 A 
ATOM     19  C   LIG A   1      -3.995   5.497 128.232  0.00  0.00    -0.043 A 
ATOM     20  C   LIG A   1      -2.712   6.047 128.146  0.00  0.00    +0.007 A 
ATOM     21  C   LIG A   1      -1.994   6.359 129.303  0.00  0.00    +0.050 A 
ATOM     22  C   LIG A   1      -2.558   6.101 130.555  0.00  0.00    +0.173 A 
BRANCH  17  24
ATOM     23  C   LIG A   1      -5.298   6.062 132.470  0.00  0.00    +0.277 C 
ATOM     24  O   LIG A   1      -4.265   5.240 131.938  0.00  0.00    -0.491 OA
ENDBRANCH  17  24
BRANCH  22  25
ATOM     25  O   LIG A   1      -1.852   6.255 131.767  0.00  0.00    -0.422 OA
BRANCH  25  26
ATOM     26  C   LIG A   1      -1.673   7.498 132.352  0.00  0.00    +0.309 C 
ATOM     27  C   LIG A   1      -0.290   7.529 132.927  0.00  0.00    +0.136 C 
ATOM     28  O   LIG A   1      -2.453   8.438 132.327  0.00  0.00    -0.251 OA
ENDBRANCH  25  26
ENDBRANCH  22  25
ENDBRANCH  16  19
ENDBRANCH   1  16
BRANCH   2  29
ATOM     29  C   LIG A   1      -6.041   4.247 124.276  0.00  0.00    +0.238 C 
BRANCH  29  30
ATOM     30  O   LIG A   1      -5.437   4.582 123.015  0.00  0.00    -0.464 OA
BRANCH  30  31
ATOM     31  C   LIG A   1      -5.977   3.962 121.912  0.00  0.00    +0.304 C 
ATOM     32  C   LIG A   1      -5.325   4.488 120.662  0.00  0.00    +0.136 C 
ATOM     33  O   LIG A   1      -6.873   3.141 121.927  0.00  0.00    -0.251 OA
ENDBRANCH  30  31
ENDBRANCH  29  30
ENDBRANCH   2  29
TORSDOF 11
ENDMDL
MODEL 5
REMARK VINA RESULT:      -6.9      5.822      8.413
REMARK  Name = NuBBE_2476
REMARK  16 active torsions:
REMARK  status: ('A' for Active; 'I' for Inactive)
REMARK    1  A    between atoms: C_1  and  O_2
REMARK    2  A    between atoms: O_2  and  C_3
REMARK    3  A    between atoms: C_5  and  C_6
REMARK    4  A    between atoms: C_6  and  C_7
REMARK    5  A    between atoms: C_9  and  C_11
REMARK    6  A    between atoms: C_11  and  O_12
REMARK    7  A    between atoms: O_12  and  C_13
REMARK    8  A    between atoms: C_13  and  C_14
REMARK    9  A    between atoms: C_16  and  C_18
REMARK   10  A    between atoms: C_21  and  O_22
REMARK   11  A    between atoms: O_22  and  C_23
REMARK   12  A    between atoms: C_24  and  O_25
REMARK   13  A    between atoms: O_25  and  C_26
REMARK   14  A    between atoms: C_32  and  O_33
REMARK   15  A    between atoms: O_33  and  C_34
REMARK   16  A    between atoms: C_34  and  C_35
REMARK                            x       y       z     vdW  Elec       q    Type
REMARK                         _______ _______ _______ _____ _____    ______ ____
ROOT
ATOM      1  C   LIG A   1      -3.974   2.969 127.123  0.00  0.00    +0.028 C 
ATOM      2  C   LIG A   1      -4.436   3.628 128.433  0.00  0.00    +0.066 C 
ATOM      3  C   LIG A   1      -4.040   5.098 128.213  0.00  0.00    +0.155 C 
ATOM      4  O   LIG A   1      -2.949   5.095 127.267  0.00  0.00    -0.371 OA
ATOM      5  C   LIG A   1      -2.663   3.733 126.931  0.00  0.00    +0.165 C 
ENDROOT
BRANCH   3   6
ATOM      6  C   LIG A   1      -3.575   5.809 129.456  0.00  0.00    -0.015 A 
ATOM      7  C   LIG A   1      -3.846   7.162 129.656  0.00  0.00    +0.010 A 
ATOM      8  C   LIG A   1      -3.402   7.804 130.815  0.00  0.00    +0.050 A 
ATOM      9  C   LIG A   1      -2.694   7.098 131.796  0.00  0.00    +0.162 A 
ATOM     10  C   LIG A   1      -2.394   5.741 131.596  0.00  0.00    +0.162 A 
ATOM     11  C   LIG A   1      -2.836   5.117 130.429  0.00  0.00    +0.055 A 
BRANCH   9  12
ATOM     12  O   LIG A   1      -2.218   7.681 132.946  0.00  0.00    -0.491 OA
ATOM     13  C   LIG A   1      -2.162   9.102 132.940  0.00  0.00    +0.277 C 
ENDBRANCH   9  12
BRANCH  10  14
ATOM     14  O   LIG A   1      -1.685   5.096 132.581  0.00  0.00    -0.491 OA
ATOM     15  C   LIG A   1      -2.206   3.850 133.036  0.00  0.00    +0.277 C 
ENDBRANCH  10  14
ENDBRANCH   3   6
BRANCH   1  16
ATOM     16  C   LIG A   1      -4.945   3.162 125.940  0.00  0.00    +0.041 C 
BRANCH  16  19
ATOM     17  C   LIG A   1      -7.405   0.821 124.184  0.00  0.00    +0.163 A 
ATOM     18  C   LIG A   1      -6.739   1.971 124.611  0.00  0.00    +0.053 A 
ATOM     19  C   LIG A   1      -5.676   1.902 125.528  0.00  0.00    -0.043 A 
ATOM     20  C   LIG A   1      -5.308   0.655 126.044  0.00  0.00    +0.007 A 
ATOM     21  C   LIG A   1      -5.989  -0.503 125.658  0.00  0.00    +0.050 A 
ATOM     22  C   LIG A   1      -7.032  -0.413 124.733  0.00  0.00    +0.173 A 
BRANCH  17  24
ATOM     23  C   LIG A   1      -9.005   2.036 122.902  0.00  0.00    +0.277 C 
ATOM     24  O   LIG A   1      -8.386   0.795 123.225  0.00  0.00    -0.491 OA
ENDBRANCH  17  24
BRANCH  22  25
ATOM     25  O   LIG A   1      -7.679  -1.541 124.184  0.00  0.00    -0.422 OA
BRANCH  25  26
ATOM     26  C   LIG A   1      -8.893  -1.992 124.673  0.00  0.00    +0.309 C 
ATOM     27  C   LIG A   1      -9.264  -3.217 123.894  0.00  0.00    +0.136 C 
ATOM     28  O   LIG A   1      -9.512  -1.543 125.627  0.00  0.00    -0.251 OA
ENDBRANCH  25  26
ENDBRANCH  22  25
ENDBRANCH  16  19
ENDBRANCH   1  16
BRANCH   2  29
ATOM     29  C   LIG A   1      -5.883   3.488 128.898  0.00  0.00    +0.238 C 
BRANCH  29  30
ATOM     30  O   LIG A   1      -6.714   4.604 128.535  0.00  0.00    -0.464 OA
BRANCH  30  31
ATOM     31  C   LIG A   1      -7.869   4.291 127.857  0.00  0.00    +0.304 C 
ATOM     32  C   LIG A   1      -8.168   2.825 128.012  0.00  0.00    +0.136 C 
ATOM     33  O   LIG A   1      -8.536   5.063 127.196  0.00  0.00    -0.251 OA
ENDBRANCH  30  31
ENDBRANCH  29  30
ENDBRANCH   2  29
TORSDOF 11
ENDMDL
MODEL 6
REMARK VINA RESULT:      -6.8      2.340      3.902
REMARK  Name = NuBBE_2476
REMARK  16 active torsions:
REMARK  status: ('A' for Active; 'I' for Inactive)
REMARK    1  A    between atoms: C_1  and  O_2
REMARK    2  A    between atoms: O_2  and  C_3
REMARK    3  A    between atoms: C_5  and  C_6
REMARK    4  A    between atoms: C_6  and  C_7
REMARK    5  A    between atoms: C_9  and  C_11
REMARK    6  A    between atoms: C_11  and  O_12
REMARK    7  A    between atoms: O_12  and  C_13
REMARK    8  A    between atoms: C_13  and  C_14
REMARK    9  A    between atoms: C_16  and  C_18
REMARK   10  A    between atoms: C_21  and  O_22
REMARK   11  A    between atoms: O_22  and  C_23
REMARK   12  A    between atoms: C_24  and  O_25
REMARK   13  A    between atoms: O_25  and  C_26
REMARK   14  A    between atoms: C_32  and  O_33
REMARK   15  A    between atoms: O_33  and  C_34
REMARK   16  A    between atoms: C_34  and  C_35
REMARK                            x       y       z     vdW  Elec       q    Type
REMARK                         _______ _______ _______ _____ _____    ______ ____
ROOT
ATOM      1  C   LIG A   1      -8.857   2.454 130.348  0.00  0.00    +0.028 C 
ATOM      2  C   LIG A   1      -9.070   3.758 129.560  0.00  0.00    +0.066 C 
ATOM      3  C   LIG A   1      -9.265   4.787 130.687  0.00  0.00    +0.155 C 
ATOM      4  O   LIG A   1      -9.758   4.060 131.832  0.00  0.00    -0.371 OA
ATOM      5  C   LIG A   1      -9.886   2.684 131.457  0.00  0.00    +0.165 C 
ENDROOT
BRANCH   3   6
ATOM      6  C   LIG A   1     -10.254   5.877 130.368  0.00  0.00    -0.015 A 
ATOM      7  C   LIG A   1     -11.353   6.115 131.193  0.00  0.00    +0.010 A 
ATOM      8  C   LIG A   1     -12.262   7.128 130.876  0.00  0.00    +0.050 A 
ATOM      9  C   LIG A   1     -12.076   7.926 129.740  0.00  0.00    +0.162 A 
ATOM     10  C   LIG A   1     -10.986   7.681 128.889  0.00  0.00    +0.162 A 
ATOM     11  C   LIG A   1     -10.093   6.659 129.214  0.00  0.00    +0.055 A 
BRANCH   9  12
ATOM     12  O   LIG A   1     -12.946   8.924 129.371  0.00  0.00    -0.491 OA
ATOM     13  C   LIG A   1     -13.088   9.993 130.299  0.00  0.00    +0.277 C 
ENDBRANCH   9  12
BRANCH  10  14
ATOM     14  O   LIG A   1     -10.855   8.482 127.781  0.00  0.00    -0.491 OA
ATOM     15  C   LIG A   1     -11.024   7.855 126.512  0.00  0.00    +0.277 C 
ENDBRANCH  10  14
ENDBRANCH   3   6
BRANCH   1  16
ATOM     16  C   LIG A   1      -7.429   2.274 130.901  0.00  0.00    +0.041 C 
BRANCH  16  19
ATOM     17  C   LIG A   1      -6.794  -1.092 129.203  0.00  0.00    +0.163 A 
ATOM     18  C   LIG A   1      -7.435   0.029 129.733  0.00  0.00    +0.053 A 
ATOM     19  C   LIG A   1      -6.711   1.049 130.373  0.00  0.00    -0.043 A 
ATOM     20  C   LIG A   1      -5.325   0.914 130.508  0.00  0.00    +0.007 A 
ATOM     21  C   LIG A   1      -4.671  -0.220 130.018  0.00  0.00    +0.050 A 
ATOM     22  C   LIG A   1      -5.408  -1.215 129.371  0.00  0.00    +0.173 A 
BRANCH  17  24
ATOM     23  C   LIG A   1      -8.232  -2.993 129.215  0.00  0.00    +0.277 C 
ATOM     24  O   LIG A   1      -7.416  -2.083 128.486  0.00  0.00    -0.491 OA
ENDBRANCH  17  24
BRANCH  22  25
ATOM     25  O   LIG A   1      -4.815  -2.321 128.727  0.00  0.00    -0.422 OA
BRANCH  25  26
ATOM     26  C   LIG A   1      -4.365  -3.422 129.437  0.00  0.00    +0.309 C 
ATOM     27  C   LIG A   1      -2.915  -3.606 129.110  0.00  0.00    +0.136 C 
ATOM     28  O   LIG A   1      -4.996  -4.073 130.256  0.00  0.00    -0.251 OA
ENDBRANCH  25  26
ENDBRANCH  22  25
ENDBRANCH  16  19
ENDBRANCH   1  16
BRANCH   2  29
ATOM     29  C   LIG A   1      -8.037   4.217 128.536  0.00  0.00    +0.238 C 
BRANCH  29  30
ATOM     30  O   LIG A   1      -8.230   3.646 127.230  0.00  0.00    -0.464 OA
BRANCH  30  31
ATOM     31  C   LIG A   1      -8.064   4.508 126.171  0.00  0.00    +0.304 C 
ATOM     32  C   LIG A   1      -6.864   4.095 125.362  0.00  0.00    +0.136 C 
ATOM     33  O   LIG A   1      -8.749   5.484 125.936  0.00  0.00    -0.251 OA
ENDBRANCH  30  31
ENDBRANCH  29  30
ENDBRANCH   2  29
TORSDOF 11
ENDMDL
MODEL 7
REMARK VINA RESULT:      -6.8      5.388      8.221
REMARK  Name = NuBBE_2476
REMARK  16 active torsions:
REMARK  status: ('A' for Active; 'I' for Inactive)
REMARK    1  A    between atoms: C_1  and  O_2
REMARK    2  A    between atoms: O_2  and  C_3
REMARK    3  A    between atoms: C_5  and  C_6
REMARK    4  A    between atoms: C_6  and  C_7
REMARK    5  A    between atoms: C_9  and  C_11
REMARK    6  A    between atoms: C_11  and  O_12
REMARK    7  A    between atoms: O_12  and  C_13
REMARK    8  A    between atoms: C_13  and  C_14
REMARK    9  A    between atoms: C_16  and  C_18
REMARK   10  A    between atoms: C_21  and  O_22
REMARK   11  A    between atoms: O_22  and  C_23
REMARK   12  A    between atoms: C_24  and  O_25
REMARK   13  A    between atoms: O_25  and  C_26
REMARK   14  A    between atoms: C_32  and  O_33
REMARK   15  A    between atoms: O_33  and  C_34
REMARK   16  A    between atoms: C_34  and  C_35
REMARK                            x       y       z     vdW  Elec       q    Type
REMARK                         _______ _______ _______ _____ _____    ______ ____
ROOT
ATOM      1  C   LIG A   1      -6.848   2.494 129.274  0.00  0.00    +0.028 C 
ATOM      2  C   LIG A   1      -5.335   2.760 129.211  0.00  0.00    +0.066 C 
ATOM      3  C   LIG A   1      -4.927   2.655 130.691  0.00  0.00    +0.155 C 
ATOM      4  O   LIG A   1      -6.103   2.968 131.467  0.00  0.00    -0.371 OA
ATOM      5  C   LIG A   1      -7.166   3.267 130.556  0.00  0.00    +0.165 C 
ENDROOT
BRANCH   3   6
ATOM      6  C   LIG A   1      -3.833   3.605 131.101  0.00  0.00    -0.015 A 
ATOM      7  C   LIG A   1      -3.135   3.426 132.295  0.00  0.00    +0.010 A 
ATOM      8  C   LIG A   1      -2.126   4.321 132.660  0.00  0.00    +0.050 A 
ATOM      9  C   LIG A   1      -1.791   5.398 131.829  0.00  0.00    +0.162 A 
ATOM     10  C   LIG A   1      -2.502   5.603 130.635  0.00  0.00    +0.162 A 
ATOM     11  C   LIG A   1      -3.514   4.705 130.290  0.00  0.00    +0.055 A 
BRANCH   9  12
ATOM     12  O   LIG A   1      -0.821   6.319 132.144  0.00  0.00    -0.491 OA
ATOM     13  C   LIG A   1      -0.644   6.578 133.532  0.00  0.00    +0.277 C 
ENDBRANCH   9  12
BRANCH  10  14
ATOM     14  O   LIG A   1      -2.146   6.680 129.862  0.00  0.00    -0.491 OA
ATOM     15  C   LIG A   1      -2.271   6.527 128.450  0.00  0.00    +0.277 C 
ENDBRANCH  10  14
ENDBRANCH   3   6
BRANCH   1  16
ATOM     16  C   LIG A   1      -7.226   1.002 129.381  0.00  0.00    +0.041 C 
BRANCH  16  19
ATOM     17  C   LIG A   1      -9.125   0.745 126.073  0.00  0.00    +0.163 A 
ATOM     18  C   LIG A   1      -8.590   1.241 127.263  0.00  0.00    +0.053 A 
ATOM     19  C   LIG A   1      -7.830   0.424 128.118  0.00  0.00    -0.043 A 
ATOM     20  C   LIG A   1      -7.640  -0.920 127.779  0.00  0.00    +0.007 A 
ATOM     21  C   LIG A   1      -8.202  -1.443 126.611  0.00  0.00    +0.050 A 
ATOM     22  C   LIG A   1      -8.941  -0.610 125.767  0.00  0.00    +0.173 A 
BRANCH  17  24
ATOM     23  C   LIG A   1      -9.046   2.488 124.449  0.00  0.00    +0.277 C 
ATOM     24  O   LIG A   1      -9.797   1.498 125.144  0.00  0.00    -0.491 OA
ENDBRANCH  17  24
BRANCH  22  25
ATOM     25  O   LIG A   1      -9.423  -1.018 124.506  0.00  0.00    -0.422 OA
BRANCH  25  26
ATOM     26  C   LIG A   1      -8.644  -1.762 123.635  0.00  0.00    +0.309 C 
ATOM     27  C   LIG A   1      -9.315  -3.089 123.452  0.00  0.00    +0.136 C 
ATOM     28  O   LIG A   1      -7.645  -1.384 123.042  0.00  0.00    -0.251 OA
ENDBRANCH  25  26
ENDBRANCH  22  25
ENDBRANCH  16  19
ENDBRANCH   1  16
BRANCH   2  29
ATOM     29  C   LIG A   1      -4.441   1.915 128.308  0.00  0.00    +0.238 C 
BRANCH  29  30
ATOM     30  O   LIG A   1      -4.600   2.206 126.908  0.00  0.00    -0.464 OA
BRANCH  30  31
ATOM     31  C   LIG A   1      -3.744   3.153 126.396  0.00  0.00    +0.304 C 
ATOM     32  C   LIG A   1      -2.379   2.988 127.005  0.00  0.00    +0.136 C 
ATOM     33  O   LIG A   1      -4.042   4.024 125.601  0.00  0.00    -0.251 OA
ENDBRANCH  30  31
ENDBRANCH  29  30
ENDBRANCH   2  29
TORSDOF 11
ENDMDL
MODEL 8
REMARK VINA RESULT:      -6.8      1.534      2.600
REMARK  Name = NuBBE_2476
REMARK  16 active torsions:
REMARK  status: ('A' for Active; 'I' for Inactive)
REMARK    1  A    between atoms: C_1  and  O_2
REMARK    2  A    between atoms: O_2  and  C_3
REMARK    3  A    between atoms: C_5  and  C_6
REMARK    4  A    between atoms: C_6  and  C_7
REMARK    5  A    between atoms: C_9  and  C_11
REMARK    6  A    between atoms: C_11  and  O_12
REMARK    7  A    between atoms: O_12  and  C_13
REMARK    8  A    between atoms: C_13  and  C_14
REMARK    9  A    between atoms: C_16  and  C_18
REMARK   10  A    between atoms: C_21  and  O_22
REMARK   11  A    between atoms: O_22  and  C_23
REMARK   12  A    between atoms: C_24  and  O_25
REMARK   13  A    between atoms: O_25  and  C_26
REMARK   14  A    between atoms: C_32  and  O_33
REMARK   15  A    between atoms: O_33  and  C_34
REMARK   16  A    between atoms: C_34  and  C_35
REMARK                            x       y       z     vdW  Elec       q    Type
REMARK                         _______ _______ _______ _____ _____    ______ ____
ROOT
ATOM      1  C   LIG A   1      -9.219   3.326 132.569  0.00  0.00    +0.028 C 
ATOM      2  C   LIG A   1      -9.941   3.880 131.329  0.00  0.00    +0.066 C 
ATOM      3  C   LIG A   1      -9.410   5.323 131.265  0.00  0.00    +0.155 C 
ATOM      4  O   LIG A   1      -9.025   5.682 132.609  0.00  0.00    -0.371 OA
ATOM      5  C   LIG A   1      -9.306   4.566 133.461  0.00  0.00    +0.165 C 
ENDROOT
BRANCH   3   6
ATOM      6  C   LIG A   1     -10.418   6.333 130.785  0.00  0.00    -0.015 A 
ATOM      7  C   LIG A   1     -11.581   6.591 131.512  0.00  0.00    +0.010 A 
ATOM      8  C   LIG A   1     -12.506   7.529 131.047  0.00  0.00    +0.050 A 
ATOM      9  C   LIG A   1     -12.275   8.233 129.859  0.00  0.00    +0.162 A 
ATOM     10  C   LIG A   1     -11.119   7.967 129.106  0.00  0.00    +0.162 A 
ATOM     11  C   LIG A   1     -10.210   7.019 129.579  0.00  0.00    +0.055 A 
BRANCH   9  12
ATOM     12  O   LIG A   1     -13.156   9.154 129.346  0.00  0.00    -0.491 OA
ATOM     13  C   LIG A   1     -13.230  10.393 130.041  0.00  0.00    +0.277 C 
ENDBRANCH   9  12
BRANCH  10  14
ATOM     14  O   LIG A   1     -10.944   8.673 127.941  0.00  0.00    -0.491 OA
ATOM     15  C   LIG A   1     -10.915   7.920 126.732  0.00  0.00    +0.277 C 
ENDBRANCH  10  14
ENDBRANCH   3   6
BRANCH   1  16
ATOM     16  C   LIG A   1      -7.762   2.890 132.311  0.00  0.00    +0.041 C 
BRANCH  16  19
ATOM     17  C   LIG A   1      -6.130  -0.510 131.680  0.00  0.00    +0.163 A 
ATOM     18  C   LIG A   1      -6.313   0.859 131.884  0.00  0.00    +0.053 A 
ATOM     19  C   LIG A   1      -7.597   1.407 132.049  0.00  0.00    -0.043 A 
ATOM     20  C   LIG A   1      -8.709   0.562 131.971  0.00  0.00    +0.007 A 
ATOM     21  C   LIG A   1      -8.547  -0.805 131.729  0.00  0.00    +0.050 A 
ATOM     22  C   LIG A   1      -7.261  -1.331 131.583  0.00  0.00    +0.173 A 
BRANCH  17  24
ATOM     23  C   LIG A   1      -3.784  -0.409 132.086  0.00  0.00    +0.277 C 
ATOM     24  O   LIG A   1      -4.910  -1.133 131.603  0.00  0.00    -0.491 OA
ENDBRANCH  17  24
BRANCH  22  25
ATOM     25  O   LIG A   1      -6.999  -2.714 131.475  0.00  0.00    -0.422 OA
BRANCH  25  26
ATOM     26  C   LIG A   1      -6.801  -3.323 130.247  0.00  0.00    +0.309 C 
ATOM     27  C   LIG A   1      -8.081  -3.208 129.477  0.00  0.00    +0.136 C 
ATOM     28  O   LIG A   1      -5.754  -3.786 129.820  0.00  0.00    -0.251 OA
ENDBRANCH  25  26
ENDBRANCH  22  25
ENDBRANCH  16  19
ENDBRANCH   1  16
BRANCH   2  29
ATOM     29  C   LIG A   1      -9.824   3.165 129.986  0.00  0.00    +0.238 C 
BRANCH  29  30
ATOM     30  O   LIG A   1      -8.866   3.766 129.097  0.00  0.00    -0.464 OA
BRANCH  30  31
ATOM     31  C   LIG A   1      -7.829   2.954 128.701  0.00  0.00    +0.304 C 
ATOM     32  C   LIG A   1      -8.359   1.593 128.340  0.00  0.00    +0.136 C 
ATOM     33  O   LIG A   1      -6.654   3.263 128.680  0.00  0.00    -0.251 OA
ENDBRANCH  30  31
ENDBRANCH  29  30
ENDBRANCH   2  29
TORSDOF 11
ENDMDL
MODEL 9
REMARK VINA RESULT:      -6.8      1.784      2.603
REMARK  Name = NuBBE_2476
REMARK  16 active torsions:
REMARK  status: ('A' for Active; 'I' for Inactive)
REMARK    1  A    between atoms: C_1  and  O_2
REMARK    2  A    between atoms: O_2  and  C_3
REMARK    3  A    between atoms: C_5  and  C_6
REMARK    4  A    between atoms: C_6  and  C_7
REMARK    5  A    between atoms: C_9  and  C_11
REMARK    6  A    between atoms: C_11  and  O_12
REMARK    7  A    between atoms: O_12  and  C_13
REMARK    8  A    between atoms: C_13  and  C_14
REMARK    9  A    between atoms: C_16  and  C_18
REMARK   10  A    between atoms: C_21  and  O_22
REMARK   11  A    between atoms: O_22  and  C_23
REMARK   12  A    between atoms: C_24  and  O_25
REMARK   13  A    between atoms: O_25  and  C_26
REMARK   14  A    between atoms: C_32  and  O_33
REMARK   15  A    between atoms: O_33  and  C_34
REMARK   16  A    between atoms: C_34  and  C_35
REMARK                            x       y       z     vdW  Elec       q    Type
REMARK                         _______ _______ _______ _____ _____    ______ ____
ROOT
ATOM      1  C   LIG A   1      -8.146   3.871 130.903  0.00  0.00    +0.028 C 
ATOM      2  C   LIG A   1      -8.480   5.372 130.913  0.00  0.00    +0.066 C 
ATOM      3  C   LIG A   1      -9.935   5.375 131.416  0.00  0.00    +0.155 C 
ATOM      4  O   LIG A   1     -10.494   4.090 131.072  0.00  0.00    -0.371 OA
ATOM      5  C   LIG A   1      -9.485   3.339 130.388  0.00  0.00    +0.165 C 
ENDROOT
BRANCH   3   6
ATOM      6  C   LIG A   1     -10.802   6.440 130.799  0.00  0.00    -0.015 A 
ATOM      7  C   LIG A   1     -11.978   6.860 131.421  0.00  0.00    +0.010 A 
ATOM      8  C   LIG A   1     -12.771   7.846 130.829  0.00  0.00    +0.050 A 
ATOM      9  C   LIG A   1     -12.393   8.437 129.617  0.00  0.00    +0.162 A 
ATOM     10  C   LIG A   1     -11.222   8.007 128.970  0.00  0.00    +0.162 A 
ATOM     11  C   LIG A   1     -10.446   7.013 129.568  0.00  0.00    +0.055 A 
BRANCH   9  12
ATOM     12  O   LIG A   1     -13.141   9.398 128.982  0.00  0.00    -0.491 OA
ATOM     13  C   LIG A   1     -13.392  10.581 129.731  0.00  0.00    +0.277 C 
ENDBRANCH   9  12
BRANCH  10  14
ATOM     14  O   LIG A   1     -10.901   8.606 127.777  0.00  0.00    -0.491 OA
ATOM     15  C   LIG A   1     -10.955   7.789 126.611  0.00  0.00    +0.277 C 
ENDBRANCH  10  14
ENDBRANCH   3   6
BRANCH   1  16
ATOM     16  C   LIG A   1      -7.779   3.295 132.286  0.00  0.00    +0.041 C 
BRANCH  16  19
ATOM     17  C   LIG A   1      -5.898   0.040 131.586  0.00  0.00    +0.163 A 
ATOM     18  C   LIG A   1      -6.908   1.000 131.667  0.00  0.00    +0.053 A 
ATOM     19  C   LIG A   1      -6.676   2.257 132.251  0.00  0.00    -0.043 A 
ATOM     20  C   LIG A   1      -5.414   2.531 132.790  0.00  0.00    +0.007 A 
ATOM     21  C   LIG A   1      -4.403   1.567 132.753  0.00  0.00    +0.050 A 
ATOM     22  C   LIG A   1      -4.651   0.329 132.154  0.00  0.00    +0.173 A 
BRANCH  17  24
ATOM     23  C   LIG A   1      -7.326  -1.557 130.542  0.00  0.00    +0.277 C 
ATOM     24  O   LIG A   1      -6.019  -1.171 130.952  0.00  0.00    -0.491 OA
ENDBRANCH  17  24
BRANCH  22  25
ATOM     25  O   LIG A   1      -3.651  -0.645 131.949  0.00  0.00    -0.422 OA
BRANCH  25  26
ATOM     26  C   LIG A   1      -3.318  -1.564 132.931  0.00  0.00    +0.309 C 
ATOM     27  C   LIG A   1      -2.010  -1.136 133.522  0.00  0.00    +0.136 C 
ATOM     28  O   LIG A   1      -4.002  -2.499 133.321  0.00  0.00    -0.251 OA
ENDBRANCH  25  26
ENDBRANCH  22  25
ENDBRANCH  16  19
ENDBRANCH   1  16
BRANCH   2  29
ATOM     29  C   LIG A   1      -7.603   6.352 131.687  0.00  0.00    +0.238 C 
BRANCH  29  30
ATOM     30  O   LIG A   1      -6.934   7.309 130.847  0.00  0.00    -0.464 OA
BRANCH  30  31
ATOM     31  C   LIG A   1      -5.567   7.182 130.772  0.00  0.00    +0.304 C 
ATOM     32  C   LIG A   1      -5.066   6.375 131.939  0.00  0.00    +0.136 C 
ATOM     33  O   LIG A   1      -4.853   7.676 129.921  0.00  0.00    -0.251 OA
ENDBRANCH  30  31
ENDBRANCH  29  30
ENDBRANCH   2  29
TORSDOF 11
ENDMDL
