MODEL 1
REMARK VINA RESULT:      -6.3      0.000      0.000
REMARK  Name = NuBBE_2217
REMARK  5 active torsions:
REMARK  status: ('A' for Active; 'I' for Inactive)
REMARK    1  A    between atoms: C_1  and  C_2
REMARK    2  A    between atoms: C_5  and  O_12
REMARK    3  A    between atoms: C_6  and  C_10
REMARK    4  A    between atoms: C_7  and  O_8
REMARK    5  A    between atoms: O_8  and  C_9
REMARK                            x       y       z     vdW  Elec       q    Type
REMARK                         _______ _______ _______ _____ _____    ______ ____
ROOT
ATOM      1  C   LIG A   1     -12.973   7.670 131.413  0.00  0.00    +0.048 C 
ATOM      2  C   LIG A   1     -12.008   7.315 130.317  0.00  0.00    -0.001 A 
ATOM      3  C   LIG A   1     -10.798   6.693 130.604  0.00  0.00    +0.014 A 
ATOM      4  C   LIG A   1      -9.942   6.329 129.587  0.00  0.00    +0.108 A 
ATOM      5  C   LIG A   1     -10.219   6.544 128.249  0.00  0.00    +0.145 A 
ATOM      6  C   LIG A   1     -11.422   7.184 127.923  0.00  0.00    +0.098 A 
ATOM      7  C   LIG A   1     -12.325   7.554 128.953  0.00  0.00    +0.137 A 
ATOM      8  C   LIG A   1      -8.750   5.742 130.165  0.00  0.00    +0.344 C 
ATOM      9  O   LIG A   1      -7.798   5.337 129.520  0.00  0.00    -0.245 OA
ATOM     10  O   LIG A   1      -8.910   5.748 131.515  0.00  0.00    -0.456 OA
ATOM     11  C   LIG A   1     -10.175   6.331 131.898  0.00  0.00    +0.269 C 
ENDROOT
BRANCH   7  12
ATOM     12  O   LIG A   1     -13.489   8.248 128.743  0.00  0.00    -0.494 OA
ATOM     13  C   LIG A   1     -13.346   9.667 128.698  0.00  0.00    +0.277 C 
ENDBRANCH   7  12
BRANCH   6  14
ATOM     14  C   LIG A   1     -11.650   7.479 126.488  0.00  0.00    +0.266 C 
ATOM     15  O   LIG A   1     -10.811   7.985 125.754  0.00  0.00    -0.295 OA
ENDBRANCH   6  14
BRANCH   5  16
ATOM     16  O   LIG A   1      -9.330   6.176 127.279  0.00  0.00    -0.505 OA
ATOM     17  H   LIG A   1      -9.540   5.267 126.966  0.00  0.00    +0.292 HD
ENDBRANCH   5  16
TORSDOF 3
ENDMDL
MODEL 2
REMARK VINA RESULT:      -5.8      7.813     10.289
REMARK  Name = NuBBE_2217
REMARK  5 active torsions:
REMARK  status: ('A' for Active; 'I' for Inactive)
REMARK    1  A    between atoms: C_1  and  C_2
REMARK    2  A    between atoms: C_5  and  O_12
REMARK    3  A    between atoms: C_6  and  C_10
REMARK    4  A    between atoms: C_7  and  O_8
REMARK    5  A    between atoms: O_8  and  C_9
REMARK                            x       y       z     vdW  Elec       q    Type
REMARK                         _______ _______ _______ _____ _____    ______ ____
ROOT
ATOM      1  C   LIG A   1      -4.160   4.612 122.210  0.00  0.00    +0.048 C 
ATOM      2  C   LIG A   1      -5.568   4.241 121.837  0.00  0.00    -0.001 A 
ATOM      3  C   LIG A   1      -6.060   4.499 120.562  0.00  0.00    +0.014 A 
ATOM      4  C   LIG A   1      -7.336   4.112 120.216  0.00  0.00    +0.108 A 
ATOM      5  C   LIG A   1      -8.191   3.454 121.082  0.00  0.00    +0.145 A 
ATOM      6  C   LIG A   1      -7.735   3.193 122.381  0.00  0.00    +0.098 A 
ATOM      7  C   LIG A   1      -6.418   3.570 122.755  0.00  0.00    +0.137 A 
ATOM      8  C   LIG A   1      -7.602   4.535 118.856  0.00  0.00    +0.344 C 
ATOM      9  O   LIG A   1      -8.655   4.353 118.269  0.00  0.00    -0.245 OA
ATOM     10  O   LIG A   1      -6.482   5.156 118.399  0.00  0.00    -0.456 OA
ATOM     11  C   LIG A   1      -5.445   5.187 119.404  0.00  0.00    +0.269 C 
ENDROOT
BRANCH   7  12
ATOM     12  O   LIG A   1      -5.906   3.424 124.019  0.00  0.00    -0.494 OA
ATOM     13  C   LIG A   1      -6.195   4.498 124.913  0.00  0.00    +0.277 C 
ENDBRANCH   7  12
BRANCH   6  14
ATOM     14  C   LIG A   1      -8.704   2.567 123.312  0.00  0.00    +0.266 C 
ATOM     15  O   LIG A   1      -9.469   1.667 122.996  0.00  0.00    -0.295 OA
ENDBRANCH   6  14
BRANCH   5  16
ATOM     16  O   LIG A   1      -9.453   3.104 120.694  0.00  0.00    -0.505 OA
ATOM     17  H   LIG A   1     -10.097   3.363 121.392  0.00  0.00    +0.292 HD
ENDBRANCH   5  16
TORSDOF 3
ENDMDL
MODEL 3
REMARK VINA RESULT:      -5.6      0.866      4.100
REMARK  Name = NuBBE_2217
REMARK  5 active torsions:
REMARK  status: ('A' for Active; 'I' for Inactive)
REMARK    1  A    between atoms: C_1  and  C_2
REMARK    2  A    between atoms: C_5  and  O_12
REMARK    3  A    between atoms: C_6  and  C_10
REMARK    4  A    between atoms: C_7  and  O_8
REMARK    5  A    between atoms: O_8  and  C_9
REMARK                            x       y       z     vdW  Elec       q    Type
REMARK                         _______ _______ _______ _____ _____    ______ ____
ROOT
ATOM      1  C   LIG A   1     -12.696   7.447 131.659  0.00  0.00    +0.048 C 
ATOM      2  C   LIG A   1     -11.794   7.027 130.533  0.00  0.00    -0.001 A 
ATOM      3  C   LIG A   1     -12.003   7.491 129.239  0.00  0.00    +0.014 A 
ATOM      4  C   LIG A   1     -11.141   7.137 128.223  0.00  0.00    +0.108 A 
ATOM      5  C   LIG A   1     -10.038   6.325 128.413  0.00  0.00    +0.145 A 
ATOM      6  C   LIG A   1      -9.806   5.824 129.701  0.00  0.00    +0.098 A 
ATOM      7  C   LIG A   1     -10.672   6.188 130.765  0.00  0.00    +0.137 A 
ATOM      8  C   LIG A   1     -11.611   7.723 126.984  0.00  0.00    +0.344 C 
ATOM      9  O   LIG A   1     -11.069   7.576 125.902  0.00  0.00    -0.245 OA
ATOM     10  O   LIG A   1     -12.737   8.429 127.271  0.00  0.00    -0.456 OA
ATOM     11  C   LIG A   1     -13.072   8.346 128.674  0.00  0.00    +0.269 C 
ENDROOT
BRANCH   7  12
ATOM     12  O   LIG A   1     -10.572   5.694 132.041  0.00  0.00    -0.494 OA
ATOM     13  C   LIG A   1      -9.398   6.089 132.749  0.00  0.00    +0.277 C 
ENDBRANCH   7  12
BRANCH   6  14
ATOM     14  C   LIG A   1      -8.668   4.887 129.855  0.00  0.00    +0.266 C 
ATOM     15  O   LIG A   1      -7.505   5.181 129.616  0.00  0.00    -0.295 OA
ENDBRANCH   6  14
BRANCH   5  16
ATOM     16  O   LIG A   1      -9.221   5.992 127.369  0.00  0.00    -0.505 OA
ATOM     17  H   LIG A   1      -8.707   5.185 127.597  0.00  0.00    +0.292 HD
ENDBRANCH   5  16
TORSDOF 3
ENDMDL
MODEL 4
REMARK VINA RESULT:      -5.4      7.582      8.731
REMARK  Name = NuBBE_2217
REMARK  5 active torsions:
REMARK  status: ('A' for Active; 'I' for Inactive)
REMARK    1  A    between atoms: C_1  and  C_2
REMARK    2  A    between atoms: C_5  and  O_12
REMARK    3  A    between atoms: C_6  and  C_10
REMARK    4  A    between atoms: C_7  and  O_8
REMARK    5  A    between atoms: O_8  and  C_9
REMARK                            x       y       z     vdW  Elec       q    Type
REMARK                         _______ _______ _______ _____ _____    ______ ____
ROOT
ATOM      1  C   LIG A   1      -8.312   1.646 127.761  0.00  0.00    +0.048 C 
ATOM      2  C   LIG A   1      -8.558   0.722 126.600  0.00  0.00    -0.001 A 
ATOM      3  C   LIG A   1      -8.302  -0.641 126.705  0.00  0.00    +0.014 A 
ATOM      4  C   LIG A   1      -8.576  -1.485 125.652  0.00  0.00    +0.108 A 
ATOM      5  C   LIG A   1      -9.114  -1.052 124.454  0.00  0.00    +0.145 A 
ATOM      6  C   LIG A   1      -9.369   0.317 124.305  0.00  0.00    +0.098 A 
ATOM      7  C   LIG A   1      -9.108   1.203 125.383  0.00  0.00    +0.137 A 
ATOM      8  C   LIG A   1      -8.181  -2.831 126.015  0.00  0.00    +0.344 C 
ATOM      9  O   LIG A   1      -8.282  -3.801 125.283  0.00  0.00    -0.245 OA
ATOM     10  O   LIG A   1      -7.690  -2.781 127.281  0.00  0.00    -0.456 OA
ATOM     11  C   LIG A   1      -7.721  -1.437 127.810  0.00  0.00    +0.269 C 
ENDROOT
BRANCH   7  12
ATOM     12  O   LIG A   1      -9.254   2.565 125.312  0.00  0.00    -0.494 OA
ATOM     13  C   LIG A   1      -8.191   3.252 124.652  0.00  0.00    +0.277 C 
ENDBRANCH   7  12
BRANCH   6  14
ATOM     14  C   LIG A   1      -9.862   0.762 122.980  0.00  0.00    +0.266 C 
ATOM     15  O   LIG A   1     -10.892   0.352 122.463  0.00  0.00    -0.295 OA
ENDBRANCH   6  14
BRANCH   5  16
ATOM     16  O   LIG A   1      -9.355  -1.929 123.433  0.00  0.00    -0.505 OA
ATOM     17  H   LIG A   1     -10.320  -1.958 123.244  0.00  0.00    +0.292 HD
ENDBRANCH   5  16
TORSDOF 3
ENDMDL
MODEL 5
REMARK VINA RESULT:      -5.4      8.396     10.490
REMARK  Name = NuBBE_2217
REMARK  5 active torsions:
REMARK  status: ('A' for Active; 'I' for Inactive)
REMARK    1  A    between atoms: C_1  and  C_2
REMARK    2  A    between atoms: C_5  and  O_12
REMARK    3  A    between atoms: C_6  and  C_10
REMARK    4  A    between atoms: C_7  and  O_8
REMARK    5  A    between atoms: O_8  and  C_9
REMARK                            x       y       z     vdW  Elec       q    Type
REMARK                         _______ _______ _______ _____ _____    ______ ____
ROOT
ATOM      1  C   LIG A   1      -5.807   1.348 125.486  0.00  0.00    +0.048 C 
ATOM      2  C   LIG A   1      -6.822   0.414 124.888  0.00  0.00    -0.001 A 
ATOM      3  C   LIG A   1      -7.961   0.905 124.259  0.00  0.00    +0.014 A 
ATOM      4  C   LIG A   1      -8.861   0.042 123.672  0.00  0.00    +0.108 A 
ATOM      5  C   LIG A   1      -8.698  -1.331 123.663  0.00  0.00    +0.145 A 
ATOM      6  C   LIG A   1      -7.571  -1.863 124.303  0.00  0.00    +0.098 A 
ATOM      7  C   LIG A   1      -6.624  -0.992 124.901  0.00  0.00    +0.137 A 
ATOM      8  C   LIG A   1      -9.962   0.811 123.130  0.00  0.00    +0.344 C 
ATOM      9  O   LIG A   1     -10.928   0.328 122.563  0.00  0.00    -0.245 OA
ATOM     10  O   LIG A   1      -9.705   2.121 123.383  0.00  0.00    -0.456 OA
ATOM     11  C   LIG A   1      -8.460   2.290 124.096  0.00  0.00    +0.269 C 
ENDROOT
BRANCH   7  12
ATOM     12  O   LIG A   1      -5.530  -1.416 125.611  0.00  0.00    -0.494 OA
ATOM     13  C   LIG A   1      -5.803  -1.824 126.951  0.00  0.00    +0.277 C 
ENDBRANCH   7  12
BRANCH   6  14
ATOM     14  C   LIG A   1      -7.470  -3.342 124.352  0.00  0.00    +0.266 C 
ATOM     15  O   LIG A   1      -8.237  -4.057 124.982  0.00  0.00    -0.295 OA
ENDBRANCH   6  14
BRANCH   5  16
ATOM     16  O   LIG A   1      -9.627  -2.146 123.078  0.00  0.00    -0.505 OA
ATOM     17  H   LIG A   1     -10.526  -1.901 123.396  0.00  0.00    +0.292 HD
ENDBRANCH   5  16
TORSDOF 3
ENDMDL
MODEL 6
REMARK VINA RESULT:      -5.3      8.640     10.619
REMARK  Name = NuBBE_2217
REMARK  5 active torsions:
REMARK  status: ('A' for Active; 'I' for Inactive)
REMARK    1  A    between atoms: C_1  and  C_2
REMARK    2  A    between atoms: C_5  and  O_12
REMARK    3  A    between atoms: C_6  and  C_10
REMARK    4  A    between atoms: C_7  and  O_8
REMARK    5  A    between atoms: O_8  and  C_9
REMARK                            x       y       z     vdW  Elec       q    Type
REMARK                         _______ _______ _______ _____ _____    ______ ____
ROOT
ATOM      1  C   LIG A   1      -5.185  -0.461 125.727  0.00  0.00    +0.048 C 
ATOM      2  C   LIG A   1      -6.446  -0.526 124.913  0.00  0.00    -0.001 A 
ATOM      3  C   LIG A   1      -7.089   0.635 124.497  0.00  0.00    +0.014 A 
ATOM      4  C   LIG A   1      -8.218   0.564 123.711  0.00  0.00    +0.108 A 
ATOM      5  C   LIG A   1      -8.772  -0.630 123.286  0.00  0.00    +0.145 A 
ATOM      6  C   LIG A   1      -8.161  -1.821 123.699  0.00  0.00    +0.098 A 
ATOM      7  C   LIG A   1      -6.989  -1.771 124.498  0.00  0.00    +0.137 A 
ATOM      8  C   LIG A   1      -8.700   1.907 123.459  0.00  0.00    +0.344 C 
ATOM      9  O   LIG A   1      -9.696   2.172 122.807  0.00  0.00    -0.245 OA
ATOM     10  O   LIG A   1      -7.851   2.765 124.084  0.00  0.00    -0.456 OA
ATOM     11  C   LIG A   1      -6.795   2.060 124.773  0.00  0.00    +0.269 C 
ENDROOT
BRANCH   7  12
ATOM     12  O   LIG A   1      -6.361  -2.877 125.012  0.00  0.00    -0.494 OA
ATOM     13  C   LIG A   1      -5.449  -3.519 124.122  0.00  0.00    +0.277 C 
ENDBRANCH   7  12
BRANCH   6  14
ATOM     14  C   LIG A   1      -8.829  -3.084 123.301  0.00  0.00    +0.266 C 
ATOM     15  O   LIG A   1     -10.028  -3.289 123.423  0.00  0.00    -0.295 OA
ENDBRANCH   6  14
BRANCH   5  16
ATOM     16  O   LIG A   1      -9.902  -0.647 122.516  0.00  0.00    -0.505 OA
ATOM     17  H   LIG A   1     -10.434  -1.447 122.729  0.00  0.00    +0.292 HD
ENDBRANCH   5  16
TORSDOF 3
ENDMDL
MODEL 7
REMARK VINA RESULT:      -5.3      9.576     10.344
REMARK  Name = NuBBE_2217
REMARK  5 active torsions:
REMARK  status: ('A' for Active; 'I' for Inactive)
REMARK    1  A    between atoms: C_1  and  C_2
REMARK    2  A    between atoms: C_5  and  O_12
REMARK    3  A    between atoms: C_6  and  C_10
REMARK    4  A    between atoms: C_7  and  O_8
REMARK    5  A    between atoms: O_8  and  C_9
REMARK                            x       y       z     vdW  Elec       q    Type
REMARK                         _______ _______ _______ _____ _____    ______ ____
ROOT
ATOM      1  C   LIG A   1      -5.252  -0.214 125.904  0.00  0.00    +0.048 C 
ATOM      2  C   LIG A   1      -6.505  -1.022 125.710  0.00  0.00    -0.001 A 
ATOM      3  C   LIG A   1      -6.995  -1.835 126.726  0.00  0.00    +0.014 A 
ATOM      4  C   LIG A   1      -8.170  -2.534 126.554  0.00  0.00    +0.108 A 
ATOM      5  C   LIG A   1      -8.925  -2.476 125.397  0.00  0.00    +0.145 A 
ATOM      6  C   LIG A   1      -8.452  -1.681 124.344  0.00  0.00    +0.098 A 
ATOM      7  C   LIG A   1      -7.252  -0.940 124.505  0.00  0.00    +0.137 A 
ATOM      8  C   LIG A   1      -8.425  -3.322 127.743  0.00  0.00    +0.344 C 
ATOM      9  O   LIG A   1      -9.382  -4.063 127.888  0.00  0.00    -0.245 OA
ATOM     10  O   LIG A   1      -7.412  -3.077 128.616  0.00  0.00    -0.456 OA
ATOM     11  C   LIG A   1      -6.452  -2.148 128.067  0.00  0.00    +0.269 C 
ENDROOT
BRANCH   7  12
ATOM     12  O   LIG A   1      -6.670  -0.193 123.512  0.00  0.00    -0.494 OA
ATOM     13  C   LIG A   1      -7.178   1.135 123.383  0.00  0.00    +0.277 C 
ENDBRANCH   7  12
BRANCH   6  14
ATOM     14  C   LIG A   1      -9.236  -1.708 123.086  0.00  0.00    +0.266 C 
ATOM     15  O   LIG A   1     -10.034  -0.839 122.761  0.00  0.00    -0.295 OA
ENDBRANCH   6  14
BRANCH   5  16
ATOM     16  O   LIG A   1     -10.077  -3.200 125.271  0.00  0.00    -0.505 OA
ATOM     17  H   LIG A   1     -10.033  -3.751 124.457  0.00  0.00    +0.292 HD
ENDBRANCH   5  16
TORSDOF 3
ENDMDL
MODEL 8
REMARK VINA RESULT:      -5.3      8.302      9.869
REMARK  Name = NuBBE_2217
REMARK  5 active torsions:
REMARK  status: ('A' for Active; 'I' for Inactive)
REMARK    1  A    between atoms: C_1  and  C_2
REMARK    2  A    between atoms: C_5  and  O_12
REMARK    3  A    between atoms: C_6  and  C_10
REMARK    4  A    between atoms: C_7  and  O_8
REMARK    5  A    between atoms: O_8  and  C_9
REMARK                            x       y       z     vdW  Elec       q    Type
REMARK                         _______ _______ _______ _____ _____    ______ ____
ROOT
ATOM      1  C   LIG A   1      -5.277  -0.320 125.836  0.00  0.00    +0.048 C 
ATOM      2  C   LIG A   1      -6.553  -0.282 125.043  0.00  0.00    -0.001 A 
ATOM      3  C   LIG A   1      -7.237  -1.453 124.733  0.00  0.00    +0.014 A 
ATOM      4  C   LIG A   1      -8.430  -1.403 124.048  0.00  0.00    +0.108 A 
ATOM      5  C   LIG A   1      -9.019  -0.222 123.635  0.00  0.00    +0.145 A 
ATOM      6  C   LIG A   1      -8.350   0.977 123.914  0.00  0.00    +0.098 A 
ATOM      7  C   LIG A   1      -7.126   0.950 124.633  0.00  0.00    +0.137 A 
ATOM      8  C   LIG A   1      -8.902  -2.756 123.828  0.00  0.00    +0.344 C 
ATOM      9  O   LIG A   1      -9.926  -3.041 123.231  0.00  0.00    -0.245 OA
ATOM     10  O   LIG A   1      -7.996  -3.597 124.394  0.00  0.00    -0.456 OA
ATOM     11  C   LIG A   1      -6.901  -2.872 124.994  0.00  0.00    +0.269 C 
ENDROOT
BRANCH   7  12
ATOM     12  O   LIG A   1      -6.362   2.059 124.891  0.00  0.00    -0.494 OA
ATOM     13  C   LIG A   1      -6.781   2.832 126.015  0.00  0.00    +0.277 C 
ENDBRANCH   7  12
BRANCH   6  14
ATOM     14  C   LIG A   1      -8.962   2.219 123.383  0.00  0.00    +0.266 C 
ATOM     15  O   LIG A   1      -9.048   2.480 122.191  0.00  0.00    -0.295 OA
ENDBRANCH   6  14
BRANCH   5  16
ATOM     16  O   LIG A   1     -10.199  -0.227 122.945  0.00  0.00    -0.505 OA
ATOM     17  H   LIG A   1     -10.105  -0.778 122.135  0.00  0.00    +0.292 HD
ENDBRANCH   5  16
TORSDOF 3
ENDMDL
MODEL 9
REMARK VINA RESULT:      -5.2      7.609      9.161
REMARK  Name = NuBBE_2217
REMARK  5 active torsions:
REMARK  status: ('A' for Active; 'I' for Inactive)
REMARK    1  A    between atoms: C_1  and  C_2
REMARK    2  A    between atoms: C_5  and  O_12
REMARK    3  A    between atoms: C_6  and  C_10
REMARK    4  A    between atoms: C_7  and  O_8
REMARK    5  A    between atoms: O_8  and  C_9
REMARK                            x       y       z     vdW  Elec       q    Type
REMARK                         _______ _______ _______ _____ _____    ______ ____
ROOT
ATOM      1  C   LIG A   1      -7.026  -2.850 125.566  0.00  0.00    +0.048 C 
ATOM      2  C   LIG A   1      -7.781  -1.563 125.384  0.00  0.00    -0.001 A 
ATOM      3  C   LIG A   1      -7.842  -0.621 126.405  0.00  0.00    +0.014 A 
ATOM      4  C   LIG A   1      -8.497   0.576 126.211  0.00  0.00    +0.108 A 
ATOM      5  C   LIG A   1      -9.115   0.918 125.022  0.00  0.00    +0.145 A 
ATOM      6  C   LIG A   1      -9.088  -0.015 123.976  0.00  0.00    +0.098 A 
ATOM      7  C   LIG A   1      -8.407  -1.248 124.150  0.00  0.00    +0.137 A 
ATOM      8  C   LIG A   1      -8.441   1.346 127.437  0.00  0.00    +0.344 C 
ATOM      9  O   LIG A   1      -8.947   2.445 127.586  0.00  0.00    -0.245 OA
ATOM     10  O   LIG A   1      -7.745   0.611 128.345  0.00  0.00    -0.456 OA
ATOM     11  C   LIG A   1      -7.321  -0.654 127.791  0.00  0.00    +0.269 C 
ENDROOT
BRANCH   7  12
ATOM     12  O   LIG A   1      -8.386  -2.252 123.216  0.00  0.00    -0.494 OA
ATOM     13  C   LIG A   1      -9.486  -3.159 123.282  0.00  0.00    +0.277 C 
ENDBRANCH   7  12
BRANCH   6  14
ATOM     14  C   LIG A   1      -9.834   0.344 122.746  0.00  0.00    +0.266 C 
ATOM     15  O   LIG A   1     -11.042   0.529 122.711  0.00  0.00    -0.295 OA
ENDBRANCH   6  14
BRANCH   5  16
ATOM     16  O   LIG A   1      -9.763   2.114 124.884  0.00  0.00    -0.505 OA
ATOM     17  H   LIG A   1     -10.326   2.276 125.674  0.00  0.00    +0.292 HD
ENDBRANCH   5  16
TORSDOF 3
ENDMDL
