MODEL 1
REMARK VINA RESULT:      -8.8      0.000      0.000
REMARK  Name = NuBBE_133
REMARK  9 active torsions:
REMARK  status: ('A' for Active; 'I' for Inactive)
REMARK    1  A    between atoms: C_1  and  C_2
REMARK    2  A    between atoms: C_7  and  C_10
REMARK    3  A    between atoms: C_13  and  C_15
REMARK    4  A    between atoms: C_15  and  C_17
REMARK    5  A    between atoms: C_22  and  C_23
REMARK    6  A    between atoms: C_28  and  C_29
REMARK    7  A    between atoms: C_32  and  O_37
REMARK    8  A    between atoms: C_34  and  C_35
REMARK    9  A    between atoms: C_34  and  C_36
REMARK                            x       y       z     vdW  Elec       q    Type
REMARK                         _______ _______ _______ _____ _____    ______ ____
ROOT
ATOM      1  C   LIG A   1      -7.978  -2.990 127.561  0.00  0.00    +0.012 C 
ATOM      2  C   LIG A   1      -7.300  -1.587 127.670  0.00  0.00    -0.023 C 
ATOM      3  C   LIG A   1      -6.010  -1.499 126.770  0.00  0.00    -0.000 C 
ATOM      4  C   LIG A   1      -6.210  -1.452 125.229  0.00  0.00    +0.006 C 
ATOM      5  C   LIG A   1      -7.337  -0.482 124.798  0.00  0.00    -0.028 C 
ATOM      6  C   LIG A   1      -8.616  -0.653 125.641  0.00  0.00    +0.007 C 
ATOM      7  C   LIG A   1      -8.355  -0.564 127.150  0.00  0.00    +0.008 C 
ATOM      8  C   LIG A   1      -6.873   0.986 124.845  0.00  0.00    +0.011 C 
ATOM      9  C   LIG A   1      -7.572  -0.894 123.337  0.00  0.00    +0.007 C 
ATOM     10  C   LIG A   1      -7.437  -2.412 123.318  0.00  0.00    +0.009 C 
ATOM     11  C   LIG A   1      -6.488  -2.786 124.477  0.00  0.00    +0.018 C 
ATOM     12  C   LIG A   1      -4.943  -2.510 127.206  0.00  0.00    +0.005 C 
ATOM     13  C   LIG A   1      -4.559  -2.370 128.683  0.00  0.00    +0.005 C 
ATOM     14  C   LIG A   1      -5.771  -2.366 129.645  0.00  0.00    +0.002 C 
ATOM     15  C   LIG A   1      -6.853  -1.289 129.218  0.00  0.00    -0.023 C 
ATOM     16  C   LIG A   1      -6.286   0.161 129.348  0.00  0.00    +0.012 C 
ATOM     17  C   LIG A   1      -8.066  -1.366 130.189  0.00  0.00    +0.008 C 
ATOM     18  C   LIG A   1      -7.703  -1.386 131.679  0.00  0.00    +0.005 C 
ATOM     19  C   LIG A   1      -6.735  -2.543 132.000  0.00  0.00    +0.003 C 
ATOM     20  C   LIG A   1      -5.387  -2.404 131.195  0.00  0.00    -0.025 C 
ATOM     21  C   LIG A   1      -4.537  -1.177 131.608  0.00  0.00    +0.012 C 
ATOM     22  C   LIG A   1      -4.529  -3.678 131.473  0.00  0.00    +0.010 C 
ATOM     23  C   LIG A   1      -4.344  -4.010 132.958  0.00  0.00    +0.032 C 
ATOM     24  C   LIG A   1      -5.664  -4.110 133.721  0.00  0.00    +0.120 C 
ATOM     25  C   LIG A   1      -6.595  -2.875 133.534  0.00  0.00    -0.006 C 
ATOM     26  C   LIG A   1      -6.062  -1.696 134.373  0.00  0.00    +0.014 C 
ATOM     27  C   LIG A   1      -7.987  -3.229 134.125  0.00  0.00    +0.014 C 
ENDROOT
BRANCH  11  28
ATOM     28  C   LIG A   1      -5.313  -3.618 123.971  0.00  0.00    -0.076 C 
ATOM     29  C   LIG A   1      -5.187  -4.952 124.084  0.00  0.00    +0.007 C 
ATOM     30  C   LIG A   1      -4.224  -2.820 123.293  0.00  0.00    +0.038 C 
ENDBRANCH  11  28
BRANCH  24  31
ATOM     31  O   LIG A   1      -6.318  -5.322 133.329  0.00  0.00    -0.391 OA
ATOM     32  H   LIG A   1      -5.997  -6.045 133.890  0.00  0.00    +0.210 HD
ENDBRANCH  24  31
TORSDOF 2
ENDMDL
MODEL 2
REMARK VINA RESULT:      -8.7      4.331      8.393
REMARK  Name = NuBBE_133
REMARK  9 active torsions:
REMARK  status: ('A' for Active; 'I' for Inactive)
REMARK    1  A    between atoms: C_1  and  C_2
REMARK    2  A    between atoms: C_7  and  C_10
REMARK    3  A    between atoms: C_13  and  C_15
REMARK    4  A    between atoms: C_15  and  C_17
REMARK    5  A    between atoms: C_22  and  C_23
REMARK    6  A    between atoms: C_28  and  C_29
REMARK    7  A    between atoms: C_32  and  O_37
REMARK    8  A    between atoms: C_34  and  C_35
REMARK    9  A    between atoms: C_34  and  C_36
REMARK                            x       y       z     vdW  Elec       q    Type
REMARK                         _______ _______ _______ _____ _____    ______ ____
ROOT
ATOM      1  C   LIG A   1      -9.276   2.215 130.539  0.00  0.00    +0.012 C 
ATOM      2  C   LIG A   1      -7.774   1.916 130.849  0.00  0.00    -0.023 C 
ATOM      3  C   LIG A   1      -6.899   3.223 130.770  0.00  0.00    -0.000 C 
ATOM      4  C   LIG A   1      -7.080   4.280 131.896  0.00  0.00    +0.006 C 
ATOM      5  C   LIG A   1      -7.132   3.652 133.309  0.00  0.00    -0.028 C 
ATOM      6  C   LIG A   1      -8.065   2.427 133.375  0.00  0.00    +0.007 C 
ATOM      7  C   LIG A   1      -7.744   1.371 132.309  0.00  0.00    +0.008 C 
ATOM      8  C   LIG A   1      -5.729   3.266 133.812  0.00  0.00    +0.011 C 
ATOM      9  C   LIG A   1      -7.675   4.812 134.156  0.00  0.00    +0.007 C 
ATOM     10  C   LIG A   1      -8.716   5.501 133.281  0.00  0.00    +0.009 C 
ATOM     11  C   LIG A   1      -8.299   5.245 131.816  0.00  0.00    +0.018 C 
ATOM     12  C   LIG A   1      -6.917   3.835 129.364  0.00  0.00    +0.005 C 
ATOM     13  C   LIG A   1      -6.477   2.846 128.280  0.00  0.00    +0.005 C 
ATOM     14  C   LIG A   1      -7.229   1.494 128.325  0.00  0.00    +0.002 C 
ATOM     15  C   LIG A   1      -7.171   0.843 129.770  0.00  0.00    -0.023 C 
ATOM     16  C   LIG A   1      -5.708   0.453 130.153  0.00  0.00    +0.012 C 
ATOM     17  C   LIG A   1      -7.983  -0.485 129.767  0.00  0.00    +0.008 C 
ATOM     18  C   LIG A   1      -7.676  -1.430 128.600  0.00  0.00    +0.005 C 
ATOM     19  C   LIG A   1      -7.874  -0.724 127.244  0.00  0.00    +0.003 C 
ATOM     20  C   LIG A   1      -6.917   0.520 127.099  0.00  0.00    -0.025 C 
ATOM     21  C   LIG A   1      -5.416   0.147 127.026  0.00  0.00    +0.012 C 
ATOM     22  C   LIG A   1      -7.279   1.251 125.768  0.00  0.00    +0.010 C 
ATOM     23  C   LIG A   1      -7.322   0.343 124.533  0.00  0.00    +0.032 C 
ATOM     24  C   LIG A   1      -8.234  -0.870 124.711  0.00  0.00    +0.120 C 
ATOM     25  C   LIG A   1      -7.946  -1.692 126.003  0.00  0.00    -0.006 C 
ATOM     26  C   LIG A   1      -6.668  -2.532 125.804  0.00  0.00    +0.014 C 
ATOM     27  C   LIG A   1      -9.104  -2.709 126.194  0.00  0.00    +0.014 C 
ENDROOT
BRANCH  11  28
ATOM     28  C   LIG A   1      -8.164   6.560 131.053  0.00  0.00    -0.076 C 
ATOM     29  C   LIG A   1      -9.157   7.210 130.423  0.00  0.00    +0.007 C 
ATOM     30  C   LIG A   1      -6.766   7.135 131.035  0.00  0.00    +0.038 C 
ENDBRANCH  11  28
BRANCH  24  31
ATOM     31  O   LIG A   1      -9.593  -0.420 124.672  0.00  0.00    -0.391 OA
ATOM     32  H   LIG A   1      -9.607   0.505 124.377  0.00  0.00    +0.210 HD
ENDBRANCH  24  31
TORSDOF 2
ENDMDL
MODEL 3
REMARK VINA RESULT:      -8.6      3.694      8.257
REMARK  Name = NuBBE_133
REMARK  9 active torsions:
REMARK  status: ('A' for Active; 'I' for Inactive)
REMARK    1  A    between atoms: C_1  and  C_2
REMARK    2  A    between atoms: C_7  and  C_10
REMARK    3  A    between atoms: C_13  and  C_15
REMARK    4  A    between atoms: C_15  and  C_17
REMARK    5  A    between atoms: C_22  and  C_23
REMARK    6  A    between atoms: C_28  and  C_29
REMARK    7  A    between atoms: C_32  and  O_37
REMARK    8  A    between atoms: C_34  and  C_35
REMARK    9  A    between atoms: C_34  and  C_36
REMARK                            x       y       z     vdW  Elec       q    Type
REMARK                         _______ _______ _______ _____ _____    ______ ____
ROOT
ATOM      1  C   LIG A   1      -7.107   0.392 129.332  0.00  0.00    +0.012 C 
ATOM      2  C   LIG A   1      -6.093   1.279 128.540  0.00  0.00    -0.023 C 
ATOM      3  C   LIG A   1      -6.551   2.785 128.505  0.00  0.00    -0.000 C 
ATOM      4  C   LIG A   1      -6.461   3.596 129.828  0.00  0.00    +0.006 C 
ATOM      5  C   LIG A   1      -5.130   3.369 130.584  0.00  0.00    -0.028 C 
ATOM      6  C   LIG A   1      -4.754   1.877 130.678  0.00  0.00    +0.007 C 
ATOM      7  C   LIG A   1      -4.744   1.175 129.314  0.00  0.00    +0.008 C 
ATOM      8  C   LIG A   1      -3.972   4.160 129.949  0.00  0.00    +0.011 C 
ATOM      9  C   LIG A   1      -5.445   3.953 131.969  0.00  0.00    +0.007 C 
ATOM     10  C   LIG A   1      -6.890   3.559 132.256  0.00  0.00    +0.009 C 
ATOM     11  C   LIG A   1      -7.587   3.412 130.887  0.00  0.00    +0.018 C 
ATOM     12  C   LIG A   1      -7.897   2.954 127.788  0.00  0.00    +0.005 C 
ATOM     13  C   LIG A   1      -7.890   2.377 126.368  0.00  0.00    +0.005 C 
ATOM     14  C   LIG A   1      -7.378   0.918 126.290  0.00  0.00    +0.002 C 
ATOM     15  C   LIG A   1      -5.966   0.757 126.993  0.00  0.00    -0.023 C 
ATOM     16  C   LIG A   1      -4.865   1.565 126.237  0.00  0.00    +0.012 C 
ATOM     17  C   LIG A   1      -5.528  -0.735 126.926  0.00  0.00    +0.008 C 
ATOM     18  C   LIG A   1      -5.660  -1.388 125.545  0.00  0.00    +0.005 C 
ATOM     19  C   LIG A   1      -7.100  -1.270 125.008  0.00  0.00    +0.003 C 
ATOM     20  C   LIG A   1      -7.533   0.238 124.853  0.00  0.00    -0.025 C 
ATOM     21  C   LIG A   1      -6.742   1.005 123.764  0.00  0.00    +0.012 C 
ATOM     22  C   LIG A   1      -9.038   0.265 124.440  0.00  0.00    +0.010 C 
ATOM     23  C   LIG A   1      -9.384  -0.617 123.234  0.00  0.00    +0.032 C 
ATOM     24  C   LIG A   1      -8.928  -2.065 123.399  0.00  0.00    +0.120 C 
ATOM     25  C   LIG A   1      -7.427  -2.214 123.790  0.00  0.00    -0.006 C 
ATOM     26  C   LIG A   1      -6.544  -1.951 122.553  0.00  0.00    +0.014 C 
ATOM     27  C   LIG A   1      -7.179  -3.694 124.190  0.00  0.00    +0.014 C 
ENDROOT
BRANCH  11  28
ATOM     28  C   LIG A   1      -8.833   4.291 130.815  0.00  0.00    -0.076 C 
ATOM     29  C   LIG A   1      -8.850   5.635 130.839  0.00  0.00    +0.007 C 
ATOM     30  C   LIG A   1     -10.134   3.530 130.708  0.00  0.00    +0.038 C 
ENDBRANCH  11  28
BRANCH  24  31
ATOM     31  O   LIG A   1      -9.782  -2.699 124.357  0.00  0.00    -0.391 OA
ATOM     32  H   LIG A   1     -10.626  -2.221 124.387  0.00  0.00    +0.210 HD
ENDBRANCH  24  31
TORSDOF 2
ENDMDL
MODEL 4
REMARK VINA RESULT:      -8.5      4.765      8.396
REMARK  Name = NuBBE_133
REMARK  9 active torsions:
REMARK  status: ('A' for Active; 'I' for Inactive)
REMARK    1  A    between atoms: C_1  and  C_2
REMARK    2  A    between atoms: C_7  and  C_10
REMARK    3  A    between atoms: C_13  and  C_15
REMARK    4  A    between atoms: C_15  and  C_17
REMARK    5  A    between atoms: C_22  and  C_23
REMARK    6  A    between atoms: C_28  and  C_29
REMARK    7  A    between atoms: C_32  and  O_37
REMARK    8  A    between atoms: C_34  and  C_35
REMARK    9  A    between atoms: C_34  and  C_36
REMARK                            x       y       z     vdW  Elec       q    Type
REMARK                         _______ _______ _______ _____ _____    ______ ____
ROOT
ATOM      1  C   LIG A   1      -9.928   2.204 130.778  0.00  0.00    +0.012 C 
ATOM      2  C   LIG A   1      -8.392   2.459 130.905  0.00  0.00    -0.023 C 
ATOM      3  C   LIG A   1      -8.010   3.914 130.439  0.00  0.00    -0.000 C 
ATOM      4  C   LIG A   1      -8.437   5.098 131.351  0.00  0.00    +0.006 C 
ATOM      5  C   LIG A   1      -8.159   4.833 132.850  0.00  0.00    -0.028 C 
ATOM      6  C   LIG A   1      -8.624   3.433 133.297  0.00  0.00    +0.007 C 
ATOM      7  C   LIG A   1      -8.061   2.307 132.421  0.00  0.00    +0.008 C 
ATOM      8  C   LIG A   1      -6.670   5.022 133.196  0.00  0.00    +0.011 C 
ATOM      9  C   LIG A   1      -8.983   5.937 133.529  0.00  0.00    +0.007 C 
ATOM     10  C   LIG A   1     -10.263   6.050 132.708  0.00  0.00    +0.009 C 
ATOM     11  C   LIG A   1      -9.909   5.598 131.275  0.00  0.00    +0.018 C 
ATOM     12  C   LIG A   1      -8.347   4.144 128.960  0.00  0.00    +0.005 C 
ATOM     13  C   LIG A   1      -7.696   3.111 128.034  0.00  0.00    +0.005 C 
ATOM     14  C   LIG A   1      -7.950   1.644 128.458  0.00  0.00    +0.002 C 
ATOM     15  C   LIG A   1      -7.559   1.399 129.975  0.00  0.00    -0.023 C 
ATOM     16  C   LIG A   1      -6.023   1.575 130.196  0.00  0.00    +0.012 C 
ATOM     17  C   LIG A   1      -7.882  -0.074 130.356  0.00  0.00    +0.008 C 
ATOM     18  C   LIG A   1      -7.377  -1.127 129.362  0.00  0.00    +0.005 C 
ATOM     19  C   LIG A   1      -7.911  -0.853 127.942  0.00  0.00    +0.003 C 
ATOM     20  C   LIG A   1      -7.437   0.553 127.411  0.00  0.00    -0.025 C 
ATOM     21  C   LIG A   1      -5.908   0.650 127.181  0.00  0.00    +0.012 C 
ATOM     22  C   LIG A   1      -8.130   0.806 126.036  0.00  0.00    +0.010 C 
ATOM     23  C   LIG A   1      -7.972  -0.335 125.024  0.00  0.00    +0.032 C 
ATOM     24  C   LIG A   1      -8.412  -1.691 125.573  0.00  0.00    +0.120 C 
ATOM     25  C   LIG A   1      -7.761  -2.059 126.939  0.00  0.00    -0.006 C 
ATOM     26  C   LIG A   1      -6.298  -2.492 126.712  0.00  0.00    +0.014 C 
ATOM     27  C   LIG A   1      -8.496  -3.306 127.501  0.00  0.00    +0.014 C 
ENDROOT
BRANCH  11  28
ATOM     28  C   LIG A   1     -10.281   6.674 130.258  0.00  0.00    -0.076 C 
ATOM     29  C   LIG A   1      -9.469   7.646 129.808  0.00  0.00    +0.007 C 
ATOM     30  C   LIG A   1     -11.701   6.592 129.748  0.00  0.00    +0.038 C 
ENDBRANCH  11  28
BRANCH  24  31
ATOM     31  O   LIG A   1      -9.842  -1.699 125.657  0.00  0.00    -0.391 OA
ATOM     32  H   LIG A   1     -10.173  -2.518 125.255  0.00  0.00    +0.210 HD
ENDBRANCH  24  31
TORSDOF 2
ENDMDL
MODEL 5
REMARK VINA RESULT:      -8.5      2.037      7.784
REMARK  Name = NuBBE_133
REMARK  9 active torsions:
REMARK  status: ('A' for Active; 'I' for Inactive)
REMARK    1  A    between atoms: C_1  and  C_2
REMARK    2  A    between atoms: C_7  and  C_10
REMARK    3  A    between atoms: C_13  and  C_15
REMARK    4  A    between atoms: C_15  and  C_17
REMARK    5  A    between atoms: C_22  and  C_23
REMARK    6  A    between atoms: C_28  and  C_29
REMARK    7  A    between atoms: C_32  and  O_37
REMARK    8  A    between atoms: C_34  and  C_35
REMARK    9  A    between atoms: C_34  and  C_36
REMARK                            x       y       z     vdW  Elec       q    Type
REMARK                         _______ _______ _______ _____ _____    ______ ____
ROOT
ATOM      1  C   LIG A   1      -4.760  -3.664 130.189  0.00  0.00    +0.012 C 
ATOM      2  C   LIG A   1      -5.111  -2.152 130.368  0.00  0.00    -0.023 C 
ATOM      3  C   LIG A   1      -6.168  -1.938 131.516  0.00  0.00    -0.000 C 
ATOM      4  C   LIG A   1      -5.694  -2.159 132.980  0.00  0.00    +0.006 C 
ATOM      5  C   LIG A   1      -4.319  -1.511 133.272  0.00  0.00    -0.028 C 
ATOM      6  C   LIG A   1      -3.282  -1.811 132.173  0.00  0.00    +0.007 C 
ATOM      7  C   LIG A   1      -3.777  -1.451 130.766  0.00  0.00    +0.008 C 
ATOM      8  C   LIG A   1      -4.439   0.012 133.475  0.00  0.00    +0.011 C 
ATOM      9  C   LIG A   1      -3.930  -2.171 134.603  0.00  0.00    +0.007 C 
ATOM     10  C   LIG A   1      -4.400  -3.617 134.490  0.00  0.00    +0.009 C 
ATOM     11  C   LIG A   1      -5.597  -3.617 133.516  0.00  0.00    +0.018 C 
ATOM     12  C   LIG A   1      -7.497  -2.638 131.203  0.00  0.00    +0.005 C 
ATOM     13  C   LIG A   1      -8.093  -2.208 129.859  0.00  0.00    +0.005 C 
ATOM     14  C   LIG A   1      -7.100  -2.308 128.675  0.00  0.00    +0.002 C 
ATOM     15  C   LIG A   1      -5.745  -1.546 128.984  0.00  0.00    -0.023 C 
ATOM     16  C   LIG A   1      -5.982  -0.009 129.125  0.00  0.00    +0.012 C 
ATOM     17  C   LIG A   1      -4.771  -1.723 127.783  0.00  0.00    +0.008 C 
ATOM     18  C   LIG A   1      -5.386  -1.451 126.405  0.00  0.00    +0.005 C 
ATOM     19  C   LIG A   1      -6.632  -2.328 126.168  0.00  0.00    +0.003 C 
ATOM     20  C   LIG A   1      -7.750  -2.040 127.241  0.00  0.00    -0.025 C 
ATOM     21  C   LIG A   1      -8.359  -0.619 127.141  0.00  0.00    +0.012 C 
ATOM     22  C   LIG A   1      -8.909  -3.059 127.012  0.00  0.00    +0.010 C 
ATOM     23  C   LIG A   1      -9.423  -3.126 125.569  0.00  0.00    +0.032 C 
ATOM     24  C   LIG A   1      -8.316  -3.377 124.547  0.00  0.00    +0.120 C 
ATOM     25  C   LIG A   1      -7.111  -2.397 124.669  0.00  0.00    -0.006 C 
ATOM     26  C   LIG A   1      -7.503  -1.025 124.084  0.00  0.00    +0.014 C 
ATOM     27  C   LIG A   1      -5.963  -2.935 123.773  0.00  0.00    +0.014 C 
ENDROOT
BRANCH  11  28
ATOM     28  C   LIG A   1      -6.822  -4.260 134.160  0.00  0.00    -0.076 C 
ATOM     29  C   LIG A   1      -8.029  -3.684 134.305  0.00  0.00    +0.007 C 
ATOM     30  C   LIG A   1      -6.601  -5.668 134.663  0.00  0.00    +0.038 C 
ENDBRANCH  11  28
BRANCH  24  31
ATOM     31  O   LIG A   1      -7.895  -4.740 124.669  0.00  0.00    -0.391 OA
ATOM     32  H   LIG A   1      -7.907  -5.150 123.789  0.00  0.00    +0.210 HD
ENDBRANCH  24  31
TORSDOF 2
ENDMDL
MODEL 6
REMARK VINA RESULT:      -8.3      3.333      5.300
REMARK  Name = NuBBE_133
REMARK  9 active torsions:
REMARK  status: ('A' for Active; 'I' for Inactive)
REMARK    1  A    between atoms: C_1  and  C_2
REMARK    2  A    between atoms: C_7  and  C_10
REMARK    3  A    between atoms: C_13  and  C_15
REMARK    4  A    between atoms: C_15  and  C_17
REMARK    5  A    between atoms: C_22  and  C_23
REMARK    6  A    between atoms: C_28  and  C_29
REMARK    7  A    between atoms: C_32  and  O_37
REMARK    8  A    between atoms: C_34  and  C_35
REMARK    9  A    between atoms: C_34  and  C_36
REMARK                            x       y       z     vdW  Elec       q    Type
REMARK                         _______ _______ _______ _____ _____    ______ ____
ROOT
ATOM      1  C   LIG A   1      -5.678   0.386 126.262  0.00  0.00    +0.012 C 
ATOM      2  C   LIG A   1      -6.669  -0.502 127.082  0.00  0.00    -0.023 C 
ATOM      3  C   LIG A   1      -8.134  -0.404 126.514  0.00  0.00    -0.000 C 
ATOM      4  C   LIG A   1      -8.423  -1.078 125.144  0.00  0.00    +0.006 C 
ATOM      5  C   LIG A   1      -7.805  -2.493 125.028  0.00  0.00    -0.028 C 
ATOM      6  C   LIG A   1      -6.342  -2.538 125.509  0.00  0.00    +0.007 C 
ATOM      7  C   LIG A   1      -6.158  -1.966 126.921  0.00  0.00    +0.008 C 
ATOM      8  C   LIG A   1      -8.637  -3.542 125.789  0.00  0.00    +0.011 C 
ATOM      9  C   LIG A   1      -7.905  -2.762 123.519  0.00  0.00    +0.007 C 
ATOM     10  C   LIG A   1      -7.595  -1.429 122.847  0.00  0.00    +0.009 C 
ATOM     11  C   LIG A   1      -8.007  -0.326 123.846  0.00  0.00    +0.018 C 
ATOM     12  C   LIG A   1      -8.685   1.025 126.607  0.00  0.00    +0.005 C 
ATOM     13  C   LIG A   1      -8.638   1.589 128.031  0.00  0.00    +0.005 C 
ATOM     14  C   LIG A   1      -7.250   1.465 128.706  0.00  0.00    +0.002 C 
ATOM     15  C   LIG A   1      -6.703  -0.022 128.647  0.00  0.00    -0.023 C 
ATOM     16  C   LIG A   1      -7.599  -0.985 129.489  0.00  0.00    +0.012 C 
ATOM     17  C   LIG A   1      -5.289  -0.075 129.293  0.00  0.00    +0.008 C 
ATOM     18  C   LIG A   1      -5.172   0.622 130.654  0.00  0.00    +0.005 C 
ATOM     19  C   LIG A   1      -5.623   2.094 130.568  0.00  0.00    +0.003 C 
ATOM     20  C   LIG A   1      -7.129   2.206 130.115  0.00  0.00    -0.025 C 
ATOM     21  C   LIG A   1      -8.135   1.643 131.150  0.00  0.00    +0.012 C 
ATOM     22  C   LIG A   1      -7.460   3.719 129.922  0.00  0.00    +0.010 C 
ATOM     23  C   LIG A   1      -7.092   4.610 131.114  0.00  0.00    +0.032 C 
ATOM     24  C   LIG A   1      -5.636   4.460 131.550  0.00  0.00    +0.120 C 
ATOM     25  C   LIG A   1      -5.200   2.984 131.796  0.00  0.00    -0.006 C 
ATOM     26  C   LIG A   1      -5.777   2.494 133.140  0.00  0.00    +0.014 C 
ATOM     27  C   LIG A   1      -3.656   2.960 131.957  0.00  0.00    +0.014 C 
ENDROOT
BRANCH  11  28
ATOM     28  C   LIG A   1      -8.986   0.651 123.202  0.00  0.00    -0.076 C 
ATOM     29  C   LIG A   1      -8.898   1.992 123.239  0.00  0.00    +0.007 C 
ATOM     30  C   LIG A   1     -10.137  -0.002 122.473  0.00  0.00    +0.038 C 
ENDBRANCH  11  28
BRANCH  24  31
ATOM     31  O   LIG A   1      -4.806   5.092 130.569  0.00  0.00    -0.391 OA
ATOM     32  H   LIG A   1      -4.369   5.857 130.977  0.00  0.00    +0.210 HD
ENDBRANCH  24  31
TORSDOF 2
ENDMDL
MODEL 7
REMARK VINA RESULT:      -8.3      4.135      7.291
REMARK  Name = NuBBE_133
REMARK  9 active torsions:
REMARK  status: ('A' for Active; 'I' for Inactive)
REMARK    1  A    between atoms: C_1  and  C_2
REMARK    2  A    between atoms: C_7  and  C_10
REMARK    3  A    between atoms: C_13  and  C_15
REMARK    4  A    between atoms: C_15  and  C_17
REMARK    5  A    between atoms: C_22  and  C_23
REMARK    6  A    between atoms: C_28  and  C_29
REMARK    7  A    between atoms: C_32  and  O_37
REMARK    8  A    between atoms: C_34  and  C_35
REMARK    9  A    between atoms: C_34  and  C_36
REMARK                            x       y       z     vdW  Elec       q    Type
REMARK                         _______ _______ _______ _____ _____    ______ ____
ROOT
ATOM      1  C   LIG A   1      -7.623  -0.342 130.163  0.00  0.00    +0.012 C 
ATOM      2  C   LIG A   1      -6.134   0.084 130.372  0.00  0.00    -0.023 C 
ATOM      3  C   LIG A   1      -5.486  -0.669 131.593  0.00  0.00    -0.000 C 
ATOM      4  C   LIG A   1      -5.189  -2.186 131.429  0.00  0.00    +0.006 C 
ATOM      5  C   LIG A   1      -4.532  -2.527 130.069  0.00  0.00    -0.028 C 
ATOM      6  C   LIG A   1      -5.244  -1.845 128.885  0.00  0.00    +0.007 C 
ATOM      7  C   LIG A   1      -5.389  -0.328 129.066  0.00  0.00    +0.008 C 
ATOM      8  C   LIG A   1      -3.034  -2.169 130.055  0.00  0.00    +0.011 C 
ATOM      9  C   LIG A   1      -4.691  -4.054 130.011  0.00  0.00    +0.007 C 
ATOM     10  C   LIG A   1      -6.063  -4.342 130.610  0.00  0.00    +0.009 C 
ATOM     11  C   LIG A   1      -6.364  -3.194 131.597  0.00  0.00    +0.018 C 
ATOM     12  C   LIG A   1      -6.200  -0.337 132.910  0.00  0.00    +0.005 C 
ATOM     13  C   LIG A   1      -6.253   1.168 133.193  0.00  0.00    +0.005 C 
ATOM     14  C   LIG A   1      -6.806   2.006 132.015  0.00  0.00    +0.002 C 
ATOM     15  C   LIG A   1      -6.036   1.692 130.664  0.00  0.00    -0.023 C 
ATOM     16  C   LIG A   1      -4.542   2.137 130.751  0.00  0.00    +0.012 C 
ATOM     17  C   LIG A   1      -6.666   2.523 129.510  0.00  0.00    +0.008 C 
ATOM     18  C   LIG A   1      -6.879   4.010 129.822  0.00  0.00    +0.005 C 
ATOM     19  C   LIG A   1      -7.735   4.195 131.092  0.00  0.00    +0.003 C 
ATOM     20  C   LIG A   1      -7.041   3.549 132.351  0.00  0.00    -0.025 C 
ATOM     21  C   LIG A   1      -5.726   4.254 132.769  0.00  0.00    +0.012 C 
ATOM     22  C   LIG A   1      -8.030   3.660 133.553  0.00  0.00    +0.010 C 
ATOM     23  C   LIG A   1      -8.586   5.069 133.793  0.00  0.00    +0.032 C 
ATOM     24  C   LIG A   1      -9.226   5.682 132.550  0.00  0.00    +0.120 C 
ATOM     25  C   LIG A   1      -8.314   5.647 131.287  0.00  0.00    -0.006 C 
ATOM     26  C   LIG A   1      -7.226   6.733 131.408  0.00  0.00    +0.014 C 
ATOM     27  C   LIG A   1      -9.179   6.039 130.059  0.00  0.00    +0.014 C 
ENDROOT
BRANCH  11  28
ATOM     28  C   LIG A   1      -6.688  -3.740 132.984  0.00  0.00    -0.076 C 
ATOM     29  C   LIG A   1      -7.750  -3.402 133.735  0.00  0.00    +0.007 C 
ATOM     30  C   LIG A   1      -5.692  -4.747 133.510  0.00  0.00    +0.038 C 
ENDBRANCH  11  28
BRANCH  24  31
ATOM     31  O   LIG A   1     -10.472   5.017 132.313  0.00  0.00    -0.391 OA
ATOM     32  H   LIG A   1     -11.050   5.609 131.804  0.00  0.00    +0.210 HD
ENDBRANCH  24  31
TORSDOF 2
ENDMDL
MODEL 8
REMARK VINA RESULT:      -8.3      4.039      6.296
REMARK  Name = NuBBE_133
REMARK  9 active torsions:
REMARK  status: ('A' for Active; 'I' for Inactive)
REMARK    1  A    between atoms: C_1  and  C_2
REMARK    2  A    between atoms: C_7  and  C_10
REMARK    3  A    between atoms: C_13  and  C_15
REMARK    4  A    between atoms: C_15  and  C_17
REMARK    5  A    between atoms: C_22  and  C_23
REMARK    6  A    between atoms: C_28  and  C_29
REMARK    7  A    between atoms: C_32  and  O_37
REMARK    8  A    between atoms: C_34  and  C_35
REMARK    9  A    between atoms: C_34  and  C_36
REMARK                            x       y       z     vdW  Elec       q    Type
REMARK                         _______ _______ _______ _____ _____    ______ ____
ROOT
ATOM      1  C   LIG A   1      -8.109   0.767 129.769  0.00  0.00    +0.012 C 
ATOM      2  C   LIG A   1      -6.972   0.795 128.698  0.00  0.00    -0.023 C 
ATOM      3  C   LIG A   1      -5.982  -0.417 128.877  0.00  0.00    -0.000 C 
ATOM      4  C   LIG A   1      -6.505  -1.834 128.508  0.00  0.00    +0.006 C 
ATOM      5  C   LIG A   1      -7.282  -1.859 127.170  0.00  0.00    -0.028 C 
ATOM      6  C   LIG A   1      -8.305  -0.711 127.061  0.00  0.00    +0.007 C 
ATOM      7  C   LIG A   1      -7.686   0.669 127.318  0.00  0.00    +0.008 C 
ATOM      8  C   LIG A   1      -6.331  -1.827 125.959  0.00  0.00    +0.011 C 
ATOM      9  C   LIG A   1      -7.981  -3.226 127.231  0.00  0.00    +0.007 C 
ATOM     10  C   LIG A   1      -8.401  -3.401 128.686  0.00  0.00    +0.009 C 
ATOM     11  C   LIG A   1      -7.405  -2.583 129.535  0.00  0.00    +0.018 C 
ATOM     12  C   LIG A   1      -5.272  -0.375 130.237  0.00  0.00    +0.005 C 
ATOM     13  C   LIG A   1      -4.531   0.944 130.479  0.00  0.00    +0.005 C 
ATOM     14  C   LIG A   1      -5.404   2.201 130.250  0.00  0.00    +0.002 C 
ATOM     15  C   LIG A   1      -6.101   2.176 128.826  0.00  0.00    -0.023 C 
ATOM     16  C   LIG A   1      -5.044   2.258 127.680  0.00  0.00    +0.012 C 
ATOM     17  C   LIG A   1      -7.001   3.436 128.673  0.00  0.00    +0.008 C 
ATOM     18  C   LIG A   1      -6.333   4.761 129.061  0.00  0.00    +0.005 C 
ATOM     19  C   LIG A   1      -5.792   4.710 130.504  0.00  0.00    +0.003 C 
ATOM     20  C   LIG A   1      -4.709   3.576 130.671  0.00  0.00    -0.025 C 
ATOM     21  C   LIG A   1      -3.408   3.833 129.870  0.00  0.00    +0.012 C 
ATOM     22  C   LIG A   1      -4.319   3.505 132.180  0.00  0.00    +0.010 C 
ATOM     23  C   LIG A   1      -3.923   4.850 132.801  0.00  0.00    +0.032 C 
ATOM     24  C   LIG A   1      -4.977   5.937 132.600  0.00  0.00    +0.120 C 
ATOM     25  C   LIG A   1      -5.426   6.113 131.118  0.00  0.00    -0.006 C 
ATOM     26  C   LIG A   1      -4.330   6.863 130.333  0.00  0.00    +0.014 C 
ATOM     27  C   LIG A   1      -6.675   7.037 131.102  0.00  0.00    +0.014 C 
ENDROOT
BRANCH  11  28
ATOM     28  C   LIG A   1      -6.753  -3.458 130.601  0.00  0.00    -0.076 C 
ATOM     29  C   LIG A   1      -5.885  -4.459 130.376  0.00  0.00    +0.007 C 
ATOM     30  C   LIG A   1      -7.157  -3.125 132.019  0.00  0.00    +0.038 C 
ENDBRANCH  11  28
BRANCH  24  31
ATOM     31  O   LIG A   1      -6.090   5.647 133.452  0.00  0.00    -0.391 OA
ATOM     32  H   LIG A   1      -6.902   5.962 133.023  0.00  0.00    +0.210 HD
ENDBRANCH  24  31
TORSDOF 2
ENDMDL
MODEL 9
REMARK VINA RESULT:      -8.1      1.920      3.881
REMARK  Name = NuBBE_133
REMARK  9 active torsions:
REMARK  status: ('A' for Active; 'I' for Inactive)
REMARK    1  A    between atoms: C_1  and  C_2
REMARK    2  A    between atoms: C_7  and  C_10
REMARK    3  A    between atoms: C_13  and  C_15
REMARK    4  A    between atoms: C_15  and  C_17
REMARK    5  A    between atoms: C_22  and  C_23
REMARK    6  A    between atoms: C_28  and  C_29
REMARK    7  A    between atoms: C_32  and  O_37
REMARK    8  A    between atoms: C_34  and  C_35
REMARK    9  A    between atoms: C_34  and  C_36
REMARK                            x       y       z     vdW  Elec       q    Type
REMARK                         _______ _______ _______ _____ _____    ______ ____
ROOT
ATOM      1  C   LIG A   1      -5.376  -1.112 126.668  0.00  0.00    +0.012 C 
ATOM      2  C   LIG A   1      -6.765  -1.754 126.985  0.00  0.00    -0.023 C 
ATOM      3  C   LIG A   1      -7.946  -0.889 126.403  0.00  0.00    -0.000 C 
ATOM      4  C   LIG A   1      -8.133  -0.874 124.860  0.00  0.00    +0.006 C 
ATOM      5  C   LIG A   1      -8.023  -2.281 124.226  0.00  0.00    -0.028 C 
ATOM      6  C   LIG A   1      -6.807  -3.069 124.751  0.00  0.00    +0.007 C 
ATOM      7  C   LIG A   1      -6.759  -3.145 126.283  0.00  0.00    +0.008 C 
ATOM      8  C   LIG A   1      -9.308  -3.103 124.436  0.00  0.00    +0.011 C 
ATOM      9  C   LIG A   1      -7.870  -1.949 122.734  0.00  0.00    +0.007 C 
ATOM     10  C   LIG A   1      -6.986  -0.709 122.683  0.00  0.00    +0.009 C 
ATOM     11  C   LIG A   1      -7.210   0.048 124.010  0.00  0.00    +0.018 C 
ATOM     12  C   LIG A   1      -7.985   0.512 127.026  0.00  0.00    +0.005 C 
ATOM     13  C   LIG A   1      -8.067   0.480 128.555  0.00  0.00    +0.005 C 
ATOM     14  C   LIG A   1      -6.990  -0.412 129.220  0.00  0.00    +0.002 C 
ATOM     15  C   LIG A   1      -6.982  -1.873 128.604  0.00  0.00    -0.023 C 
ATOM     16  C   LIG A   1      -8.314  -2.624 128.918  0.00  0.00    +0.012 C 
ATOM     17  C   LIG A   1      -5.850  -2.705 129.273  0.00  0.00    +0.008 C 
ATOM     18  C   LIG A   1      -5.810  -2.630 130.804  0.00  0.00    +0.005 C 
ATOM     19  C   LIG A   1      -5.705  -1.170 131.288  0.00  0.00    +0.003 C 
ATOM     20  C   LIG A   1      -6.942  -0.317 130.813  0.00  0.00    -0.025 C 
ATOM     21  C   LIG A   1      -8.283  -0.752 131.457  0.00  0.00    +0.012 C 
ATOM     22  C   LIG A   1      -6.689   1.166 131.225  0.00  0.00    +0.010 C 
ATOM     23  C   LIG A   1      -6.316   1.364 132.699  0.00  0.00    +0.032 C 
ATOM     24  C   LIG A   1      -5.132   0.506 133.140  0.00  0.00    +0.120 C 
ATOM     25  C   LIG A   1      -5.288  -1.007 132.799  0.00  0.00    -0.006 C 
ATOM     26  C   LIG A   1      -6.281  -1.657 133.784  0.00  0.00    +0.014 C 
ATOM     27  C   LIG A   1      -3.921  -1.699 133.046  0.00  0.00    +0.014 C 
ENDROOT
BRANCH  11  28
ATOM     28  C   LIG A   1      -7.631   1.491 123.748  0.00  0.00    -0.076 C 
ATOM     29  C   LIG A   1      -6.805   2.548 123.665  0.00  0.00    +0.007 C 
ATOM     30  C   LIG A   1      -9.119   1.690 123.576  0.00  0.00    +0.038 C 
ENDBRANCH  11  28
BRANCH  24  31
ATOM     31  O   LIG A   1      -3.941   1.051 132.561  0.00  0.00    -0.391 OA
ATOM     32  H   LIG A   1      -4.039   2.014 132.495  0.00  0.00    +0.210 HD
ENDBRANCH  24  31
TORSDOF 2
ENDMDL
