MODEL 1
REMARK VINA RESULT:      -8.2      0.000      0.000
REMARK  Name = NuBBE_2362
REMARK  7 active torsions:
REMARK  status: ('A' for Active; 'I' for Inactive)
REMARK    1  A    between atoms: C_1  and  C_2
REMARK    2  A    between atoms: C_2  and  C_3
REMARK    3  A    between atoms: C_7  and  C_8
REMARK    4  A    between atoms: C_16  and  O_17
REMARK    5  A    between atoms: C_18  and  C_19
REMARK    6  A    between atoms: C_19  and  C_20
REMARK    7  A    between atoms: C_19  and  C_21
REMARK                            x       y       z     vdW  Elec       q    Type
REMARK                         _______ _______ _______ _____ _____    ______ ____
ROOT
ATOM      1  C   LIG A   1      -6.435  -3.298 132.318  0.00  0.00    +0.011 C 
ATOM      2  C   LIG A   1      -5.711  -3.543 130.971  0.00  0.00    -0.031 C 
ATOM      3  C   LIG A   1      -5.522  -5.075 130.845  0.00  0.00    +0.011 C 
ATOM      4  C   LIG A   1      -4.324  -2.883 131.062  0.00  0.00    +0.007 C 
ATOM      5  C   LIG A   1      -3.524  -2.964 129.768  0.00  0.00    +0.001 C 
ATOM      6  C   LIG A   1      -4.368  -3.023 128.495  0.00  0.00    +0.012 C 
ATOM      7  C   LIG A   1      -5.739  -2.308 128.583  0.00  0.00    -0.003 C 
ATOM      8  C   LIG A   1      -5.520  -0.787 128.825  0.00  0.00    +0.016 C 
ATOM      9  C   LIG A   1      -6.566  -2.900 129.804  0.00  0.00    +0.005 C 
ATOM     10  C   LIG A   1      -7.689  -3.851 129.349  0.00  0.00    +0.009 C 
ATOM     11  C   LIG A   1      -8.598  -3.172 128.343  0.00  0.00    +0.036 C 
ATOM     12  C   LIG A   1      -7.815  -2.793 127.122  0.00  0.00    -0.043 A 
ATOM     13  C   LIG A   1      -6.470  -2.399 127.218  0.00  0.00    -0.035 A 
ATOM     14  C   LIG A   1      -5.817  -2.031 126.024  0.00  0.00    +0.050 A 
ATOM     15  C   LIG A   1      -6.471  -2.064 124.788  0.00  0.00    +0.121 A 
ATOM     16  C   LIG A   1      -7.808  -2.449 124.687  0.00  0.00    -0.003 A 
ATOM     17  C   LIG A   1      -8.467  -2.804 125.873  0.00  0.00    +0.011 A 
ENDROOT
BRANCH  16  18
ATOM     18  C   LIG A   1      -8.579  -2.501 123.378  0.00  0.00    +0.016 C 
ATOM     19  C   LIG A   1      -9.113  -1.128 122.963  0.00  0.00    +0.012 C 
ATOM     20  C   LIG A   1      -9.693  -3.551 123.396  0.00  0.00    +0.012 C 
ENDBRANCH  16  18
BRANCH  15  21
ATOM     21  O   LIG A   1      -5.788  -1.704 123.660  0.00  0.00    -0.506 OA
ATOM     22  H   LIG A   1      -4.854  -1.568 123.888  0.00  0.00    +0.292 HD
ENDBRANCH  15  21
TORSDOF 2
ENDMDL
MODEL 2
REMARK VINA RESULT:      -7.5      3.392      6.571
REMARK  Name = NuBBE_2362
REMARK  7 active torsions:
REMARK  status: ('A' for Active; 'I' for Inactive)
REMARK    1  A    between atoms: C_1  and  C_2
REMARK    2  A    between atoms: C_2  and  C_3
REMARK    3  A    between atoms: C_7  and  C_8
REMARK    4  A    between atoms: C_16  and  O_17
REMARK    5  A    between atoms: C_18  and  C_19
REMARK    6  A    between atoms: C_19  and  C_20
REMARK    7  A    between atoms: C_19  and  C_21
REMARK                            x       y       z     vdW  Elec       q    Type
REMARK                         _______ _______ _______ _____ _____    ______ ____
ROOT
ATOM      1  C   LIG A   1      -7.886  -4.511 124.809  0.00  0.00    +0.011 C 
ATOM      2  C   LIG A   1      -8.401  -3.054 124.704  0.00  0.00    -0.031 C 
ATOM      3  C   LIG A   1      -9.475  -2.885 125.806  0.00  0.00    +0.011 C 
ATOM      4  C   LIG A   1      -9.077  -2.899 123.331  0.00  0.00    +0.007 C 
ATOM      5  C   LIG A   1      -9.557  -1.481 123.044  0.00  0.00    +0.001 C 
ATOM      6  C   LIG A   1      -8.756  -0.380 123.739  0.00  0.00    +0.012 C 
ATOM      7  C   LIG A   1      -7.268  -0.719 124.002  0.00  0.00    -0.003 C 
ATOM      8  C   LIG A   1      -6.533  -0.928 122.647  0.00  0.00    +0.016 C 
ATOM      9  C   LIG A   1      -7.172  -2.064 124.843  0.00  0.00    +0.005 C 
ATOM     10  C   LIG A   1      -6.826  -1.811 126.322  0.00  0.00    +0.009 C 
ATOM     11  C   LIG A   1      -5.558  -0.991 126.448  0.00  0.00    +0.036 C 
ATOM     12  C   LIG A   1      -5.751   0.349 125.802  0.00  0.00    -0.043 A 
ATOM     13  C   LIG A   1      -6.560   0.493 124.663  0.00  0.00    -0.035 A 
ATOM     14  C   LIG A   1      -6.664   1.783 124.102  0.00  0.00    +0.050 A 
ATOM     15  C   LIG A   1      -5.999   2.881 124.657  0.00  0.00    +0.121 A 
ATOM     16  C   LIG A   1      -5.189   2.743 125.785  0.00  0.00    -0.003 A 
ATOM     17  C   LIG A   1      -5.072   1.460 126.339  0.00  0.00    +0.011 A 
ENDROOT
BRANCH  16  18
ATOM     18  C   LIG A   1      -4.436   3.892 126.433  0.00  0.00    +0.016 C 
ATOM     19  C   LIG A   1      -2.923   3.656 126.457  0.00  0.00    +0.012 C 
ATOM     20  C   LIG A   1      -4.969   4.230 127.828  0.00  0.00    +0.012 C 
ENDBRANCH  16  18
BRANCH  15  21
ATOM     21  O   LIG A   1      -6.140   4.111 124.077  0.00  0.00    -0.506 OA
ATOM     22  H   LIG A   1      -5.277   4.403 123.744  0.00  0.00    +0.292 HD
ENDBRANCH  15  21
TORSDOF 2
ENDMDL
MODEL 3
REMARK VINA RESULT:      -7.5      9.276     10.567
REMARK  Name = NuBBE_2362
REMARK  7 active torsions:
REMARK  status: ('A' for Active; 'I' for Inactive)
REMARK    1  A    between atoms: C_1  and  C_2
REMARK    2  A    between atoms: C_2  and  C_3
REMARK    3  A    between atoms: C_7  and  C_8
REMARK    4  A    between atoms: C_16  and  O_17
REMARK    5  A    between atoms: C_18  and  C_19
REMARK    6  A    between atoms: C_19  and  C_20
REMARK    7  A    between atoms: C_19  and  C_21
REMARK                            x       y       z     vdW  Elec       q    Type
REMARK                         _______ _______ _______ _____ _____    ______ ____
ROOT
ATOM      1  C   LIG A   1      -3.774   4.539 133.682  0.00  0.00    +0.011 C 
ATOM      2  C   LIG A   1      -5.098   5.196 134.144  0.00  0.00    -0.031 C 
ATOM      3  C   LIG A   1      -4.732   6.610 134.659  0.00  0.00    +0.011 C 
ATOM      4  C   LIG A   1      -5.641   4.369 135.322  0.00  0.00    +0.007 C 
ATOM      5  C   LIG A   1      -6.997   4.845 135.828  0.00  0.00    +0.001 C 
ATOM      6  C   LIG A   1      -7.873   5.522 134.774  0.00  0.00    +0.012 C 
ATOM      7  C   LIG A   1      -7.653   5.028 133.323  0.00  0.00    -0.003 C 
ATOM      8  C   LIG A   1      -8.028   3.521 133.222  0.00  0.00    +0.016 C 
ATOM      9  C   LIG A   1      -6.121   5.195 132.935  0.00  0.00    +0.005 C 
ATOM     10  C   LIG A   1      -5.878   6.394 132.000  0.00  0.00    +0.009 C 
ATOM     11  C   LIG A   1      -6.753   6.303 130.765  0.00  0.00    +0.036 C 
ATOM     12  C   LIG A   1      -8.199   6.335 131.162  0.00  0.00    -0.043 A 
ATOM     13  C   LIG A   1      -8.633   5.754 132.364  0.00  0.00    -0.035 A 
ATOM     14  C   LIG A   1     -10.014   5.803 132.646  0.00  0.00    +0.050 A 
ATOM     15  C   LIG A   1     -10.920   6.415 131.774  0.00  0.00    +0.121 A 
ATOM     16  C   LIG A   1     -10.496   6.989 130.576  0.00  0.00    -0.003 A 
ATOM     17  C   LIG A   1      -9.126   6.932 130.284  0.00  0.00    +0.011 A 
ENDROOT
BRANCH  16  18
ATOM     18  C   LIG A   1     -11.428   7.663 129.582  0.00  0.00    +0.016 C 
ATOM     19  C   LIG A   1     -12.379   6.669 128.910  0.00  0.00    +0.012 C 
ATOM     20  C   LIG A   1     -10.674   8.500 128.546  0.00  0.00    +0.012 C 
ENDBRANCH  16  18
BRANCH  15  21
ATOM     21  O   LIG A   1     -12.247   6.442 132.100  0.00  0.00    -0.506 OA
ATOM     22  H   LIG A   1     -12.461   5.646 132.613  0.00  0.00    +0.292 HD
ENDBRANCH  15  21
TORSDOF 2
ENDMDL
MODEL 4
REMARK VINA RESULT:      -7.4      1.691      6.283
REMARK  Name = NuBBE_2362
REMARK  7 active torsions:
REMARK  status: ('A' for Active; 'I' for Inactive)
REMARK    1  A    between atoms: C_1  and  C_2
REMARK    2  A    between atoms: C_2  and  C_3
REMARK    3  A    between atoms: C_7  and  C_8
REMARK    4  A    between atoms: C_16  and  O_17
REMARK    5  A    between atoms: C_18  and  C_19
REMARK    6  A    between atoms: C_19  and  C_20
REMARK    7  A    between atoms: C_19  and  C_21
REMARK                            x       y       z     vdW  Elec       q    Type
REMARK                         _______ _______ _______ _____ _____    ______ ____
ROOT
ATOM      1  C   LIG A   1      -9.515  -2.819 122.864  0.00  0.00    +0.011 C 
ATOM      2  C   LIG A   1      -8.607  -1.906 123.725  0.00  0.00    -0.031 C 
ATOM      3  C   LIG A   1      -9.448  -0.656 124.079  0.00  0.00    +0.011 C 
ATOM      4  C   LIG A   1      -7.422  -1.469 122.848  0.00  0.00    +0.007 C 
ATOM      5  C   LIG A   1      -6.388  -0.634 123.591  0.00  0.00    +0.001 C 
ATOM      6  C   LIG A   1      -6.290  -0.919 125.090  0.00  0.00    +0.012 C 
ATOM      7  C   LIG A   1      -6.646  -2.368 125.506  0.00  0.00    -0.003 C 
ATOM      8  C   LIG A   1      -5.634  -3.359 124.863  0.00  0.00    +0.016 C 
ATOM      9  C   LIG A   1      -8.104  -2.724 124.985  0.00  0.00    +0.005 C 
ATOM     10  C   LIG A   1      -9.153  -2.708 126.112  0.00  0.00    +0.009 C 
ATOM     11  C   LIG A   1      -8.737  -3.618 127.252  0.00  0.00    +0.036 C 
ATOM     12  C   LIG A   1      -7.444  -3.137 127.840  0.00  0.00    -0.043 A 
ATOM     13  C   LIG A   1      -6.461  -2.538 127.037  0.00  0.00    -0.035 A 
ATOM     14  C   LIG A   1      -5.263  -2.142 127.666  0.00  0.00    +0.050 A 
ATOM     15  C   LIG A   1      -5.058  -2.325 129.038  0.00  0.00    +0.121 A 
ATOM     16  C   LIG A   1      -6.028  -2.925 129.840  0.00  0.00    -0.003 A 
ATOM     17  C   LIG A   1      -7.217  -3.333 129.217  0.00  0.00    +0.011 A 
ENDROOT
BRANCH  16  18
ATOM     18  C   LIG A   1      -5.867  -3.160 131.333  0.00  0.00    +0.016 C 
ATOM     19  C   LIG A   1      -5.356  -4.569 131.649  0.00  0.00    +0.012 C 
ATOM     20  C   LIG A   1      -7.142  -2.841 132.117  0.00  0.00    +0.012 C 
ENDBRANCH  16  18
BRANCH  15  21
ATOM     21  O   LIG A   1      -3.880  -1.916 129.598  0.00  0.00    -0.506 OA
ATOM     22  H   LIG A   1      -3.655  -1.038 129.252  0.00  0.00    +0.292 HD
ENDBRANCH  15  21
TORSDOF 2
ENDMDL
MODEL 5
REMARK VINA RESULT:      -7.1      9.467     11.142
REMARK  Name = NuBBE_2362
REMARK  7 active torsions:
REMARK  status: ('A' for Active; 'I' for Inactive)
REMARK    1  A    between atoms: C_1  and  C_2
REMARK    2  A    between atoms: C_2  and  C_3
REMARK    3  A    between atoms: C_7  and  C_8
REMARK    4  A    between atoms: C_16  and  O_17
REMARK    5  A    between atoms: C_18  and  C_19
REMARK    6  A    between atoms: C_19  and  C_20
REMARK    7  A    between atoms: C_19  and  C_21
REMARK                            x       y       z     vdW  Elec       q    Type
REMARK                         _______ _______ _______ _____ _____    ______ ____
ROOT
ATOM      1  C   LIG A   1      -0.826   6.814 131.974  0.00  0.00    +0.011 C 
ATOM      2  C   LIG A   1      -2.043   7.061 132.898  0.00  0.00    -0.031 C 
ATOM      3  C   LIG A   1      -2.064   8.579 133.204  0.00  0.00    +0.011 C 
ATOM      4  C   LIG A   1      -1.793   6.299 134.211  0.00  0.00    +0.007 C 
ATOM      5  C   LIG A   1      -2.956   6.374 135.192  0.00  0.00    +0.001 C 
ATOM      6  C   LIG A   1      -4.330   6.547 134.545  0.00  0.00    +0.012 C 
ATOM      7  C   LIG A   1      -4.472   5.930 133.131  0.00  0.00    -0.003 C 
ATOM      8  C   LIG A   1      -4.280   4.389 133.213  0.00  0.00    +0.016 C 
ATOM      9  C   LIG A   1      -3.351   6.530 132.179  0.00  0.00    +0.005 C 
ATOM     10  C   LIG A   1      -3.909   7.578 131.198  0.00  0.00    +0.009 C 
ATOM     11  C   LIG A   1      -5.065   7.009 130.399  0.00  0.00    +0.036 C 
ATOM     12  C   LIG A   1      -6.182   6.624 131.323  0.00  0.00    -0.043 A 
ATOM     13  C   LIG A   1      -5.919   6.130 132.611  0.00  0.00    -0.035 A 
ATOM     14  C   LIG A   1      -7.027   5.765 133.403  0.00  0.00    +0.050 A 
ATOM     15  C   LIG A   1      -8.340   5.896 132.936  0.00  0.00    +0.121 A 
ATOM     16  C   LIG A   1      -8.607   6.381 131.656  0.00  0.00    -0.003 A 
ATOM     17  C   LIG A   1      -7.508   6.734 130.859  0.00  0.00    +0.011 A 
ENDROOT
BRANCH  16  18
ATOM     18  C   LIG A   1     -10.006   6.543 131.086  0.00  0.00    +0.016 C 
ATOM     19  C   LIG A   1     -10.666   5.197 130.772  0.00  0.00    +0.012 C 
ATOM     20  C   LIG A   1     -10.041   7.477 129.874  0.00  0.00    +0.012 C 
ENDBRANCH  16  18
BRANCH  15  21
ATOM     21  O   LIG A   1      -9.377   5.534 133.749  0.00  0.00    -0.506 OA
ATOM     22  H   LIG A   1      -9.953   6.304 133.886  0.00  0.00    +0.292 HD
ENDBRANCH  15  21
TORSDOF 2
ENDMDL
MODEL 6
REMARK VINA RESULT:      -7.1      1.362      1.722
REMARK  Name = NuBBE_2362
REMARK  7 active torsions:
REMARK  status: ('A' for Active; 'I' for Inactive)
REMARK    1  A    between atoms: C_1  and  C_2
REMARK    2  A    between atoms: C_2  and  C_3
REMARK    3  A    between atoms: C_7  and  C_8
REMARK    4  A    between atoms: C_16  and  O_17
REMARK    5  A    between atoms: C_18  and  C_19
REMARK    6  A    between atoms: C_19  and  C_20
REMARK    7  A    between atoms: C_19  and  C_21
REMARK                            x       y       z     vdW  Elec       q    Type
REMARK                         _______ _______ _______ _____ _____    ______ ____
ROOT
ATOM      1  C   LIG A   1      -7.154  -3.283 132.474  0.00  0.00    +0.011 C 
ATOM      2  C   LIG A   1      -6.367  -2.723 131.265  0.00  0.00    -0.031 C 
ATOM      3  C   LIG A   1      -5.225  -3.729 130.976  0.00  0.00    +0.011 C 
ATOM      4  C   LIG A   1      -5.744  -1.383 131.696  0.00  0.00    +0.007 C 
ATOM      5  C   LIG A   1      -5.008  -0.663 130.573  0.00  0.00    +0.001 C 
ATOM      6  C   LIG A   1      -5.538  -0.954 129.169  0.00  0.00    +0.012 C 
ATOM      7  C   LIG A   1      -7.049  -1.288 129.094  0.00  0.00    -0.003 C 
ATOM      8  C   LIG A   1      -7.879  -0.062 129.569  0.00  0.00    +0.016 C 
ATOM      9  C   LIG A   1      -7.365  -2.516 130.053  0.00  0.00    +0.005 C 
ATOM     10  C   LIG A   1      -7.578  -3.829 129.277  0.00  0.00    +0.009 C 
ATOM     11  C   LIG A   1      -8.651  -3.664 128.219  0.00  0.00    +0.036 C 
ATOM     12  C   LIG A   1      -8.229  -2.624 127.224  0.00  0.00    -0.043 A 
ATOM     13  C   LIG A   1      -7.466  -1.513 127.618  0.00  0.00    -0.035 A 
ATOM     14  C   LIG A   1      -7.138  -0.568 126.624  0.00  0.00    +0.050 A 
ATOM     15  C   LIG A   1      -7.543  -0.729 125.294  0.00  0.00    +0.121 A 
ATOM     16  C   LIG A   1      -8.305  -1.828 124.898  0.00  0.00    -0.003 A 
ATOM     17  C   LIG A   1      -8.645  -2.764 125.885  0.00  0.00    +0.011 A 
ENDROOT
BRANCH  16  18
ATOM     18  C   LIG A   1      -8.781  -2.060 123.474  0.00  0.00    +0.016 C 
ATOM     19  C   LIG A   1      -9.701  -3.279 123.360  0.00  0.00    +0.012 C 
ATOM     20  C   LIG A   1      -7.625  -2.140 122.474  0.00  0.00    +0.012 C 
ENDBRANCH  16  18
BRANCH  15  21
ATOM     21  O   LIG A   1      -7.190   0.214 124.369  0.00  0.00    -0.506 OA
ATOM     22  H   LIG A   1      -7.733   1.007 124.505  0.00  0.00    +0.292 HD
ENDBRANCH  15  21
TORSDOF 2
ENDMDL
MODEL 7
REMARK VINA RESULT:      -7.1      3.507      6.441
REMARK  Name = NuBBE_2362
REMARK  7 active torsions:
REMARK  status: ('A' for Active; 'I' for Inactive)
REMARK    1  A    between atoms: C_1  and  C_2
REMARK    2  A    between atoms: C_2  and  C_3
REMARK    3  A    between atoms: C_7  and  C_8
REMARK    4  A    between atoms: C_16  and  O_17
REMARK    5  A    between atoms: C_18  and  C_19
REMARK    6  A    between atoms: C_19  and  C_20
REMARK    7  A    between atoms: C_19  and  C_21
REMARK                            x       y       z     vdW  Elec       q    Type
REMARK                         _______ _______ _______ _____ _____    ______ ____
ROOT
ATOM      1  C   LIG A   1      -9.538  -3.196 123.740  0.00  0.00    +0.011 C 
ATOM      2  C   LIG A   1      -8.076  -2.688 123.683  0.00  0.00    -0.031 C 
ATOM      3  C   LIG A   1      -7.749  -2.454 122.188  0.00  0.00    +0.011 C 
ATOM      4  C   LIG A   1      -7.172  -3.814 124.213  0.00  0.00    +0.007 C 
ATOM      5  C   LIG A   1      -5.702  -3.425 124.302  0.00  0.00    +0.001 C 
ATOM      6  C   LIG A   1      -5.445  -1.936 124.530  0.00  0.00    +0.012 C 
ATOM      7  C   LIG A   1      -6.552  -1.193 125.318  0.00  0.00    -0.003 C 
ATOM      8  C   LIG A   1      -6.660  -1.785 126.752  0.00  0.00    +0.016 C 
ATOM      9  C   LIG A   1      -7.947  -1.391 124.582  0.00  0.00    +0.005 C 
ATOM     10  C   LIG A   1      -8.391  -0.134 123.812  0.00  0.00    +0.009 C 
ATOM     11  C   LIG A   1      -8.415   1.078 124.722  0.00  0.00    +0.036 C 
ATOM     12  C   LIG A   1      -7.037   1.345 125.251  0.00  0.00    -0.043 A 
ATOM     13  C   LIG A   1      -6.149   0.291 125.522  0.00  0.00    -0.035 A 
ATOM     14  C   LIG A   1      -4.884   0.629 126.045  0.00  0.00    +0.050 A 
ATOM     15  C   LIG A   1      -4.516   1.958 126.278  0.00  0.00    +0.121 A 
ATOM     16  C   LIG A   1      -5.396   3.009 126.016  0.00  0.00    -0.003 A 
ATOM     17  C   LIG A   1      -6.660   2.678 125.508  0.00  0.00    +0.011 A 
ENDROOT
BRANCH  16  18
ATOM     18  C   LIG A   1      -5.062   4.473 126.252  0.00  0.00    +0.016 C 
ATOM     19  C   LIG A   1      -5.127   4.853 127.734  0.00  0.00    +0.012 C 
ATOM     20  C   LIG A   1      -5.915   5.413 125.398  0.00  0.00    +0.012 C 
ENDBRANCH  16  18
BRANCH  15  21
ATOM     21  O   LIG A   1      -3.274   2.230 126.779  0.00  0.00    -0.506 OA
ATOM     22  H   LIG A   1      -2.712   2.567 126.063  0.00  0.00    +0.292 HD
ENDBRANCH  15  21
TORSDOF 2
ENDMDL
MODEL 8
REMARK VINA RESULT:      -7.1      3.388      6.561
REMARK  Name = NuBBE_2362
REMARK  7 active torsions:
REMARK  status: ('A' for Active; 'I' for Inactive)
REMARK    1  A    between atoms: C_1  and  C_2
REMARK    2  A    between atoms: C_2  and  C_3
REMARK    3  A    between atoms: C_7  and  C_8
REMARK    4  A    between atoms: C_16  and  O_17
REMARK    5  A    between atoms: C_18  and  C_19
REMARK    6  A    between atoms: C_19  and  C_20
REMARK    7  A    between atoms: C_19  and  C_21
REMARK                            x       y       z     vdW  Elec       q    Type
REMARK                         _______ _______ _______ _____ _____    ______ ____
ROOT
ATOM      1  C   LIG A   1      -6.944  -3.738 124.235  0.00  0.00    +0.011 C 
ATOM      2  C   LIG A   1      -7.962  -2.627 124.593  0.00  0.00    -0.031 C 
ATOM      3  C   LIG A   1      -9.333  -3.324 124.767  0.00  0.00    +0.011 C 
ATOM      4  C   LIG A   1      -8.046  -1.669 123.392  0.00  0.00    +0.007 C 
ATOM      5  C   LIG A   1      -8.947  -0.465 123.634  0.00  0.00    +0.001 C 
ATOM      6  C   LIG A   1      -9.053  -0.026 125.094  0.00  0.00    +0.012 C 
ATOM      7  C   LIG A   1      -7.801  -0.316 125.959  0.00  0.00    -0.003 C 
ATOM      8  C   LIG A   1      -6.588   0.487 125.406  0.00  0.00    +0.016 C 
ATOM      9  C   LIG A   1      -7.457  -1.865 125.887  0.00  0.00    +0.005 C 
ATOM     10  C   LIG A   1      -7.862  -2.618 127.168  0.00  0.00    +0.009 C 
ATOM     11  C   LIG A   1      -7.244  -1.972 128.393  0.00  0.00    +0.036 C 
ATOM     12  C   LIG A   1      -7.740  -0.563 128.530  0.00  0.00    -0.043 A 
ATOM     13  C   LIG A   1      -8.018   0.220 127.398  0.00  0.00    -0.035 A 
ATOM     14  C   LIG A   1      -8.452   1.544 127.617  0.00  0.00    +0.050 A 
ATOM     15  C   LIG A   1      -8.613   2.060 128.907  0.00  0.00    +0.121 A 
ATOM     16  C   LIG A   1      -8.333   1.289 130.035  0.00  0.00    -0.003 A 
ATOM     17  C   LIG A   1      -7.889  -0.024 129.824  0.00  0.00    +0.011 A 
ENDROOT
BRANCH  16  18
ATOM     18  C   LIG A   1      -8.481   1.790 131.463  0.00  0.00    +0.016 C 
ATOM     19  C   LIG A   1      -7.459   1.156 132.410  0.00  0.00    +0.012 C 
ATOM     20  C   LIG A   1      -9.907   1.632 131.995  0.00  0.00    +0.012 C 
ENDBRANCH  16  18
BRANCH  15  21
ATOM     21  O   LIG A   1      -9.044   3.348 129.062  0.00  0.00    -0.506 OA
ATOM     22  H   LIG A   1     -10.014   3.354 129.085  0.00  0.00    +0.292 HD
ENDBRANCH  15  21
TORSDOF 2
ENDMDL
MODEL 9
REMARK VINA RESULT:      -6.9      1.919      3.688
REMARK  Name = NuBBE_2362
REMARK  7 active torsions:
REMARK  status: ('A' for Active; 'I' for Inactive)
REMARK    1  A    between atoms: C_1  and  C_2
REMARK    2  A    between atoms: C_2  and  C_3
REMARK    3  A    between atoms: C_7  and  C_8
REMARK    4  A    between atoms: C_16  and  O_17
REMARK    5  A    between atoms: C_18  and  C_19
REMARK    6  A    between atoms: C_19  and  C_20
REMARK    7  A    between atoms: C_19  and  C_21
REMARK                            x       y       z     vdW  Elec       q    Type
REMARK                         _______ _______ _______ _____ _____    ______ ____
ROOT
ATOM      1  C   LIG A   1      -2.925  -1.714 132.671  0.00  0.00    +0.011 C 
ATOM      2  C   LIG A   1      -4.462  -1.832 132.526  0.00  0.00    -0.031 C 
ATOM      3  C   LIG A   1      -5.048  -0.445 132.887  0.00  0.00    +0.011 C 
ATOM      4  C   LIG A   1      -4.949  -2.857 133.565  0.00  0.00    +0.007 C 
ATOM      5  C   LIG A   1      -6.442  -3.150 133.481  0.00  0.00    +0.001 C 
ATOM      6  C   LIG A   1      -7.052  -2.978 132.090  0.00  0.00    +0.012 C 
ATOM      7  C   LIG A   1      -6.082  -3.247 130.912  0.00  0.00    -0.003 C 
ATOM      8  C   LIG A   1      -5.619  -4.731 130.945  0.00  0.00    +0.016 C 
ATOM      9  C   LIG A   1      -4.804  -2.314 131.056  0.00  0.00    +0.005 C 
ATOM     10  C   LIG A   1      -4.825  -1.128 130.074  0.00  0.00    +0.009 C 
ATOM     11  C   LIG A   1      -4.997  -1.612 128.647  0.00  0.00    +0.036 C 
ATOM     12  C   LIG A   1      -6.307  -2.329 128.507  0.00  0.00    -0.043 A 
ATOM     13  C   LIG A   1      -6.834  -3.087 129.564  0.00  0.00    -0.035 A 
ATOM     14  C   LIG A   1      -8.056  -3.753 129.337  0.00  0.00    +0.050 A 
ATOM     15  C   LIG A   1      -8.728  -3.658 128.114  0.00  0.00    +0.121 A 
ATOM     16  C   LIG A   1      -8.207  -2.911 127.058  0.00  0.00    -0.003 A 
ATOM     17  C   LIG A   1      -6.985  -2.257 127.274  0.00  0.00    +0.011 A 
ENDROOT
BRANCH  16  18
ATOM     18  C   LIG A   1      -8.883  -2.771 125.704  0.00  0.00    +0.016 C 
ATOM     19  C   LIG A   1      -8.324  -3.755 124.671  0.00  0.00    +0.012 C 
ATOM     20  C   LIG A   1      -8.851  -1.334 125.178  0.00  0.00    +0.012 C 
ENDBRANCH  16  18
BRANCH  15  21
ATOM     21  O   LIG A   1      -9.914  -4.318 127.950  0.00  0.00    -0.506 OA
ATOM     22  H   LIG A   1     -10.451  -3.844 127.295  0.00  0.00    +0.292 HD
ENDBRANCH  15  21
TORSDOF 2
ENDMDL
