MODEL 1
REMARK VINA RESULT:      -7.4      0.000      0.000
REMARK  Name = NuBBE_643
REMARK  9 active torsions:
REMARK  status: ('A' for Active; 'I' for Inactive)
REMARK    1  A    between atoms: C_1  and  C_2
REMARK    2  A    between atoms: C_4  and  C_6
REMARK    3  A    between atoms: C_7  and  C_9
REMARK    4  A    between atoms: C_12  and  O_13
REMARK    5  A    between atoms: C_14  and  O_15
REMARK    6  A    between atoms: O_15  and  C_16
REMARK    7  A    between atoms: C_20  and  O_21
REMARK    8  A    between atoms: C_22  and  O_23
REMARK    9  A    between atoms: O_23  and  C_24
REMARK                            x       y       z     vdW  Elec       q    Type
REMARK                         _______ _______ _______ _____ _____    ______ ____
ROOT
ATOM      1  C   LIG A   1      -6.222  -3.011 123.937  0.00  0.00    +0.008 C 
ATOM      2  C   LIG A   1      -7.299  -2.159 123.262  0.00  0.00    -0.006 C 
ATOM      3  C   LIG A   1      -8.698  -2.174 123.920  0.00  0.00    +0.001 C 
ATOM      4  C   LIG A   1      -9.328  -3.566 123.968  0.00  0.00    +0.009 C 
ATOM      5  C   LIG A   1      -8.788  -1.388 125.256  0.00  0.00    +0.053 C 
ATOM      6  C   LIG A   1      -8.197   0.006 125.083  0.00  0.00    -0.033 A 
ATOM      7  C   LIG A   1      -8.615   1.025 125.956  0.00  0.00    +0.053 A 
ATOM      8  C   LIG A   1      -8.072   2.309 125.884  0.00  0.00    +0.159 A 
ATOM      9  C   LIG A   1      -7.082   2.600 124.942  0.00  0.00    +0.162 A 
ATOM     10  C   LIG A   1      -6.682   1.585 124.059  0.00  0.00    +0.053 A 
ATOM     11  C   LIG A   1      -7.229   0.291 124.107  0.00  0.00    -0.040 A 
ATOM     12  C   LIG A   1      -6.817  -0.710 123.051  0.00  0.00    +0.039 C 
ENDROOT
BRANCH   5  13
ATOM     13  C   LIG A   1      -8.283  -2.081 126.527  0.00  0.00    -0.036 A 
ATOM     14  C   LIG A   1      -8.993  -3.109 127.160  0.00  0.00    +0.008 A 
ATOM     15  C   LIG A   1      -8.515  -3.718 128.324  0.00  0.00    +0.049 A 
ATOM     16  C   LIG A   1      -7.277  -3.346 128.848  0.00  0.00    +0.159 A 
ATOM     17  C   LIG A   1      -6.508  -2.378 128.203  0.00  0.00    +0.162 A 
ATOM     18  C   LIG A   1      -7.027  -1.737 127.062  0.00  0.00    +0.053 A 
BRANCH  16  19
ATOM     19  O   LIG A   1      -6.857  -3.947 130.002  0.00  0.00    -0.503 OA
ATOM     20  H   LIG A   1      -6.822  -3.283 130.709  0.00  0.00    +0.292 HD
ENDBRANCH  16  19
BRANCH  17  21
ATOM     21  O   LIG A   1      -5.270  -1.920 128.576  0.00  0.00    -0.491 OA
ATOM     22  C   LIG A   1      -5.247  -0.756 129.397  0.00  0.00    +0.277 C 
ENDBRANCH  17  21
ENDBRANCH   5  13
BRANCH   8  23
ATOM     23  O   LIG A   1      -8.541   3.252 126.754  0.00  0.00    -0.503 OA
ATOM     24  H   LIG A   1      -7.814   3.851 126.992  0.00  0.00    +0.292 HD
ENDBRANCH   8  23
BRANCH   9  25
ATOM     25  O   LIG A   1      -6.423   3.783 124.743  0.00  0.00    -0.491 OA
ATOM     26  C   LIG A   1      -5.850   4.016 123.463  0.00  0.00    +0.277 C 
ENDBRANCH   9  25
TORSDOF 5
ENDMDL
MODEL 2
REMARK VINA RESULT:      -7.3      1.688      2.455
REMARK  Name = NuBBE_643
REMARK  9 active torsions:
REMARK  status: ('A' for Active; 'I' for Inactive)
REMARK    1  A    between atoms: C_1  and  C_2
REMARK    2  A    between atoms: C_4  and  C_6
REMARK    3  A    between atoms: C_7  and  C_9
REMARK    4  A    between atoms: C_12  and  O_13
REMARK    5  A    between atoms: C_14  and  O_15
REMARK    6  A    between atoms: O_15  and  C_16
REMARK    7  A    between atoms: C_20  and  O_21
REMARK    8  A    between atoms: C_22  and  O_23
REMARK    9  A    between atoms: O_23  and  C_24
REMARK                            x       y       z     vdW  Elec       q    Type
REMARK                         _______ _______ _______ _____ _____    ______ ____
ROOT
ATOM      1  C   LIG A   1      -7.317  -3.410 124.429  0.00  0.00    +0.008 C 
ATOM      2  C   LIG A   1      -8.770  -2.941 124.332  0.00  0.00    -0.006 C 
ATOM      3  C   LIG A   1      -9.454  -2.546 125.660  0.00  0.00    +0.001 C 
ATOM      4  C   LIG A   1      -9.520  -3.692 126.670  0.00  0.00    +0.009 C 
ATOM      5  C   LIG A   1      -8.965  -1.199 126.259  0.00  0.00    +0.053 C 
ATOM      6  C   LIG A   1      -9.001  -0.110 125.194  0.00  0.00    -0.033 A 
ATOM      7  C   LIG A   1      -9.097   1.230 125.606  0.00  0.00    +0.053 A 
ATOM      8  C   LIG A   1      -9.081   2.276 124.683  0.00  0.00    +0.159 A 
ATOM      9  C   LIG A   1      -8.951   2.005 123.319  0.00  0.00    +0.162 A 
ATOM     10  C   LIG A   1      -8.876   0.665 122.908  0.00  0.00    +0.053 A 
ATOM     11  C   LIG A   1      -8.906  -0.401 123.824  0.00  0.00    -0.040 A 
ATOM     12  C   LIG A   1      -8.926  -1.815 123.289  0.00  0.00    +0.039 C 
ENDROOT
BRANCH   5  13
ATOM     13  C   LIG A   1      -7.647  -1.202 127.043  0.00  0.00    -0.036 A 
ATOM     14  C   LIG A   1      -6.415  -0.900 126.451  0.00  0.00    +0.008 A 
ATOM     15  C   LIG A   1      -5.226  -0.918 127.187  0.00  0.00    +0.049 A 
ATOM     16  C   LIG A   1      -5.258  -1.185 128.555  0.00  0.00    +0.159 A 
ATOM     17  C   LIG A   1      -6.475  -1.418 129.194  0.00  0.00    +0.162 A 
ATOM     18  C   LIG A   1      -7.656  -1.448 128.430  0.00  0.00    +0.053 A 
BRANCH  16  19
ATOM     19  O   LIG A   1      -4.071  -1.220 129.235  0.00  0.00    -0.503 OA
ATOM     20  H   LIG A   1      -3.778  -0.311 129.406  0.00  0.00    +0.292 HD
ENDBRANCH  16  19
BRANCH  17  21
ATOM     21  O   LIG A   1      -6.677  -1.673 130.527  0.00  0.00    -0.491 OA
ATOM     22  C   LIG A   1      -6.990  -3.018 130.874  0.00  0.00    +0.277 C 
ENDBRANCH  17  21
ENDBRANCH   5  13
BRANCH   8  23
ATOM     23  O   LIG A   1      -9.198   3.552 125.158  0.00  0.00    -0.503 OA
ATOM     24  H   LIG A   1      -8.338   3.838 125.510  0.00  0.00    +0.292 HD
ENDBRANCH   8  23
BRANCH   9  25
ATOM     25  O   LIG A   1      -8.893   2.894 122.280  0.00  0.00    -0.491 OA
ATOM     26  C   LIG A   1      -7.608   3.278 121.807  0.00  0.00    +0.277 C 
ENDBRANCH   9  25
TORSDOF 5
ENDMDL
MODEL 3
REMARK VINA RESULT:      -7.2      1.726      5.867
REMARK  Name = NuBBE_643
REMARK  9 active torsions:
REMARK  status: ('A' for Active; 'I' for Inactive)
REMARK    1  A    between atoms: C_1  and  C_2
REMARK    2  A    between atoms: C_4  and  C_6
REMARK    3  A    between atoms: C_7  and  C_9
REMARK    4  A    between atoms: C_12  and  O_13
REMARK    5  A    between atoms: C_14  and  O_15
REMARK    6  A    between atoms: O_15  and  C_16
REMARK    7  A    between atoms: C_20  and  O_21
REMARK    8  A    between atoms: C_22  and  O_23
REMARK    9  A    between atoms: O_23  and  C_24
REMARK                            x       y       z     vdW  Elec       q    Type
REMARK                         _______ _______ _______ _____ _____    ______ ____
ROOT
ATOM      1  C   LIG A   1      -9.133  -2.661 123.274  0.00  0.00    +0.008 C 
ATOM      2  C   LIG A   1      -7.907  -3.276 123.953  0.00  0.00    -0.006 C 
ATOM      3  C   LIG A   1      -6.582  -2.492 123.818  0.00  0.00    +0.001 C 
ATOM      4  C   LIG A   1      -6.130  -2.313 122.369  0.00  0.00    +0.009 C 
ATOM      5  C   LIG A   1      -6.515  -1.195 124.670  0.00  0.00    +0.053 C 
ATOM      6  C   LIG A   1      -6.916  -1.493 126.109  0.00  0.00    -0.033 A 
ATOM      7  C   LIG A   1      -6.457  -0.639 127.126  0.00  0.00    +0.053 A 
ATOM      8  C   LIG A   1      -6.833  -0.826 128.456  0.00  0.00    +0.159 A 
ATOM      9  C   LIG A   1      -7.696  -1.870 128.800  0.00  0.00    +0.162 A 
ATOM     10  C   LIG A   1      -8.137  -2.734 127.786  0.00  0.00    +0.053 A 
ATOM     11  C   LIG A   1      -7.756  -2.568 126.443  0.00  0.00    -0.040 A 
ATOM     12  C   LIG A   1      -8.192  -3.605 125.433  0.00  0.00    +0.039 C 
ENDROOT
BRANCH   5  13
ATOM     13  C   LIG A   1      -7.207   0.058 124.120  0.00  0.00    -0.036 A 
ATOM     14  C   LIG A   1      -8.553   0.350 124.373  0.00  0.00    +0.008 A 
ATOM     15  C   LIG A   1      -9.163   1.494 123.853  0.00  0.00    +0.049 A 
ATOM     16  C   LIG A   1      -8.414   2.407 123.110  0.00  0.00    +0.159 A 
ATOM     17  C   LIG A   1      -7.054   2.187 122.900  0.00  0.00    +0.162 A 
ATOM     18  C   LIG A   1      -6.467   1.004 123.386  0.00  0.00    +0.053 A 
BRANCH  16  19
ATOM     19  O   LIG A   1      -9.053   3.502 122.596  0.00  0.00    -0.503 OA
ATOM     20  H   LIG A   1      -8.443   3.980 122.013  0.00  0.00    +0.292 HD
ENDBRANCH  16  19
BRANCH  17  21
ATOM     21  O   LIG A   1      -6.180   2.993 122.215  0.00  0.00    -0.491 OA
ATOM     22  C   LIG A   1      -5.649   4.103 122.933  0.00  0.00    +0.277 C 
ENDBRANCH  17  21
ENDBRANCH   5  13
BRANCH   8  23
ATOM     23  O   LIG A   1      -6.331   0.033 129.392  0.00  0.00    -0.503 OA
ATOM     24  H   LIG A   1      -5.377   0.144 129.240  0.00  0.00    +0.292 HD
ENDBRANCH   8  23
BRANCH   9  25
ATOM     25  O   LIG A   1      -8.188  -2.190 130.036  0.00  0.00    -0.491 OA
ATOM     26  C   LIG A   1      -7.398  -3.029 130.869  0.00  0.00    +0.277 C 
ENDBRANCH   9  25
TORSDOF 5
ENDMDL
MODEL 4
REMARK VINA RESULT:      -7.1      2.547      4.297
REMARK  Name = NuBBE_643
REMARK  9 active torsions:
REMARK  status: ('A' for Active; 'I' for Inactive)
REMARK    1  A    between atoms: C_1  and  C_2
REMARK    2  A    between atoms: C_4  and  C_6
REMARK    3  A    between atoms: C_7  and  C_9
REMARK    4  A    between atoms: C_12  and  O_13
REMARK    5  A    between atoms: C_14  and  O_15
REMARK    6  A    between atoms: O_15  and  C_16
REMARK    7  A    between atoms: C_20  and  O_21
REMARK    8  A    between atoms: C_22  and  O_23
REMARK    9  A    between atoms: O_23  and  C_24
REMARK                            x       y       z     vdW  Elec       q    Type
REMARK                         _______ _______ _______ _____ _____    ______ ____
ROOT
ATOM      1  C   LIG A   1      -9.995  -0.234 122.673  0.00  0.00    +0.008 C 
ATOM      2  C   LIG A   1     -10.095   1.206 123.181  0.00  0.00    -0.006 C 
ATOM      3  C   LIG A   1      -9.353   1.522 124.499  0.00  0.00    +0.001 C 
ATOM      4  C   LIG A   1      -9.848   0.694 125.685  0.00  0.00    +0.009 C 
ATOM      5  C   LIG A   1      -7.807   1.582 124.366  0.00  0.00    +0.053 C 
ATOM      6  C   LIG A   1      -7.416   2.484 123.202  0.00  0.00    -0.033 A 
ATOM      7  C   LIG A   1      -6.142   3.076 123.209  0.00  0.00    +0.053 A 
ATOM      8  C   LIG A   1      -5.705   3.869 122.148  0.00  0.00    +0.159 A 
ATOM      9  C   LIG A   1      -6.531   4.075 121.040  0.00  0.00    +0.162 A 
ATOM     10  C   LIG A   1      -7.811   3.499 121.044  0.00  0.00    +0.053 A 
ATOM     11  C   LIG A   1      -8.273   2.710 122.113  0.00  0.00    -0.040 A 
ATOM     12  C   LIG A   1      -9.702   2.216 122.084  0.00  0.00    +0.039 C 
ENDROOT
BRANCH   5  13
ATOM     13  C   LIG A   1      -7.038   0.255 124.358  0.00  0.00    -0.036 A 
ATOM     14  C   LIG A   1      -6.801  -0.473 123.185  0.00  0.00    +0.008 A 
ATOM     15  C   LIG A   1      -6.105  -1.685 123.205  0.00  0.00    +0.049 A 
ATOM     16  C   LIG A   1      -5.578  -2.166 124.404  0.00  0.00    +0.159 A 
ATOM     17  C   LIG A   1      -5.731  -1.432 125.579  0.00  0.00    +0.162 A 
ATOM     18  C   LIG A   1      -6.479  -0.240 125.551  0.00  0.00    +0.053 A 
BRANCH  16  19
ATOM     19  O   LIG A   1      -4.926  -3.368 124.387  0.00  0.00    -0.503 OA
ATOM     20  H   LIG A   1      -5.054  -3.785 123.520  0.00  0.00    +0.292 HD
ENDBRANCH  16  19
BRANCH  17  21
ATOM     21  O   LIG A   1      -5.258  -1.754 126.826  0.00  0.00    -0.491 OA
ATOM     22  C   LIG A   1      -6.234  -2.105 127.801  0.00  0.00    +0.277 C 
ENDBRANCH  17  21
ENDBRANCH   5  13
BRANCH   8  23
ATOM     23  O   LIG A   1      -4.461   4.427 122.234  0.00  0.00    -0.503 OA
ATOM     24  H   LIG A   1      -3.858   3.792 122.656  0.00  0.00    +0.292 HD
ENDBRANCH   8  23
BRANCH   9  25
ATOM     25  O   LIG A   1      -6.265   4.794 119.906  0.00  0.00    -0.491 OA
ATOM     26  C   LIG A   1      -7.126   4.616 118.789  0.00  0.00    +0.277 C 
ENDBRANCH   9  25
TORSDOF 5
ENDMDL
MODEL 5
REMARK VINA RESULT:      -6.9      7.959      9.749
REMARK  Name = NuBBE_643
REMARK  9 active torsions:
REMARK  status: ('A' for Active; 'I' for Inactive)
REMARK    1  A    between atoms: C_1  and  C_2
REMARK    2  A    between atoms: C_4  and  C_6
REMARK    3  A    between atoms: C_7  and  C_9
REMARK    4  A    between atoms: C_12  and  O_13
REMARK    5  A    between atoms: C_14  and  O_15
REMARK    6  A    between atoms: O_15  and  C_16
REMARK    7  A    between atoms: C_20  and  O_21
REMARK    8  A    between atoms: C_22  and  O_23
REMARK    9  A    between atoms: O_23  and  C_24
REMARK                            x       y       z     vdW  Elec       q    Type
REMARK                         _______ _______ _______ _____ _____    ______ ____
ROOT
ATOM      1  C   LIG A   1      -7.574   2.887 133.567  0.00  0.00    +0.008 C 
ATOM      2  C   LIG A   1      -8.476   4.045 133.998  0.00  0.00    -0.006 C 
ATOM      3  C   LIG A   1      -7.804   5.432 134.114  0.00  0.00    +0.001 C 
ATOM      4  C   LIG A   1      -6.668   5.470 135.136  0.00  0.00    +0.009 C 
ATOM      5  C   LIG A   1      -7.456   6.093 132.752  0.00  0.00    +0.053 C 
ATOM      6  C   LIG A   1      -8.671   6.066 131.833  0.00  0.00    -0.033 A 
ATOM      7  C   LIG A   1      -8.754   7.016 130.801  0.00  0.00    +0.053 A 
ATOM      8  C   LIG A   1      -9.813   7.011 129.893  0.00  0.00    +0.159 A 
ATOM      9  C   LIG A   1     -10.813   6.038 129.988  0.00  0.00    +0.162 A 
ATOM     10  C   LIG A   1     -10.739   5.104 131.032  0.00  0.00    +0.053 A 
ATOM     11  C   LIG A   1      -9.686   5.105 131.964  0.00  0.00    -0.040 A 
ATOM     12  C   LIG A   1      -9.740   4.129 133.118  0.00  0.00    +0.039 C 
ENDROOT
BRANCH   5  13
ATOM     13  C   LIG A   1      -6.178   5.634 132.041  0.00  0.00    -0.036 A 
ATOM     14  C   LIG A   1      -6.135   4.498 131.222  0.00  0.00    +0.008 A 
ATOM     15  C   LIG A   1      -4.955   4.096 130.592  0.00  0.00    +0.049 A 
ATOM     16  C   LIG A   1      -3.797   4.863 130.724  0.00  0.00    +0.159 A 
ATOM     17  C   LIG A   1      -3.821   6.040 131.471  0.00  0.00    +0.162 A 
ATOM     18  C   LIG A   1      -5.003   6.403 132.142  0.00  0.00    +0.053 A 
BRANCH  16  19
ATOM     19  O   LIG A   1      -2.655   4.422 130.114  0.00  0.00    -0.503 OA
ATOM     20  H   LIG A   1      -2.401   5.055 129.424  0.00  0.00    +0.292 HD
ENDBRANCH  16  19
BRANCH  17  21
ATOM     21  O   LIG A   1      -2.782   6.911 131.679  0.00  0.00    -0.491 OA
ATOM     22  C   LIG A   1      -2.926   7.821 132.765  0.00  0.00    +0.277 C 
ENDBRANCH  17  21
ENDBRANCH   5  13
BRANCH   8  23
ATOM     23  O   LIG A   1      -9.835   7.977 128.927  0.00  0.00    -0.503 OA
ATOM     24  H   LIG A   1     -10.474   7.722 128.240  0.00  0.00    +0.292 HD
ENDBRANCH   8  23
BRANCH   9  25
ATOM     25  O   LIG A   1     -11.904   5.863 129.180  0.00  0.00    -0.491 OA
ATOM     26  C   LIG A   1     -12.965   6.803 129.285  0.00  0.00    +0.277 C 
ENDBRANCH   9  25
TORSDOF 5
ENDMDL
MODEL 6
REMARK VINA RESULT:      -6.8      7.004     10.316
REMARK  Name = NuBBE_643
REMARK  9 active torsions:
REMARK  status: ('A' for Active; 'I' for Inactive)
REMARK    1  A    between atoms: C_1  and  C_2
REMARK    2  A    between atoms: C_4  and  C_6
REMARK    3  A    between atoms: C_7  and  C_9
REMARK    4  A    between atoms: C_12  and  O_13
REMARK    5  A    between atoms: C_14  and  O_15
REMARK    6  A    between atoms: O_15  and  C_16
REMARK    7  A    between atoms: C_20  and  O_21
REMARK    8  A    between atoms: C_22  and  O_23
REMARK    9  A    between atoms: O_23  and  C_24
REMARK                            x       y       z     vdW  Elec       q    Type
REMARK                         _______ _______ _______ _____ _____    ______ ____
ROOT
ATOM      1  C   LIG A   1      -2.396   4.575 133.114  0.00  0.00    +0.008 C 
ATOM      2  C   LIG A   1      -3.106   5.797 133.701  0.00  0.00    -0.006 C 
ATOM      3  C   LIG A   1      -3.103   7.075 132.832  0.00  0.00    +0.001 C 
ATOM      4  C   LIG A   1      -1.698   7.596 132.529  0.00  0.00    +0.009 C 
ATOM      5  C   LIG A   1      -4.039   7.013 131.595  0.00  0.00    +0.053 C 
ATOM      6  C   LIG A   1      -5.429   6.551 132.013  0.00  0.00    -0.033 A 
ATOM      7  C   LIG A   1      -6.524   6.898 131.205  0.00  0.00    +0.053 A 
ATOM      8  C   LIG A   1      -7.815   6.460 131.504  0.00  0.00    +0.159 A 
ATOM      9  C   LIG A   1      -8.038   5.645 132.618  0.00  0.00    +0.162 A 
ATOM     10  C   LIG A   1      -6.945   5.317 133.435  0.00  0.00    +0.053 A 
ATOM     11  C   LIG A   1      -5.641   5.763 133.156  0.00  0.00    -0.040 A 
ATOM     12  C   LIG A   1      -4.542   5.450 134.146  0.00  0.00    +0.039 C 
ENDROOT
BRANCH   5  13
ATOM     13  C   LIG A   1      -3.530   6.276 130.350  0.00  0.00    -0.036 A 
ATOM     14  C   LIG A   1      -2.733   6.895 129.379  0.00  0.00    +0.008 A 
ATOM     15  C   LIG A   1      -2.289   6.203 128.249  0.00  0.00    +0.049 A 
ATOM     16  C   LIG A   1      -2.590   4.850 128.097  0.00  0.00    +0.159 A 
ATOM     17  C   LIG A   1      -3.319   4.182 129.080  0.00  0.00    +0.162 A 
ATOM     18  C   LIG A   1      -3.803   4.905 130.186  0.00  0.00    +0.053 A 
BRANCH  16  19
ATOM     19  O   LIG A   1      -2.160   4.215 126.965  0.00  0.00    -0.503 OA
ATOM     20  H   LIG A   1      -2.320   4.790 126.200  0.00  0.00    +0.292 HD
ENDBRANCH  16  19
BRANCH  17  21
ATOM     21  O   LIG A   1      -3.677   2.857 129.090  0.00  0.00    -0.491 OA
ATOM     22  C   LIG A   1      -4.236   2.363 130.303  0.00  0.00    +0.277 C 
ENDBRANCH  17  21
ENDBRANCH   5  13
BRANCH   8  23
ATOM     23  O   LIG A   1      -8.833   6.854 130.682  0.00  0.00    -0.503 OA
ATOM     24  H   LIG A   1      -9.218   7.676 131.028  0.00  0.00    +0.292 HD
ENDBRANCH   8  23
BRANCH   9  25
ATOM     25  O   LIG A   1      -9.219   5.105 133.050  0.00  0.00    -0.491 OA
ATOM     26  C   LIG A   1      -9.161   3.912 133.820  0.00  0.00    +0.277 C 
ENDBRANCH   9  25
TORSDOF 5
ENDMDL
MODEL 7
REMARK VINA RESULT:      -6.8      6.768      9.662
REMARK  Name = NuBBE_643
REMARK  9 active torsions:
REMARK  status: ('A' for Active; 'I' for Inactive)
REMARK    1  A    between atoms: C_1  and  C_2
REMARK    2  A    between atoms: C_4  and  C_6
REMARK    3  A    between atoms: C_7  and  C_9
REMARK    4  A    between atoms: C_12  and  O_13
REMARK    5  A    between atoms: C_14  and  O_15
REMARK    6  A    between atoms: O_15  and  C_16
REMARK    7  A    between atoms: C_20  and  O_21
REMARK    8  A    between atoms: C_22  and  O_23
REMARK    9  A    between atoms: O_23  and  C_24
REMARK                            x       y       z     vdW  Elec       q    Type
REMARK                         _______ _______ _______ _____ _____    ______ ____
ROOT
ATOM      1  C   LIG A   1      -3.779   8.321 130.721  0.00  0.00    +0.008 C 
ATOM      2  C   LIG A   1      -2.668   7.310 131.015  0.00  0.00    -0.006 C 
ATOM      3  C   LIG A   1      -2.931   6.320 132.172  0.00  0.00    +0.001 C 
ATOM      4  C   LIG A   1      -3.147   7.008 133.520  0.00  0.00    +0.009 C 
ATOM      5  C   LIG A   1      -3.973   5.215 131.848  0.00  0.00    +0.053 C 
ATOM      6  C   LIG A   1      -3.630   4.545 130.523  0.00  0.00    -0.033 A 
ATOM      7  C   LIG A   1      -4.098   3.242 130.288  0.00  0.00    +0.053 A 
ATOM      8  C   LIG A   1      -3.863   2.594 129.074  0.00  0.00    +0.159 A 
ATOM      9  C   LIG A   1      -3.165   3.247 128.055  0.00  0.00    +0.162 A 
ATOM     10  C   LIG A   1      -2.681   4.542 128.300  0.00  0.00    +0.053 A 
ATOM     11  C   LIG A   1      -2.895   5.202 129.522  0.00  0.00    -0.040 A 
ATOM     12  C   LIG A   1      -2.249   6.552 129.739  0.00  0.00    +0.039 C 
ENDROOT
BRANCH   5  13
ATOM     13  C   LIG A   1      -5.458   5.583 131.947  0.00  0.00    -0.036 A 
ATOM     14  C   LIG A   1      -6.145   6.234 130.915  0.00  0.00    +0.008 A 
ATOM     15  C   LIG A   1      -7.498   6.566 131.034  0.00  0.00    +0.049 A 
ATOM     16  C   LIG A   1      -8.209   6.196 132.176  0.00  0.00    +0.159 A 
ATOM     17  C   LIG A   1      -7.576   5.482 133.192  0.00  0.00    +0.162 A 
ATOM     18  C   LIG A   1      -6.201   5.201 133.080  0.00  0.00    +0.053 A 
BRANCH  16  19
ATOM     19  O   LIG A   1      -9.523   6.562 132.266  0.00  0.00    -0.503 OA
ATOM     20  H   LIG A   1      -9.607   7.283 132.909  0.00  0.00    +0.292 HD
ENDBRANCH  16  19
BRANCH  17  21
ATOM     21  O   LIG A   1      -8.136   5.029 134.360  0.00  0.00    -0.491 OA
ATOM     22  C   LIG A   1      -7.519   5.464 135.567  0.00  0.00    +0.277 C 
ENDBRANCH  17  21
ENDBRANCH   5  13
BRANCH   8  23
ATOM     23  O   LIG A   1      -4.334   1.320 128.925  0.00  0.00    -0.503 OA
ATOM     24  H   LIG A   1      -4.684   1.012 129.778  0.00  0.00    +0.292 HD
ENDBRANCH   8  23
BRANCH   9  25
ATOM     25  O   LIG A   1      -2.865   2.785 126.802  0.00  0.00    -0.491 OA
ATOM     26  C   LIG A   1      -1.539   2.975 126.324  0.00  0.00    +0.277 C 
ENDBRANCH   9  25
TORSDOF 5
ENDMDL
MODEL 8
REMARK VINA RESULT:      -6.8      3.091      5.476
REMARK  Name = NuBBE_643
REMARK  9 active torsions:
REMARK  status: ('A' for Active; 'I' for Inactive)
REMARK    1  A    between atoms: C_1  and  C_2
REMARK    2  A    between atoms: C_4  and  C_6
REMARK    3  A    between atoms: C_7  and  C_9
REMARK    4  A    between atoms: C_12  and  O_13
REMARK    5  A    between atoms: C_14  and  O_15
REMARK    6  A    between atoms: O_15  and  C_16
REMARK    7  A    between atoms: C_20  and  O_21
REMARK    8  A    between atoms: C_22  and  O_23
REMARK    9  A    between atoms: O_23  and  C_24
REMARK                            x       y       z     vdW  Elec       q    Type
REMARK                         _______ _______ _______ _____ _____    ______ ____
ROOT
ATOM      1  C   LIG A   1      -7.454  -3.705 129.486  0.00  0.00    +0.008 C 
ATOM      2  C   LIG A   1      -6.501  -2.592 129.926  0.00  0.00    -0.006 C 
ATOM      3  C   LIG A   1      -5.746  -1.850 128.800  0.00  0.00    +0.001 C 
ATOM      4  C   LIG A   1      -4.856  -2.768 127.962  0.00  0.00    +0.009 C 
ATOM      5  C   LIG A   1      -6.630  -0.885 127.964  0.00  0.00    +0.053 C 
ATOM      6  C   LIG A   1      -7.423   0.031 128.888  0.00  0.00    -0.033 A 
ATOM      7  C   LIG A   1      -7.870   1.266 128.389  0.00  0.00    +0.053 A 
ATOM      8  C   LIG A   1      -8.647   2.125 129.167  0.00  0.00    +0.159 A 
ATOM      9  C   LIG A   1      -9.011   1.758 130.466  0.00  0.00    +0.162 A 
ATOM     10  C   LIG A   1      -8.546   0.533 130.969  0.00  0.00    +0.053 A 
ATOM     11  C   LIG A   1      -7.750  -0.337 130.203  0.00  0.00    -0.040 A 
ATOM     12  C   LIG A   1      -7.206  -1.586 130.859  0.00  0.00    +0.039 C 
ENDROOT
BRANCH   5  13
ATOM     13  C   LIG A   1      -7.501  -1.491 126.857  0.00  0.00    -0.036 A 
ATOM     14  C   LIG A   1      -8.590  -2.328 127.126  0.00  0.00    +0.008 A 
ATOM     15  C   LIG A   1      -9.363  -2.876 126.098  0.00  0.00    +0.049 A 
ATOM     16  C   LIG A   1      -9.092  -2.544 124.771  0.00  0.00    +0.159 A 
ATOM     17  C   LIG A   1      -8.061  -1.656 124.469  0.00  0.00    +0.162 A 
ATOM     18  C   LIG A   1      -7.260  -1.155 125.511  0.00  0.00    +0.053 A 
BRANCH  16  19
ATOM     19  O   LIG A   1      -9.854  -3.121 123.792  0.00  0.00    -0.503 OA
ATOM     20  H   LIG A   1     -10.306  -2.424 123.291  0.00  0.00    +0.292 HD
ENDBRANCH  16  19
BRANCH  17  21
ATOM     21  O   LIG A   1      -7.684  -1.216 123.225  0.00  0.00    -0.491 OA
ATOM     22  C   LIG A   1      -6.500  -1.791 122.683  0.00  0.00    +0.277 C 
ENDBRANCH  17  21
ENDBRANCH   5  13
BRANCH   8  23
ATOM     23  O   LIG A   1      -9.029   3.317 128.620  0.00  0.00    -0.503 OA
ATOM     24  H   LIG A   1      -8.252   3.747 128.225  0.00  0.00    +0.292 HD
ENDBRANCH   8  23
BRANCH   9  25
ATOM     25  O   LIG A   1      -9.780   2.454 131.358  0.00  0.00    -0.491 OA
ATOM     26  C   LIG A   1      -9.369   2.467 132.719  0.00  0.00    +0.277 C 
ENDBRANCH   9  25
TORSDOF 5
ENDMDL
MODEL 9
REMARK VINA RESULT:      -6.8      6.576     10.503
REMARK  Name = NuBBE_643
REMARK  9 active torsions:
REMARK  status: ('A' for Active; 'I' for Inactive)
REMARK    1  A    between atoms: C_1  and  C_2
REMARK    2  A    between atoms: C_4  and  C_6
REMARK    3  A    between atoms: C_7  and  C_9
REMARK    4  A    between atoms: C_12  and  O_13
REMARK    5  A    between atoms: C_14  and  O_15
REMARK    6  A    between atoms: O_15  and  C_16
REMARK    7  A    between atoms: C_20  and  O_21
REMARK    8  A    between atoms: C_22  and  O_23
REMARK    9  A    between atoms: O_23  and  C_24
REMARK                            x       y       z     vdW  Elec       q    Type
REMARK                         _______ _______ _______ _____ _____    ______ ____
ROOT
ATOM      1  C   LIG A   1      -5.436   5.682 134.051  0.00  0.00    +0.008 C 
ATOM      2  C   LIG A   1      -6.103   4.696 135.013  0.00  0.00    -0.006 C 
ATOM      3  C   LIG A   1      -7.627   4.858 135.214  0.00  0.00    +0.001 C 
ATOM      4  C   LIG A   1      -8.020   6.223 135.779  0.00  0.00    +0.009 C 
ATOM      5  C   LIG A   1      -8.486   4.398 134.005  0.00  0.00    +0.053 C 
ATOM      6  C   LIG A   1      -8.063   3.003 133.563  0.00  0.00    -0.033 A 
ATOM      7  C   LIG A   1      -8.988   2.209 132.865  0.00  0.00    +0.053 A 
ATOM      8  C   LIG A   1      -8.645   0.944 132.386  0.00  0.00    +0.159 A 
ATOM      9  C   LIG A   1      -7.353   0.448 132.582  0.00  0.00    +0.162 A 
ATOM     10  C   LIG A   1      -6.436   1.234 133.297  0.00  0.00    +0.053 A 
ATOM     11  C   LIG A   1      -6.771   2.504 133.800  0.00  0.00    -0.040 A 
ATOM     12  C   LIG A   1      -5.758   3.238 134.648  0.00  0.00    +0.039 C 
ENDROOT
BRANCH   5  13
ATOM     13  C   LIG A   1      -8.632   5.364 132.823  0.00  0.00    -0.036 A 
ATOM     14  C   LIG A   1      -7.536   5.812 132.074  0.00  0.00    +0.008 A 
ATOM     15  C   LIG A   1      -7.695   6.700 131.007  0.00  0.00    +0.049 A 
ATOM     16  C   LIG A   1      -8.972   7.114 130.629  0.00  0.00    +0.159 A 
ATOM     17  C   LIG A   1     -10.092   6.632 131.305  0.00  0.00    +0.162 A 
ATOM     18  C   LIG A   1      -9.912   5.780 132.411  0.00  0.00    +0.053 A 
BRANCH  16  19
ATOM     19  O   LIG A   1      -9.084   8.005 129.596  0.00  0.00    -0.503 OA
ATOM     20  H   LIG A   1      -9.613   7.603 128.889  0.00  0.00    +0.292 HD
ENDBRANCH  16  19
BRANCH  17  21
ATOM     21  O   LIG A   1     -11.407   6.924 131.045  0.00  0.00    -0.491 OA
ATOM     22  C   LIG A   1     -12.065   6.089 130.098  0.00  0.00    +0.277 C 
ENDBRANCH  17  21
ENDBRANCH   5  13
BRANCH   8  23
ATOM     23  O   LIG A   1      -9.604   0.223 131.733  0.00  0.00    -0.503 OA
ATOM     24  H   LIG A   1     -10.456   0.350 132.183  0.00  0.00    +0.292 HD
ENDBRANCH   8  23
BRANCH   9  25
ATOM     25  O   LIG A   1      -6.833  -0.748 132.167  0.00  0.00    -0.491 OA
ATOM     26  C   LIG A   1      -6.074  -0.760 130.965  0.00  0.00    +0.277 C 
ENDBRANCH   9  25
TORSDOF 5
ENDMDL
