MODEL 1
REMARK VINA RESULT:      -7.5      0.000      0.000
REMARK  Name = NuBBE_1562
REMARK  2 active torsions:
REMARK  status: ('A' for Active; 'I' for Inactive)
REMARK    1  A    between atoms: C_4  and  O_5
REMARK    2  A    between atoms: C_11  and  C_12
REMARK                            x       y       z     vdW  Elec       q    Type
REMARK                         _______ _______ _______ _____ _____    ______ ____
ROOT
ATOM      1  O   LIG A   1     -11.862   6.089 132.308  0.00  0.00    -0.287 OA
ATOM      2  C   LIG A   1     -10.944   6.492 131.603  0.00  0.00    +0.197 A 
ATOM      3  C   LIG A   1     -11.204   7.178 130.333  0.00  0.00    +0.105 A 
ATOM      4  C   LIG A   1     -12.505   7.405 129.873  0.00  0.00    +0.131 A 
ATOM      5  C   LIG A   1     -12.712   8.061 128.662  0.00  0.00    +0.046 A 
ATOM      6  C   LIG A   1     -11.620   8.493 127.909  0.00  0.00    +0.007 A 
ATOM      7  C   LIG A   1     -10.319   8.268 128.368  0.00  0.00    +0.047 A 
ATOM      8  C   LIG A   1     -10.114   7.610 129.581  0.00  0.00    +0.143 A 
ATOM      9  O   LIG A   1      -8.814   7.421 129.977  0.00  0.00    -0.455 OA
ATOM     10  C   LIG A   1      -8.575   6.761 131.173  0.00  0.00    +0.139 A 
ATOM     11  C   LIG A   1      -9.538   6.307 131.988  0.00  0.00    +0.098 A 
ENDROOT
BRANCH  10  12
ATOM     12  C   LIG A   1      -7.145   6.616 131.507  0.00  0.00    +0.017 A 
ATOM     13  C   LIG A   1      -6.762   5.900 132.651  0.00  0.00    +0.011 A 
ATOM     14  C   LIG A   1      -5.413   5.761 132.990  0.00  0.00    +0.001 A 
ATOM     15  C   LIG A   1      -4.430   6.341 132.191  0.00  0.00    +0.000 A 
ATOM     16  C   LIG A   1      -4.794   7.064 131.058  0.00  0.00    +0.001 A 
ATOM     17  C   LIG A   1      -6.142   7.204 130.719  0.00  0.00    +0.011 A 
ENDBRANCH  10  12
BRANCH   4  18
ATOM     18  O   LIG A   1     -13.619   7.008 130.561  0.00  0.00    -0.506 OA
ATOM     19  H   LIG A   1     -14.155   7.807 130.764  0.00  0.00    +0.292 HD
ENDBRANCH   4  18
TORSDOF 2
ENDMDL
MODEL 2
REMARK VINA RESULT:      -7.3      1.118      1.759
REMARK  Name = NuBBE_1562
REMARK  2 active torsions:
REMARK  status: ('A' for Active; 'I' for Inactive)
REMARK    1  A    between atoms: C_4  and  O_5
REMARK    2  A    between atoms: C_11  and  C_12
REMARK                            x       y       z     vdW  Elec       q    Type
REMARK                         _______ _______ _______ _____ _____    ______ ____
ROOT
ATOM      1  O   LIG A   1      -9.784   5.288 133.145  0.00  0.00    -0.287 OA
ATOM      2  C   LIG A   1      -9.186   5.923 132.284  0.00  0.00    +0.197 A 
ATOM      3  C   LIG A   1      -9.905   6.602 131.201  0.00  0.00    +0.105 A 
ATOM      4  C   LIG A   1     -11.299   6.557 131.102  0.00  0.00    +0.131 A 
ATOM      5  C   LIG A   1     -11.946   7.215 130.060  0.00  0.00    +0.046 A 
ATOM      6  C   LIG A   1     -11.201   7.920 129.113  0.00  0.00    +0.007 A 
ATOM      7  C   LIG A   1      -9.807   7.967 129.211  0.00  0.00    +0.047 A 
ATOM      8  C   LIG A   1      -9.161   7.306 130.256  0.00  0.00    +0.143 A 
ATOM      9  O   LIG A   1      -7.792   7.392 130.297  0.00  0.00    -0.455 OA
ATOM     10  C   LIG A   1      -7.118   6.738 131.317  0.00  0.00    +0.139 A 
ATOM     11  C   LIG A   1      -7.720   6.036 132.290  0.00  0.00    +0.098 A 
ENDROOT
BRANCH  10  12
ATOM     12  C   LIG A   1      -5.652   6.898 131.272  0.00  0.00    +0.017 A 
ATOM     13  C   LIG A   1      -4.856   6.360 132.295  0.00  0.00    +0.011 A 
ATOM     14  C   LIG A   1      -3.467   6.510 132.275  0.00  0.00    +0.001 A 
ATOM     15  C   LIG A   1      -2.856   7.206 131.234  0.00  0.00    +0.000 A 
ATOM     16  C   LIG A   1      -3.632   7.755 130.217  0.00  0.00    +0.001 A 
ATOM     17  C   LIG A   1      -5.021   7.605 130.237  0.00  0.00    +0.011 A 
ENDBRANCH  10  12
BRANCH   4  18
ATOM     18  O   LIG A   1     -12.088   5.884 131.995  0.00  0.00    -0.506 OA
ATOM     19  H   LIG A   1     -11.802   6.132 132.903  0.00  0.00    +0.292 HD
ENDBRANCH   4  18
TORSDOF 2
ENDMDL
MODEL 3
REMARK VINA RESULT:      -7.2      1.630      5.910
REMARK  Name = NuBBE_1562
REMARK  2 active torsions:
REMARK  status: ('A' for Active; 'I' for Inactive)
REMARK    1  A    between atoms: C_4  and  O_5
REMARK    2  A    between atoms: C_11  and  C_12
REMARK                            x       y       z     vdW  Elec       q    Type
REMARK                         _______ _______ _______ _____ _____    ______ ____
ROOT
ATOM      1  O   LIG A   1      -9.069   4.990 133.695  0.00  0.00    -0.287 OA
ATOM      2  C   LIG A   1      -8.856   5.671 132.699  0.00  0.00    +0.197 A 
ATOM      3  C   LIG A   1      -7.494   6.064 132.321  0.00  0.00    +0.105 A 
ATOM      4  C   LIG A   1      -6.382   5.679 133.077  0.00  0.00    +0.131 A 
ATOM      5  C   LIG A   1      -5.104   6.071 132.686  0.00  0.00    +0.046 A 
ATOM      6  C   LIG A   1      -4.935   6.849 131.539  0.00  0.00    +0.007 A 
ATOM      7  C   LIG A   1      -6.046   7.233 130.782  0.00  0.00    +0.047 A 
ATOM      8  C   LIG A   1      -7.325   6.839 131.176  0.00  0.00    +0.143 A 
ATOM      9  O   LIG A   1      -8.373   7.248 130.391  0.00  0.00    -0.455 OA
ATOM     10  C   LIG A   1      -9.659   6.883 130.760  0.00  0.00    +0.139 A 
ATOM     11  C   LIG A   1      -9.951   6.132 131.833  0.00  0.00    +0.098 A 
ENDROOT
BRANCH  10  12
ATOM     12  C   LIG A   1     -10.711   7.368 129.846  0.00  0.00    +0.017 A 
ATOM     13  C   LIG A   1     -12.063   7.176 130.168  0.00  0.00    +0.011 A 
ATOM     14  C   LIG A   1     -13.073   7.619 129.310  0.00  0.00    +0.001 A 
ATOM     15  C   LIG A   1     -12.743   8.256 128.116  0.00  0.00    +0.000 A 
ATOM     16  C   LIG A   1     -11.406   8.447 127.777  0.00  0.00    +0.001 A 
ATOM     17  C   LIG A   1     -10.396   8.003 128.634  0.00  0.00    +0.011 A 
ENDBRANCH  10  12
BRANCH   4  18
ATOM     18  O   LIG A   1      -6.477   4.919 134.210  0.00  0.00    -0.506 OA
ATOM     19  H   LIG A   1      -7.365   5.070 134.607  0.00  0.00    +0.292 HD
ENDBRANCH   4  18
TORSDOF 2
ENDMDL
MODEL 4
REMARK VINA RESULT:      -7.2      9.487     10.546
REMARK  Name = NuBBE_1562
REMARK  2 active torsions:
REMARK  status: ('A' for Active; 'I' for Inactive)
REMARK    1  A    between atoms: C_4  and  O_5
REMARK    2  A    between atoms: C_11  and  C_12
REMARK                            x       y       z     vdW  Elec       q    Type
REMARK                         _______ _______ _______ _____ _____    ______ ____
ROOT
ATOM      1  O   LIG A   1      -9.583   2.333 125.081  0.00  0.00    -0.287 OA
ATOM      2  C   LIG A   1      -8.711   2.022 124.277  0.00  0.00    +0.197 A 
ATOM      3  C   LIG A   1      -8.236   0.638 124.166  0.00  0.00    +0.105 A 
ATOM      4  C   LIG A   1      -8.756  -0.384 124.966  0.00  0.00    +0.131 A 
ATOM      5  C   LIG A   1      -8.281  -1.686 124.830  0.00  0.00    +0.046 A 
ATOM      6  C   LIG A   1      -7.284  -1.969 123.894  0.00  0.00    +0.007 A 
ATOM      7  C   LIG A   1      -6.765  -0.948 123.093  0.00  0.00    +0.047 A 
ATOM      8  C   LIG A   1      -7.243   0.356 123.231  0.00  0.00    +0.143 A 
ATOM      9  O   LIG A   1      -6.693   1.311 122.415  0.00  0.00    -0.455 OA
ATOM     10  C   LIG A   1      -7.138   2.619 122.534  0.00  0.00    +0.139 A 
ATOM     11  C   LIG A   1      -8.094   3.016 123.387  0.00  0.00    +0.098 A 
ENDROOT
BRANCH  10  12
ATOM     12  C   LIG A   1      -6.487   3.565 121.607  0.00  0.00    +0.017 A 
ATOM     13  C   LIG A   1      -7.069   3.837 120.360  0.00  0.00    +0.011 A 
ATOM     14  C   LIG A   1      -6.462   4.722 119.465  0.00  0.00    +0.001 A 
ATOM     15  C   LIG A   1      -5.262   5.343 119.804  0.00  0.00    +0.000 A 
ATOM     16  C   LIG A   1      -4.666   5.077 121.034  0.00  0.00    +0.001 A 
ATOM     17  C   LIG A   1      -5.272   4.191 121.929  0.00  0.00    +0.011 A 
ENDBRANCH  10  12
BRANCH   4  18
ATOM     18  O   LIG A   1      -9.732  -0.175 125.902  0.00  0.00    -0.506 OA
ATOM     19  H   LIG A   1     -10.553  -0.621 125.593  0.00  0.00    +0.292 HD
ENDBRANCH   4  18
TORSDOF 2
ENDMDL
MODEL 5
REMARK VINA RESULT:      -7.1      2.284      3.367
REMARK  Name = NuBBE_1562
REMARK  2 active torsions:
REMARK  status: ('A' for Active; 'I' for Inactive)
REMARK    1  A    between atoms: C_4  and  O_5
REMARK    2  A    between atoms: C_11  and  C_12
REMARK                            x       y       z     vdW  Elec       q    Type
REMARK                         _______ _______ _______ _____ _____    ______ ____
ROOT
ATOM      1  O   LIG A   1      -9.374   6.089 127.476  0.00  0.00    -0.287 OA
ATOM      2  C   LIG A   1      -9.801   6.275 128.610  0.00  0.00    +0.197 A 
ATOM      3  C   LIG A   1     -10.924   7.185 128.862  0.00  0.00    +0.105 A 
ATOM      4  C   LIG A   1     -11.556   7.877 127.824  0.00  0.00    +0.131 A 
ATOM      5  C   LIG A   1     -12.619   8.732 128.103  0.00  0.00    +0.046 A 
ATOM      6  C   LIG A   1     -13.053   8.897 129.419  0.00  0.00    +0.007 A 
ATOM      7  C   LIG A   1     -12.423   8.205 130.457  0.00  0.00    +0.047 A 
ATOM      8  C   LIG A   1     -11.357   7.349 130.176  0.00  0.00    +0.143 A 
ATOM      9  O   LIG A   1     -10.782   6.699 131.238  0.00  0.00    -0.455 OA
ATOM     10  C   LIG A   1      -9.713   5.849 130.994  0.00  0.00    +0.139 A 
ATOM     11  C   LIG A   1      -9.211   5.601 129.776  0.00  0.00    +0.098 A 
ENDROOT
BRANCH  10  12
ATOM     12  C   LIG A   1      -9.173   5.196 132.202  0.00  0.00    +0.017 A 
ATOM     13  C   LIG A   1      -8.465   5.951 133.150  0.00  0.00    +0.011 A 
ATOM     14  C   LIG A   1      -7.937   5.349 134.295  0.00  0.00    +0.001 A 
ATOM     15  C   LIG A   1      -8.106   3.982 134.505  0.00  0.00    +0.000 A 
ATOM     16  C   LIG A   1      -8.798   3.217 133.569  0.00  0.00    +0.001 A 
ATOM     17  C   LIG A   1      -9.325   3.818 132.424  0.00  0.00    +0.011 A 
ENDBRANCH  10  12
BRANCH   4  18
ATOM     18  O   LIG A   1     -11.181   7.761 126.514  0.00  0.00    -0.506 OA
ATOM     19  H   LIG A   1     -10.927   8.654 126.188  0.00  0.00    +0.292 HD
ENDBRANCH   4  18
TORSDOF 2
ENDMDL
MODEL 6
REMARK VINA RESULT:      -7.1      7.517      8.430
REMARK  Name = NuBBE_1562
REMARK  2 active torsions:
REMARK  status: ('A' for Active; 'I' for Inactive)
REMARK    1  A    between atoms: C_4  and  O_5
REMARK    2  A    between atoms: C_11  and  C_12
REMARK                            x       y       z     vdW  Elec       q    Type
REMARK                         _______ _______ _______ _____ _____    ______ ____
ROOT
ATOM      1  O   LIG A   1      -8.613   2.803 124.125  0.00  0.00    -0.287 OA
ATOM      2  C   LIG A   1      -7.472   3.232 123.999  0.00  0.00    +0.197 A 
ATOM      3  C   LIG A   1      -6.945   3.619 122.686  0.00  0.00    +0.105 A 
ATOM      4  C   LIG A   1      -7.717   3.518 121.525  0.00  0.00    +0.131 A 
ATOM      5  C   LIG A   1      -7.181   3.896 120.297  0.00  0.00    +0.046 A 
ATOM      6  C   LIG A   1      -5.872   4.376 120.226  0.00  0.00    +0.007 A 
ATOM      7  C   LIG A   1      -5.100   4.479 121.386  0.00  0.00    +0.047 A 
ATOM      8  C   LIG A   1      -5.639   4.099 122.616  0.00  0.00    +0.143 A 
ATOM      9  O   LIG A   1      -4.830   4.225 123.717  0.00  0.00    -0.455 OA
ATOM     10  C   LIG A   1      -5.331   3.846 124.954  0.00  0.00    +0.139 A 
ATOM     11  C   LIG A   1      -6.573   3.379 125.153  0.00  0.00    +0.098 A 
ENDROOT
BRANCH  10  12
ATOM     12  C   LIG A   1      -4.384   4.027 126.070  0.00  0.00    +0.017 A 
ATOM     13  C   LIG A   1      -4.607   5.034 127.022  0.00  0.00    +0.011 A 
ATOM     14  C   LIG A   1      -3.715   5.227 128.081  0.00  0.00    +0.001 A 
ATOM     15  C   LIG A   1      -2.587   4.419 128.199  0.00  0.00    +0.000 A 
ATOM     16  C   LIG A   1      -2.346   3.421 127.257  0.00  0.00    +0.001 A 
ATOM     17  C   LIG A   1      -3.237   3.228 126.198  0.00  0.00    +0.011 A 
ENDBRANCH  10  12
BRANCH   4  18
ATOM     18  O   LIG A   1      -9.004   3.055 121.524  0.00  0.00    -0.506 OA
ATOM     19  H   LIG A   1      -9.461   3.419 122.315  0.00  0.00    +0.292 HD
ENDBRANCH   4  18
TORSDOF 2
ENDMDL
MODEL 7
REMARK VINA RESULT:      -7.1      2.506      6.145
REMARK  Name = NuBBE_1562
REMARK  2 active torsions:
REMARK  status: ('A' for Active; 'I' for Inactive)
REMARK    1  A    between atoms: C_4  and  O_5
REMARK    2  A    between atoms: C_11  and  C_12
REMARK                            x       y       z     vdW  Elec       q    Type
REMARK                         _______ _______ _______ _____ _____    ______ ____
ROOT
ATOM      1  O   LIG A   1      -9.826   2.410 131.229  0.00  0.00    -0.287 OA
ATOM      2  C   LIG A   1      -9.758   3.606 131.490  0.00  0.00    +0.197 A 
ATOM      3  C   LIG A   1      -8.982   4.093 132.635  0.00  0.00    +0.105 A 
ATOM      4  C   LIG A   1      -8.286   3.220 133.476  0.00  0.00    +0.131 A 
ATOM      5  C   LIG A   1      -7.559   3.720 134.554  0.00  0.00    +0.046 A 
ATOM      6  C   LIG A   1      -7.526   5.095 134.793  0.00  0.00    +0.007 A 
ATOM      7  C   LIG A   1      -8.221   5.969 133.952  0.00  0.00    +0.047 A 
ATOM      8  C   LIG A   1      -8.949   5.465 132.873  0.00  0.00    +0.143 A 
ATOM      9  O   LIG A   1      -9.607   6.375 132.085  0.00  0.00    -0.455 OA
ATOM     10  C   LIG A   1     -10.349   5.907 131.011  0.00  0.00    +0.139 A 
ATOM     11  C   LIG A   1     -10.452   4.613 130.674  0.00  0.00    +0.098 A 
ENDROOT
BRANCH  10  12
ATOM     12  C   LIG A   1     -11.011   6.967 130.227  0.00  0.00    +0.017 A 
ATOM     13  C   LIG A   1     -10.382   7.494 129.089  0.00  0.00    +0.011 A 
ATOM     14  C   LIG A   1     -10.989   8.505 128.340  0.00  0.00    +0.001 A 
ATOM     15  C   LIG A   1     -12.232   9.005 128.721  0.00  0.00    +0.000 A 
ATOM     16  C   LIG A   1     -12.866   8.499 129.853  0.00  0.00    +0.001 A 
ATOM     17  C   LIG A   1     -12.259   7.489 130.603  0.00  0.00    +0.011 A 
ENDBRANCH  10  12
BRANCH   4  18
ATOM     18  O   LIG A   1      -8.277   1.863 133.299  0.00  0.00    -0.506 OA
ATOM     19  H   LIG A   1      -7.788   1.459 134.051  0.00  0.00    +0.292 HD
ENDBRANCH   4  18
TORSDOF 2
ENDMDL
MODEL 8
REMARK VINA RESULT:      -7.0      1.835      6.414
REMARK  Name = NuBBE_1562
REMARK  2 active torsions:
REMARK  status: ('A' for Active; 'I' for Inactive)
REMARK    1  A    between atoms: C_4  and  O_5
REMARK    2  A    between atoms: C_11  and  C_12
REMARK                            x       y       z     vdW  Elec       q    Type
REMARK                         _______ _______ _______ _____ _____    ______ ____
ROOT
ATOM      1  O   LIG A   1      -6.144   7.262 130.918  0.00  0.00    -0.287 OA
ATOM      2  C   LIG A   1      -7.281   6.880 131.169  0.00  0.00    +0.197 A 
ATOM      3  C   LIG A   1      -7.553   5.985 132.300  0.00  0.00    +0.105 A 
ATOM      4  C   LIG A   1      -6.531   5.531 133.139  0.00  0.00    +0.131 A 
ATOM      5  C   LIG A   1      -6.828   4.683 134.203  0.00  0.00    +0.046 A 
ATOM      6  C   LIG A   1      -8.147   4.287 134.430  0.00  0.00    +0.007 A 
ATOM      7  C   LIG A   1      -9.170   4.742 133.593  0.00  0.00    +0.047 A 
ATOM      8  C   LIG A   1      -8.869   5.591 132.527  0.00  0.00    +0.143 A 
ATOM      9  O   LIG A   1      -9.917   6.003 131.743  0.00  0.00    -0.455 OA
ATOM     10  C   LIG A   1      -9.652   6.839 130.669  0.00  0.00    +0.139 A 
ATOM     11  C   LIG A   1      -8.431   7.295 130.352  0.00  0.00    +0.098 A 
ENDROOT
BRANCH  10  12
ATOM     12  C   LIG A   1     -10.847   7.226 129.895  0.00  0.00    +0.017 A 
ATOM     13  C   LIG A   1     -10.722   8.089 128.796  0.00  0.00    +0.011 A 
ATOM     14  C   LIG A   1     -11.844   8.476 128.058  0.00  0.00    +0.001 A 
ATOM     15  C   LIG A   1     -13.107   8.007 128.412  0.00  0.00    +0.000 A 
ATOM     16  C   LIG A   1     -13.250   7.157 129.506  0.00  0.00    +0.001 A 
ATOM     17  C   LIG A   1     -12.129   6.771 130.245  0.00  0.00    +0.011 A 
ENDBRANCH  10  12
BRANCH   4  18
ATOM     18  O   LIG A   1      -5.218   5.879 132.972  0.00  0.00    -0.506 OA
ATOM     19  H   LIG A   1      -5.016   6.616 133.591  0.00  0.00    +0.292 HD
ENDBRANCH   4  18
TORSDOF 2
ENDMDL
MODEL 9
REMARK VINA RESULT:      -7.0     10.638     11.049
REMARK  Name = NuBBE_1562
REMARK  2 active torsions:
REMARK  status: ('A' for Active; 'I' for Inactive)
REMARK    1  A    between atoms: C_4  and  O_5
REMARK    2  A    between atoms: C_11  and  C_12
REMARK                            x       y       z     vdW  Elec       q    Type
REMARK                         _______ _______ _______ _____ _____    ______ ____
ROOT
ATOM      1  O   LIG A   1     -10.131  -2.863 125.847  0.00  0.00    -0.287 OA
ATOM      2  C   LIG A   1      -8.921  -2.733 125.996  0.00  0.00    +0.197 A 
ATOM      3  C   LIG A   1      -8.041  -2.439 124.859  0.00  0.00    +0.105 A 
ATOM      4  C   LIG A   1      -8.540  -2.293 123.561  0.00  0.00    +0.131 A 
ATOM      5  C   LIG A   1      -7.674  -2.014 122.508  0.00  0.00    +0.046 A 
ATOM      6  C   LIG A   1      -6.305  -1.879 122.750  0.00  0.00    +0.007 A 
ATOM      7  C   LIG A   1      -5.805  -2.024 124.047  0.00  0.00    +0.047 A 
ATOM      8  C   LIG A   1      -6.676  -2.305 125.100  0.00  0.00    +0.143 A 
ATOM      9  O   LIG A   1      -6.123  -2.434 126.349  0.00  0.00    -0.455 OA
ATOM     10  C   LIG A   1      -6.959  -2.723 127.417  0.00  0.00    +0.139 A 
ATOM     11  C   LIG A   1      -8.289  -2.867 127.316  0.00  0.00    +0.098 A 
ENDROOT
BRANCH  10  12
ATOM     12  C   LIG A   1      -6.265  -2.835 128.714  0.00  0.00    +0.017 A 
ATOM     13  C   LIG A   1      -4.952  -2.357 128.851  0.00  0.00    +0.011 A 
ATOM     14  C   LIG A   1      -4.276  -2.464 130.069  0.00  0.00    +0.001 A 
ATOM     15  C   LIG A   1      -4.901  -3.053 131.165  0.00  0.00    +0.000 A 
ATOM     16  C   LIG A   1      -6.200  -3.541 131.044  0.00  0.00    +0.001 A 
ATOM     17  C   LIG A   1      -6.877  -3.436 129.826  0.00  0.00    +0.011 A 
ENDBRANCH  10  12
BRANCH   4  18
ATOM     18  O   LIG A   1      -9.869  -2.413 123.256  0.00  0.00    -0.506 OA
ATOM     19  H   LIG A   1     -10.244  -3.140 123.802  0.00  0.00    +0.292 HD
ENDBRANCH   4  18
TORSDOF 2
ENDMDL
