MODEL 1
REMARK VINA RESULT:      -8.5      0.000      0.000
REMARK  Name = NuBBE_1292
REMARK  9 active torsions:
REMARK  status: ('A' for Active; 'I' for Inactive)
REMARK    1  A    between atoms: C_1  and  C_2
REMARK    2  A    between atoms: C_4  and  C_5
REMARK    3  A    between atoms: C_6  and  C_8
REMARK    4  A    between atoms: C_8  and  C_9
REMARK    5  A    between atoms: C_9  and  O_10
REMARK    6  A    between atoms: O_10  and  C_11
REMARK    7  A    between atoms: C_13  and  C_27
REMARK    8  A    between atoms: C_15  and  C_16
REMARK    9  A    between atoms: C_17  and  C_19
REMARK                            x       y       z     vdW  Elec       q    Type
REMARK                         _______ _______ _______ _____ _____    ______ ____
ROOT
ATOM      1  C   LIG A   1      -6.188   1.204 131.540  0.00  0.00    +0.027 C 
ATOM      2  C   LIG A   1      -7.484   1.085 130.729  0.00  0.00    +0.090 C 
ATOM      3  C   LIG A   1      -7.420   0.932 129.220  0.00  0.00    +0.066 C 
ATOM      4  C   LIG A   1      -6.733  -0.289 128.629  0.00  0.00    +0.042 C 
ATOM      5  C   LIG A   1      -5.217  -0.380 128.918  0.00  0.00    +0.020 C 
ATOM      6  C   LIG A   1      -7.007  -0.239 127.056  0.00  0.00    +0.026 C 
ATOM      7  C   LIG A   1      -6.552   1.193 126.423  0.00  0.00    +0.025 C 
ATOM      8  C   LIG A   1      -7.249   1.573 125.137  0.00  0.00    -0.033 C 
ATOM      9  C   LIG A   1      -7.395   1.086 123.899  0.00  0.00    -0.063 C 
ATOM     10  C   LIG A   1      -6.735  -0.095 123.284  0.00  0.00    +0.040 C 
ATOM     11  C   LIG A   1      -8.497   1.848 123.170  0.00  0.00    +0.051 C 
ATOM     12  C   LIG A   1      -9.213   2.571 124.346  0.00  0.00    +0.048 C 
ATOM     13  C   LIG A   1      -8.101   2.777 125.355  0.00  0.00    +0.146 C 
ATOM     14  O   LIG A   1      -8.365   2.708 126.755  0.00  0.00    -0.364 OA
ATOM     15  C   LIG A   1      -5.036   1.276 126.193  0.00  0.00    +0.019 C 
ATOM     16  C   LIG A   1      -7.032   2.439 127.267  0.00  0.00    +0.170 C 
ATOM     17  C   LIG A   1      -6.931   2.266 128.777  0.00  0.00    +0.211 C 
ATOM     18  O   LIG A   1      -7.726   3.158 129.573  0.00  0.00    -0.458 OA
ATOM     19  C   LIG A   1      -8.127   2.483 130.721  0.00  0.00    +0.318 C 
ATOM     20  O   LIG A   1      -8.819   2.969 131.600  0.00  0.00    -0.250 OA
ATOM     21  C   LIG A   1      -8.255  -0.111 131.209  0.00  0.00    -0.005 C 
ATOM     22  C   LIG A   1      -8.166  -1.305 130.593  0.00  0.00    +0.044 C 
ATOM     23  C   LIG A   1      -7.303  -1.519 129.375  0.00  0.00    +0.162 C 
ATOM     24  O   LIG A   1      -6.999  -2.662 129.044  0.00  0.00    -0.292 OA
ENDROOT
BRANCH  11  25
ATOM     25  C   LIG A   1      -7.954   2.757 122.102  0.00  0.00    -0.003 A 
ATOM     26  C   LIG A   1      -8.692   3.415 121.133  0.00  0.00    +0.199 A 
ATOM     27  O   LIG A   1      -7.894   4.157 120.325  0.00  0.00    -0.471 OA
ATOM     28  C   LIG A   1      -6.623   3.988 120.765  0.00  0.00    +0.195 A 
ATOM     29  C   LIG A   1      -6.603   3.142 121.848  0.00  0.00    +0.045 A 
ENDBRANCH  11  25
BRANCH   6  30
ATOM     30  C   LIG A   1      -8.481  -0.610 126.659  0.00  0.00    +0.126 C 
BRANCH  30  31
ATOM     31  C   LIG A   1      -8.714  -1.901 125.886  0.00  0.00    +0.307 C 
ATOM     32  O   LIG A   1      -9.808  -2.269 125.471  0.00  0.00    -0.251 OA
BRANCH  31  33
ATOM     33  O   LIG A   1      -7.523  -2.545 125.701  0.00  0.00    -0.468 OA
ATOM     34  C   LIG A   1      -7.514  -3.489 124.623  0.00  0.00    +0.280 C 
ENDBRANCH  31  33
ENDBRANCH  30  31
ENDBRANCH   6  30
TORSDOF 4
ENDMDL
MODEL 2
REMARK VINA RESULT:      -8.3      3.554      6.026
REMARK  Name = NuBBE_1292
REMARK  9 active torsions:
REMARK  status: ('A' for Active; 'I' for Inactive)
REMARK    1  A    between atoms: C_1  and  C_2
REMARK    2  A    between atoms: C_4  and  C_5
REMARK    3  A    between atoms: C_6  and  C_8
REMARK    4  A    between atoms: C_8  and  C_9
REMARK    5  A    between atoms: C_9  and  O_10
REMARK    6  A    between atoms: O_10  and  C_11
REMARK    7  A    between atoms: C_13  and  C_27
REMARK    8  A    between atoms: C_15  and  C_16
REMARK    9  A    between atoms: C_17  and  C_19
REMARK                            x       y       z     vdW  Elec       q    Type
REMARK                         _______ _______ _______ _____ _____    ______ ____
ROOT
ATOM      1  C   LIG A   1      -2.264   5.948 130.878  0.00  0.00    +0.027 C 
ATOM      2  C   LIG A   1      -3.255   6.197 129.736  0.00  0.00    +0.090 C 
ATOM      3  C   LIG A   1      -4.121   5.058 129.226  0.00  0.00    +0.066 C 
ATOM      4  C   LIG A   1      -5.110   4.399 130.174  0.00  0.00    +0.042 C 
ATOM      5  C   LIG A   1      -4.465   3.658 131.368  0.00  0.00    +0.020 C 
ATOM      6  C   LIG A   1      -5.978   3.393 129.286  0.00  0.00    +0.026 C 
ATOM      7  C   LIG A   1      -5.023   2.369 128.450  0.00  0.00    +0.025 C 
ATOM      8  C   LIG A   1      -5.647   1.788 127.203  0.00  0.00    -0.033 C 
ATOM      9  C   LIG A   1      -6.711   1.048 126.871  0.00  0.00    -0.063 C 
ATOM     10  C   LIG A   1      -7.692   0.381 127.767  0.00  0.00    +0.040 C 
ATOM     11  C   LIG A   1      -6.906   1.072 125.358  0.00  0.00    +0.051 C 
ATOM     12  C   LIG A   1      -6.014   2.277 124.943  0.00  0.00    +0.048 C 
ATOM     13  C   LIG A   1      -4.923   2.278 125.995  0.00  0.00    +0.146 C 
ATOM     14  O   LIG A   1      -4.359   3.504 126.459  0.00  0.00    -0.364 OA
ATOM     15  C   LIG A   1      -4.509   1.210 129.318  0.00  0.00    +0.019 C 
ATOM     16  C   LIG A   1      -3.807   3.079 127.735  0.00  0.00    +0.170 C 
ATOM     17  C   LIG A   1      -3.132   4.171 128.554  0.00  0.00    +0.211 C 
ATOM     18  O   LIG A   1      -2.332   5.113 127.821  0.00  0.00    -0.458 OA
ATOM     19  C   LIG A   1      -2.419   6.348 128.453  0.00  0.00    +0.318 C 
ATOM     20  O   LIG A   1      -1.852   7.358 128.072  0.00  0.00    -0.250 OA
ATOM     21  C   LIG A   1      -4.224   7.266 130.151  0.00  0.00    -0.005 C 
ATOM     22  C   LIG A   1      -5.429   6.967 130.671  0.00  0.00    +0.044 C 
ATOM     23  C   LIG A   1      -5.894   5.545 130.857  0.00  0.00    +0.162 C 
ATOM     24  O   LIG A   1      -6.833   5.310 131.613  0.00  0.00    -0.292 OA
ENDROOT
BRANCH  11  25
ATOM     25  C   LIG A   1      -6.545  -0.238 124.714  0.00  0.00    -0.003 A 
ATOM     26  C   LIG A   1      -6.998  -0.701 123.490  0.00  0.00    +0.199 A 
ATOM     27  O   LIG A   1      -6.479  -1.920 123.201  0.00  0.00    -0.471 OA
ATOM     28  C   LIG A   1      -5.677  -2.261 124.240  0.00  0.00    +0.195 A 
ATOM     29  C   LIG A   1      -5.682  -1.270 125.191  0.00  0.00    +0.045 A 
ENDBRANCH  11  25
BRANCH   6  30
ATOM     30  C   LIG A   1      -7.019   4.110 128.355  0.00  0.00    +0.126 C 
BRANCH  30  31
ATOM     31  C   LIG A   1      -8.478   4.131 128.791  0.00  0.00    +0.307 C 
ATOM     32  O   LIG A   1      -9.061   3.178 129.296  0.00  0.00    -0.251 OA
BRANCH  31  33
ATOM     33  O   LIG A   1      -9.005   5.372 128.567  0.00  0.00    -0.468 OA
ATOM     34  C   LIG A   1      -9.752   5.912 129.664  0.00  0.00    +0.280 C 
ENDBRANCH  31  33
ENDBRANCH  30  31
ENDBRANCH   6  30
TORSDOF 4
ENDMDL
MODEL 3
REMARK VINA RESULT:      -8.0      4.835      8.618
REMARK  Name = NuBBE_1292
REMARK  9 active torsions:
REMARK  status: ('A' for Active; 'I' for Inactive)
REMARK    1  A    between atoms: C_1  and  C_2
REMARK    2  A    between atoms: C_4  and  C_5
REMARK    3  A    between atoms: C_6  and  C_8
REMARK    4  A    between atoms: C_8  and  C_9
REMARK    5  A    between atoms: C_9  and  O_10
REMARK    6  A    between atoms: O_10  and  C_11
REMARK    7  A    between atoms: C_13  and  C_27
REMARK    8  A    between atoms: C_15  and  C_16
REMARK    9  A    between atoms: C_17  and  C_19
REMARK                            x       y       z     vdW  Elec       q    Type
REMARK                         _______ _______ _______ _____ _____    ______ ____
ROOT
ATOM      1  C   LIG A   1      -7.869  -0.320 130.462  0.00  0.00    +0.027 C 
ATOM      2  C   LIG A   1      -8.003   0.677 131.618  0.00  0.00    +0.090 C 
ATOM      3  C   LIG A   1      -7.320   2.031 131.531  0.00  0.00    +0.066 C 
ATOM      4  C   LIG A   1      -7.722   2.992 130.424  0.00  0.00    +0.042 C 
ATOM      5  C   LIG A   1      -7.404   2.500 128.994  0.00  0.00    +0.020 C 
ATOM      6  C   LIG A   1      -6.968   4.367 130.730  0.00  0.00    +0.026 C 
ATOM      7  C   LIG A   1      -5.364   4.134 130.905  0.00  0.00    +0.025 C 
ATOM      8  C   LIG A   1      -4.651   5.185 131.724  0.00  0.00    -0.033 C 
ATOM      9  C   LIG A   1      -4.443   6.506 131.689  0.00  0.00    -0.063 C 
ATOM     10  C   LIG A   1      -4.812   7.474 130.623  0.00  0.00    +0.040 C 
ATOM     11  C   LIG A   1      -3.864   6.974 133.020  0.00  0.00    +0.051 C 
ATOM     12  C   LIG A   1      -4.162   5.756 133.941  0.00  0.00    +0.048 C 
ATOM     13  C   LIG A   1      -4.128   4.582 132.983  0.00  0.00    +0.146 C 
ATOM     14  O   LIG A   1      -4.999   3.466 133.166  0.00  0.00    -0.364 OA
ATOM     15  C   LIG A   1      -4.642   4.002 129.555  0.00  0.00    +0.019 C 
ATOM     16  C   LIG A   1      -5.000   2.904 131.826  0.00  0.00    +0.170 C 
ATOM     17  C   LIG A   1      -5.878   1.675 131.630  0.00  0.00    +0.211 C 
ATOM     18  O   LIG A   1      -5.877   0.716 132.699  0.00  0.00    -0.458 OA
ATOM     19  C   LIG A   1      -7.138   0.135 132.769  0.00  0.00    +0.318 C 
ATOM     20  O   LIG A   1      -7.459  -0.719 133.578  0.00  0.00    -0.250 OA
ATOM     21  C   LIG A   1      -9.457   0.988 131.831  0.00  0.00    -0.005 C 
ATOM     22  C   LIG A   1     -10.037   2.072 131.284  0.00  0.00    +0.044 C 
ATOM     23  C   LIG A   1      -9.269   3.053 130.435  0.00  0.00    +0.162 C 
ATOM     24  O   LIG A   1      -9.880   3.828 129.704  0.00  0.00    -0.292 OA
ENDROOT
BRANCH  11  25
ATOM     25  C   LIG A   1      -2.411   7.347 132.912  0.00  0.00    -0.003 A 
ATOM     26  C   LIG A   1      -1.866   8.596 133.159  0.00  0.00    +0.199 A 
ATOM     27  O   LIG A   1      -0.523   8.594 132.970  0.00  0.00    -0.471 OA
ATOM     28  C   LIG A   1      -0.181   7.336 132.599  0.00  0.00    +0.195 A 
ATOM     29  C   LIG A   1      -1.296   6.535 132.547  0.00  0.00    +0.045 A 
ENDBRANCH  11  25
BRANCH   6  30
ATOM     30  C   LIG A   1      -7.576   5.166 131.939  0.00  0.00    +0.126 C 
BRANCH  30  31
ATOM     31  C   LIG A   1      -8.479   6.353 131.634  0.00  0.00    +0.307 C 
ATOM     32  O   LIG A   1      -8.336   7.099 130.671  0.00  0.00    -0.251 OA
BRANCH  31  33
ATOM     33  O   LIG A   1      -9.475   6.421 132.567  0.00  0.00    -0.468 OA
ATOM     34  C   LIG A   1     -10.802   6.312 132.035  0.00  0.00    +0.280 C 
ENDBRANCH  31  33
ENDBRANCH  30  31
ENDBRANCH   6  30
TORSDOF 4
ENDMDL
MODEL 4
REMARK VINA RESULT:      -8.0      1.860      2.688
REMARK  Name = NuBBE_1292
REMARK  9 active torsions:
REMARK  status: ('A' for Active; 'I' for Inactive)
REMARK    1  A    between atoms: C_1  and  C_2
REMARK    2  A    between atoms: C_4  and  C_5
REMARK    3  A    between atoms: C_6  and  C_8
REMARK    4  A    between atoms: C_8  and  C_9
REMARK    5  A    between atoms: C_9  and  O_10
REMARK    6  A    between atoms: O_10  and  C_11
REMARK    7  A    between atoms: C_13  and  C_27
REMARK    8  A    between atoms: C_15  and  C_16
REMARK    9  A    between atoms: C_17  and  C_19
REMARK                            x       y       z     vdW  Elec       q    Type
REMARK                         _______ _______ _______ _____ _____    ______ ____
ROOT
ATOM      1  C   LIG A   1      -8.388   4.098 132.656  0.00  0.00    +0.027 C 
ATOM      2  C   LIG A   1      -9.217   3.560 131.484  0.00  0.00    +0.090 C 
ATOM      3  C   LIG A   1      -8.523   3.126 130.205  0.00  0.00    +0.066 C 
ATOM      4  C   LIG A   1      -7.527   1.977 130.256  0.00  0.00    +0.042 C 
ATOM      5  C   LIG A   1      -6.263   2.256 131.101  0.00  0.00    +0.020 C 
ATOM      6  C   LIG A   1      -7.136   1.657 128.741  0.00  0.00    +0.026 C 
ATOM      7  C   LIG A   1      -6.618   2.997 127.969  0.00  0.00    +0.025 C 
ATOM      8  C   LIG A   1      -6.762   2.964 126.465  0.00  0.00    -0.033 C 
ATOM      9  C   LIG A   1      -6.335   2.221 125.438  0.00  0.00    -0.063 C 
ATOM     10  C   LIG A   1      -5.358   1.101 125.447  0.00  0.00    +0.040 C 
ATOM     11  C   LIG A   1      -7.115   2.584 124.178  0.00  0.00    +0.051 C 
ATOM     12  C   LIG A   1      -8.323   3.365 124.768  0.00  0.00    +0.048 C 
ATOM     13  C   LIG A   1      -7.752   3.989 126.025  0.00  0.00    +0.146 C 
ATOM     14  O   LIG A   1      -8.558   4.147 127.192  0.00  0.00    -0.364 OA
ATOM     15  C   LIG A   1      -5.159   3.338 128.307  0.00  0.00    +0.019 C 
ATOM     16  C   LIG A   1      -7.532   4.262 128.215  0.00  0.00    +0.170 C 
ATOM     17  C   LIG A   1      -8.041   4.417 129.641  0.00  0.00    +0.211 C 
ATOM     18  O   LIG A   1      -9.183   5.269 129.820  0.00  0.00    -0.458 OA
ATOM     19  C   LIG A   1      -9.945   4.768 130.869  0.00  0.00    +0.318 C 
ATOM     20  O   LIG A   1     -10.984   5.268 131.267  0.00  0.00    -0.250 OA
ATOM     21  C   LIG A   1      -9.984   2.352 131.940  0.00  0.00    -0.005 C 
ATOM     22  C   LIG A   1      -9.523   1.103 131.739  0.00  0.00    +0.044 C 
ATOM     23  C   LIG A   1      -8.219   0.831 131.032  0.00  0.00    +0.162 C 
ATOM     24  O   LIG A   1      -7.685  -0.269 131.152  0.00  0.00    -0.292 OA
ENDROOT
BRANCH  11  25
ATOM     25  C   LIG A   1      -6.282   3.353 123.191  0.00  0.00    -0.003 A 
ATOM     26  C   LIG A   1      -5.428   4.403 123.482  0.00  0.00    +0.199 A 
ATOM     27  O   LIG A   1      -4.826   4.876 122.362  0.00  0.00    -0.471 OA
ATOM     28  C   LIG A   1      -5.285   4.131 121.326  0.00  0.00    +0.195 A 
ATOM     29  C   LIG A   1      -6.178   3.188 121.777  0.00  0.00    +0.045 A 
ENDBRANCH  11  25
BRANCH   6  30
ATOM     30  C   LIG A   1      -8.269   0.923 127.937  0.00  0.00    +0.126 C 
BRANCH  30  31
ATOM     31  C   LIG A   1      -7.973  -0.464 127.382  0.00  0.00    +0.307 C 
ATOM     32  O   LIG A   1      -7.278  -1.300 127.950  0.00  0.00    -0.251 OA
BRANCH  31  33
ATOM     33  O   LIG A   1      -8.628  -0.631 126.195  0.00  0.00    -0.468 OA
ATOM     34  C   LIG A   1      -9.031  -1.978 125.918  0.00  0.00    +0.280 C 
ENDBRANCH  31  33
ENDBRANCH  30  31
ENDBRANCH   6  30
TORSDOF 4
ENDMDL
MODEL 5
REMARK VINA RESULT:      -7.7      2.521      7.189
REMARK  Name = NuBBE_1292
REMARK  9 active torsions:
REMARK  status: ('A' for Active; 'I' for Inactive)
REMARK    1  A    between atoms: C_1  and  C_2
REMARK    2  A    between atoms: C_4  and  C_5
REMARK    3  A    between atoms: C_6  and  C_8
REMARK    4  A    between atoms: C_8  and  C_9
REMARK    5  A    between atoms: C_9  and  O_10
REMARK    6  A    between atoms: O_10  and  C_11
REMARK    7  A    between atoms: C_13  and  C_27
REMARK    8  A    between atoms: C_15  and  C_16
REMARK    9  A    between atoms: C_17  and  C_19
REMARK                            x       y       z     vdW  Elec       q    Type
REMARK                         _______ _______ _______ _____ _____    ______ ____
ROOT
ATOM      1  C   LIG A   1      -6.397   4.275 126.380  0.00  0.00    +0.027 C 
ATOM      2  C   LIG A   1      -5.724   2.946 126.019  0.00  0.00    +0.090 C 
ATOM      3  C   LIG A   1      -6.156   1.667 126.714  0.00  0.00    +0.066 C 
ATOM      4  C   LIG A   1      -7.589   1.185 126.553  0.00  0.00    +0.042 C 
ATOM      5  C   LIG A   1      -8.658   2.127 127.154  0.00  0.00    +0.020 C 
ATOM      6  C   LIG A   1      -7.655  -0.256 127.237  0.00  0.00    +0.026 C 
ATOM      7  C   LIG A   1      -7.103  -0.208 128.771  0.00  0.00    +0.025 C 
ATOM      8  C   LIG A   1      -6.593  -1.525 129.308  0.00  0.00    -0.033 C 
ATOM      9  C   LIG A   1      -7.057  -2.761 129.527  0.00  0.00    -0.063 C 
ATOM     10  C   LIG A   1      -8.449  -3.266 129.391  0.00  0.00    +0.040 C 
ATOM     11  C   LIG A   1      -5.896  -3.704 129.825  0.00  0.00    +0.051 C 
ATOM     12  C   LIG A   1      -4.678  -2.871 129.337  0.00  0.00    +0.048 C 
ATOM     13  C   LIG A   1      -5.126  -1.440 129.559  0.00  0.00    +0.146 C 
ATOM     14  O   LIG A   1      -4.727  -0.404 128.661  0.00  0.00    -0.364 OA
ATOM     15  C   LIG A   1      -8.149   0.341 129.752  0.00  0.00    +0.019 C 
ATOM     16  C   LIG A   1      -5.751   0.593 128.931  0.00  0.00    +0.170 C 
ATOM     17  C   LIG A   1      -5.659   1.867 128.103  0.00  0.00    +0.211 C 
ATOM     18  O   LIG A   1      -4.340   2.387 127.880  0.00  0.00    -0.458 OA
ATOM     19  C   LIG A   1      -4.311   2.990 126.627  0.00  0.00    +0.318 C 
ATOM     20  O   LIG A   1      -3.329   3.525 126.142  0.00  0.00    -0.250 OA
ATOM     21  C   LIG A   1      -5.921   2.679 124.555  0.00  0.00    -0.005 C 
ATOM     22  C   LIG A   1      -6.922   1.898 124.105  0.00  0.00    +0.044 C 
ATOM     23  C   LIG A   1      -7.899   1.229 125.038  0.00  0.00    +0.162 C 
ATOM     24  O   LIG A   1      -8.963   0.804 124.594  0.00  0.00    -0.292 OA
ENDROOT
BRANCH  11  25
ATOM     25  C   LIG A   1      -5.848  -4.113 131.271  0.00  0.00    -0.003 A 
ATOM     26  C   LIG A   1      -6.386  -3.414 132.338  0.00  0.00    +0.199 A 
ATOM     27  O   LIG A   1      -6.168  -4.060 133.511  0.00  0.00    -0.471 OA
ATOM     28  C   LIG A   1      -5.484  -5.191 133.215  0.00  0.00    +0.195 A 
ATOM     29  C   LIG A   1      -5.261  -5.272 131.861  0.00  0.00    +0.045 A 
ENDBRANCH  11  25
BRANCH   6  30
ATOM     30  C   LIG A   1      -6.955  -1.386 126.401  0.00  0.00    +0.126 C 
BRANCH  30  31
ATOM     31  C   LIG A   1      -7.835  -2.396 125.678  0.00  0.00    +0.307 C 
ATOM     32  O   LIG A   1      -9.012  -2.607 125.954  0.00  0.00    -0.251 OA
BRANCH  31  33
ATOM     33  O   LIG A   1      -7.125  -2.985 124.670  0.00  0.00    -0.468 OA
ATOM     34  C   LIG A   1      -6.633  -2.078 123.675  0.00  0.00    +0.280 C 
ENDBRANCH  31  33
ENDBRANCH  30  31
ENDBRANCH   6  30
TORSDOF 4
ENDMDL
MODEL 6
REMARK VINA RESULT:      -7.6      5.085      8.633
REMARK  Name = NuBBE_1292
REMARK  9 active torsions:
REMARK  status: ('A' for Active; 'I' for Inactive)
REMARK    1  A    between atoms: C_1  and  C_2
REMARK    2  A    between atoms: C_4  and  C_5
REMARK    3  A    between atoms: C_6  and  C_8
REMARK    4  A    between atoms: C_8  and  C_9
REMARK    5  A    between atoms: C_9  and  O_10
REMARK    6  A    between atoms: O_10  and  C_11
REMARK    7  A    between atoms: C_13  and  C_27
REMARK    8  A    between atoms: C_15  and  C_16
REMARK    9  A    between atoms: C_17  and  C_19
REMARK                            x       y       z     vdW  Elec       q    Type
REMARK                         _______ _______ _______ _____ _____    ______ ____
ROOT
ATOM      1  C   LIG A   1     -10.575   4.613 130.990  0.00  0.00    +0.027 C 
ATOM      2  C   LIG A   1      -9.330   4.514 130.100  0.00  0.00    +0.090 C 
ATOM      3  C   LIG A   1      -7.949   4.630 130.719  0.00  0.00    +0.066 C 
ATOM      4  C   LIG A   1      -7.510   3.599 131.748  0.00  0.00    +0.042 C 
ATOM      5  C   LIG A   1      -8.332   3.603 133.057  0.00  0.00    +0.020 C 
ATOM      6  C   LIG A   1      -5.969   3.894 132.046  0.00  0.00    +0.026 C 
ATOM      7  C   LIG A   1      -5.737   5.450 132.474  0.00  0.00    +0.025 C 
ATOM      8  C   LIG A   1      -4.342   5.979 132.231  0.00  0.00    -0.033 C 
ATOM      9  C   LIG A   1      -3.089   5.700 132.610  0.00  0.00    -0.063 C 
ATOM     10  C   LIG A   1      -2.623   4.710 133.616  0.00  0.00    +0.040 C 
ATOM     11  C   LIG A   1      -2.102   6.470 131.738  0.00  0.00    +0.051 C 
ATOM     12  C   LIG A   1      -3.005   6.909 130.550  0.00  0.00    +0.048 C 
ATOM     13  C   LIG A   1      -4.374   7.042 131.187  0.00  0.00    +0.146 C 
ATOM     14  O   LIG A   1      -5.553   6.708 130.455  0.00  0.00    -0.364 OA
ATOM     15  C   LIG A   1      -6.104   5.713 133.942  0.00  0.00    +0.019 C 
ATOM     16  C   LIG A   1      -6.490   6.481 131.544  0.00  0.00    +0.170 C 
ATOM     17  C   LIG A   1      -7.892   6.061 131.127  0.00  0.00    +0.211 C 
ATOM     18  O   LIG A   1      -8.438   6.723 129.976  0.00  0.00    -0.458 OA
ATOM     19  C   LIG A   1      -9.257   5.826 129.299  0.00  0.00    +0.318 C 
ATOM     20  O   LIG A   1      -9.867   6.086 128.276  0.00  0.00    -0.250 OA
ATOM     21  C   LIG A   1      -9.333   3.186 129.400  0.00  0.00    -0.005 C 
ATOM     22  C   LIG A   1      -8.650   2.130 129.881  0.00  0.00    +0.044 C 
ATOM     23  C   LIG A   1      -7.827   2.212 131.141  0.00  0.00    +0.162 C 
ATOM     24  O   LIG A   1      -7.494   1.177 131.713  0.00  0.00    -0.292 OA
ENDROOT
BRANCH  11  25
ATOM     25  C   LIG A   1      -1.439   7.596 132.482  0.00  0.00    -0.003 A 
ATOM     26  C   LIG A   1      -0.145   7.603 132.973  0.00  0.00    +0.199 A 
ATOM     27  O   LIG A   1       0.141   8.775 133.593  0.00  0.00    -0.471 OA
ATOM     28  C   LIG A   1      -0.971   9.546 133.508  0.00  0.00    +0.195 A 
ATOM     29  C   LIG A   1      -1.966   8.873 132.840  0.00  0.00    +0.045 A 
ENDBRANCH  11  25
BRANCH   6  30
ATOM     30  C   LIG A   1      -5.005   3.460 130.884  0.00  0.00    +0.126 C 
BRANCH  30  31
ATOM     31  C   LIG A   1      -4.218   2.167 131.048  0.00  0.00    +0.307 C 
ATOM     32  O   LIG A   1      -3.765   1.766 132.115  0.00  0.00    -0.251 OA
BRANCH  31  33
ATOM     33  O   LIG A   1      -4.138   1.524 129.845  0.00  0.00    -0.468 OA
ATOM     34  C   LIG A   1      -4.878   2.142 128.785  0.00  0.00    +0.280 C 
ENDBRANCH  31  33
ENDBRANCH  30  31
ENDBRANCH   6  30
TORSDOF 4
ENDMDL
MODEL 7
REMARK VINA RESULT:      -7.6      2.305      8.101
REMARK  Name = NuBBE_1292
REMARK  9 active torsions:
REMARK  status: ('A' for Active; 'I' for Inactive)
REMARK    1  A    between atoms: C_1  and  C_2
REMARK    2  A    between atoms: C_4  and  C_5
REMARK    3  A    between atoms: C_6  and  C_8
REMARK    4  A    between atoms: C_8  and  C_9
REMARK    5  A    between atoms: C_9  and  O_10
REMARK    6  A    between atoms: O_10  and  C_11
REMARK    7  A    between atoms: C_13  and  C_27
REMARK    8  A    between atoms: C_15  and  C_16
REMARK    9  A    between atoms: C_17  and  C_19
REMARK                            x       y       z     vdW  Elec       q    Type
REMARK                         _______ _______ _______ _____ _____    ______ ____
ROOT
ATOM      1  C   LIG A   1      -7.383  -2.009 122.535  0.00  0.00    +0.027 C 
ATOM      2  C   LIG A   1      -8.408  -1.712 123.636  0.00  0.00    +0.090 C 
ATOM      3  C   LIG A   1      -7.947  -1.557 125.075  0.00  0.00    +0.066 C 
ATOM      4  C   LIG A   1      -6.983  -0.435 125.426  0.00  0.00    +0.042 C 
ATOM      5  C   LIG A   1      -5.590  -0.549 124.767  0.00  0.00    +0.020 C 
ATOM      6  C   LIG A   1      -6.858  -0.436 127.018  0.00  0.00    +0.026 C 
ATOM      7  C   LIG A   1      -6.445  -1.911 127.577  0.00  0.00    +0.025 C 
ATOM      8  C   LIG A   1      -6.839  -2.185 129.010  0.00  0.00    -0.033 C 
ATOM      9  C   LIG A   1      -6.606  -1.673 130.225  0.00  0.00    -0.063 C 
ATOM     10  C   LIG A   1      -5.668  -0.586 130.608  0.00  0.00    +0.040 C 
ATOM     11  C   LIG A   1      -7.577  -2.275 131.235  0.00  0.00    +0.051 C 
ATOM     12  C   LIG A   1      -8.652  -2.905 130.304  0.00  0.00    +0.048 C 
ATOM     13  C   LIG A   1      -7.865  -3.265 129.060  0.00  0.00    +0.146 C 
ATOM     14  O   LIG A   1      -8.462  -3.173 127.767  0.00  0.00    -0.364 OA
ATOM     15  C   LIG A   1      -4.943  -2.194 127.427  0.00  0.00    +0.019 C 
ATOM     16  C   LIG A   1      -7.276  -3.088 126.930  0.00  0.00    +0.170 C 
ATOM     17  C   LIG A   1      -7.537  -2.942 125.437  0.00  0.00    +0.211 C 
ATOM     18  O   LIG A   1      -8.613  -3.725 124.899  0.00  0.00    -0.458 OA
ATOM     19  C   LIG A   1      -9.201  -3.011 123.861  0.00  0.00    +0.318 C 
ATOM     20  O   LIG A   1     -10.147  -3.407 123.201  0.00  0.00    -0.250 OA
ATOM     21  C   LIG A   1      -9.115  -0.427 123.313  0.00  0.00    -0.005 C 
ATOM     22  C   LIG A   1      -8.723   0.748 123.839  0.00  0.00    +0.044 C 
ATOM     23  C   LIG A   1      -7.562   0.854 124.795  0.00  0.00    +0.162 C 
ATOM     24  O   LIG A   1      -7.041   1.949 124.993  0.00  0.00    -0.292 OA
ENDROOT
BRANCH  11  25
ATOM     25  C   LIG A   1      -6.904  -3.241 132.171  0.00  0.00    -0.003 A 
ATOM     26  C   LIG A   1      -7.218  -3.443 133.504  0.00  0.00    +0.199 A 
ATOM     27  O   LIG A   1      -6.418  -4.386 134.061  0.00  0.00    -0.471 OA
ATOM     28  C   LIG A   1      -5.573  -4.809 133.088  0.00  0.00    +0.195 A 
ATOM     29  C   LIG A   1      -5.826  -4.141 131.915  0.00  0.00    +0.045 A 
ENDBRANCH  11  25
BRANCH   6  30
ATOM     30  C   LIG A   1      -8.125   0.132 127.753  0.00  0.00    +0.126 C 
BRANCH  30  31
ATOM     31  C   LIG A   1      -8.070   1.559 128.282  0.00  0.00    +0.307 C 
ATOM     32  O   LIG A   1      -9.058   2.256 128.490  0.00  0.00    -0.251 OA
BRANCH  31  33
ATOM     33  O   LIG A   1      -6.771   1.910 128.518  0.00  0.00    -0.468 OA
ATOM     34  C   LIG A   1      -6.451   3.271 128.204  0.00  0.00    +0.280 C 
ENDBRANCH  31  33
ENDBRANCH  30  31
ENDBRANCH   6  30
TORSDOF 4
ENDMDL
MODEL 8
REMARK VINA RESULT:      -7.5      4.185      7.609
REMARK  Name = NuBBE_1292
REMARK  9 active torsions:
REMARK  status: ('A' for Active; 'I' for Inactive)
REMARK    1  A    between atoms: C_1  and  C_2
REMARK    2  A    between atoms: C_4  and  C_5
REMARK    3  A    between atoms: C_6  and  C_8
REMARK    4  A    between atoms: C_8  and  C_9
REMARK    5  A    between atoms: C_9  and  O_10
REMARK    6  A    between atoms: O_10  and  C_11
REMARK    7  A    between atoms: C_13  and  C_27
REMARK    8  A    between atoms: C_15  and  C_16
REMARK    9  A    between atoms: C_17  and  C_19
REMARK                            x       y       z     vdW  Elec       q    Type
REMARK                         _______ _______ _______ _____ _____    ______ ____
ROOT
ATOM      1  C   LIG A   1      -6.570  -1.637 130.364  0.00  0.00    +0.027 C 
ATOM      2  C   LIG A   1      -6.197  -0.291 129.731  0.00  0.00    +0.090 C 
ATOM      3  C   LIG A   1      -6.776   0.995 130.293  0.00  0.00    +0.066 C 
ATOM      4  C   LIG A   1      -6.459   1.384 131.728  0.00  0.00    +0.042 C 
ATOM      5  C   LIG A   1      -7.013   0.415 132.798  0.00  0.00    +0.020 C 
ATOM      6  C   LIG A   1      -7.052   2.853 131.935  0.00  0.00    +0.026 C 
ATOM      7  C   LIG A   1      -8.629   2.916 131.526  0.00  0.00    +0.025 C 
ATOM      8  C   LIG A   1      -9.134   4.287 131.139  0.00  0.00    -0.033 C 
ATOM      9  C   LIG A   1      -9.240   5.503 131.687  0.00  0.00    -0.063 C 
ATOM     10  C   LIG A   1      -8.950   5.918 133.084  0.00  0.00    +0.040 C 
ATOM     11  C   LIG A   1      -9.587   6.526 130.610  0.00  0.00    +0.051 C 
ATOM     12  C   LIG A   1      -9.260   5.741 129.309  0.00  0.00    +0.048 C 
ATOM     13  C   LIG A   1      -9.521   4.300 129.699  0.00  0.00    +0.146 C 
ATOM     14  O   LIG A   1      -8.724   3.244 129.164  0.00  0.00    -0.364 OA
ATOM     15  C   LIG A   1      -9.541   2.359 132.629  0.00  0.00    +0.019 C 
ATOM     16  C   LIG A   1      -8.956   2.205 130.154  0.00  0.00    +0.170 C 
ATOM     17  C   LIG A   1      -8.214   0.896 129.919  0.00  0.00    +0.211 C 
ATOM     18  O   LIG A   1      -8.140   0.443 128.558  0.00  0.00    -0.458 OA
ATOM     19  C   LIG A   1      -6.931  -0.221 128.381  0.00  0.00    +0.318 C 
ATOM     20  O   LIG A   1      -6.569  -0.723 127.330  0.00  0.00    -0.250 OA
ATOM     21  C   LIG A   1      -4.708  -0.112 129.804  0.00  0.00    -0.005 C 
ATOM     22  C   LIG A   1      -4.126   0.585 130.798  0.00  0.00    +0.044 C 
ATOM     23  C   LIG A   1      -4.927   1.244 131.893  0.00  0.00    +0.162 C 
ATOM     24  O   LIG A   1      -4.365   1.584 132.931  0.00  0.00    -0.292 OA
ENDROOT
BRANCH  11  25
ATOM     25  C   LIG A   1     -11.007   7.011 130.719  0.00  0.00    -0.003 A 
ATOM     26  C   LIG A   1     -11.960   6.560 131.616  0.00  0.00    +0.199 A 
ATOM     27  O   LIG A   1     -13.140   7.208 131.449  0.00  0.00    -0.471 OA
ATOM     28  C   LIG A   1     -12.962   8.092 130.438  0.00  0.00    +0.195 A 
ATOM     29  C   LIG A   1     -11.678   8.013 129.955  0.00  0.00    +0.045 A 
ENDBRANCH  11  25
BRANCH   6  30
ATOM     30  C   LIG A   1      -6.219   3.977 131.220  0.00  0.00    +0.126 C 
BRANCH  30  31
ATOM     31  C   LIG A   1      -5.565   5.047 132.083  0.00  0.00    +0.307 C 
ATOM     32  O   LIG A   1      -4.912   4.812 133.095  0.00  0.00    -0.251 OA
BRANCH  31  33
ATOM     33  O   LIG A   1      -5.788   6.278 131.534  0.00  0.00    -0.468 OA
ATOM     34  C   LIG A   1      -4.601   7.003 131.189  0.00  0.00    +0.280 C 
ENDBRANCH  31  33
ENDBRANCH  30  31
ENDBRANCH   6  30
TORSDOF 4
ENDMDL
MODEL 9
REMARK VINA RESULT:      -7.4      3.996      6.487
REMARK  Name = NuBBE_1292
REMARK  9 active torsions:
REMARK  status: ('A' for Active; 'I' for Inactive)
REMARK    1  A    between atoms: C_1  and  C_2
REMARK    2  A    between atoms: C_4  and  C_5
REMARK    3  A    between atoms: C_6  and  C_8
REMARK    4  A    between atoms: C_8  and  C_9
REMARK    5  A    between atoms: C_9  and  O_10
REMARK    6  A    between atoms: O_10  and  C_11
REMARK    7  A    between atoms: C_13  and  C_27
REMARK    8  A    between atoms: C_15  and  C_16
REMARK    9  A    between atoms: C_17  and  C_19
REMARK                            x       y       z     vdW  Elec       q    Type
REMARK                         _______ _______ _______ _____ _____    ______ ____
ROOT
ATOM      1  C   LIG A   1      -3.866  -3.634 133.109  0.00  0.00    +0.027 C 
ATOM      2  C   LIG A   1      -5.326  -3.555 132.648  0.00  0.00    +0.090 C 
ATOM      3  C   LIG A   1      -5.849  -2.281 132.008  0.00  0.00    +0.066 C 
ATOM      4  C   LIG A   1      -5.229  -1.798 130.706  0.00  0.00    +0.042 C 
ATOM      5  C   LIG A   1      -3.741  -1.390 130.811  0.00  0.00    +0.020 C 
ATOM      6  C   LIG A   1      -6.120  -0.567 130.216  0.00  0.00    +0.026 C 
ATOM      7  C   LIG A   1      -6.260   0.563 131.385  0.00  0.00    +0.025 C 
ATOM      8  C   LIG A   1      -7.479   1.449 131.273  0.00  0.00    -0.033 C 
ATOM      9  C   LIG A   1      -8.012   2.308 130.396  0.00  0.00    -0.063 C 
ATOM     10  C   LIG A   1      -7.434   2.810 129.122  0.00  0.00    +0.040 C 
ATOM     11  C   LIG A   1      -9.443   2.642 130.804  0.00  0.00    +0.051 C 
ATOM     12  C   LIG A   1      -9.752   1.513 131.828  0.00  0.00    +0.048 C 
ATOM     13  C   LIG A   1      -8.393   1.207 132.426  0.00  0.00    +0.146 C 
ATOM     14  O   LIG A   1      -8.048  -0.125 132.807  0.00  0.00    -0.364 OA
ATOM     15  C   LIG A   1      -5.017   1.460 131.481  0.00  0.00    +0.019 C 
ATOM     16  C   LIG A   1      -6.597  -0.036 132.806  0.00  0.00    +0.170 C 
ATOM     17  C   LIG A   1      -5.861  -1.324 133.149  0.00  0.00    +0.211 C 
ATOM     18  O   LIG A   1      -6.427  -2.119 134.202  0.00  0.00    -0.458 OA
ATOM     19  C   LIG A   1      -6.185  -3.459 133.921  0.00  0.00    +0.318 C 
ATOM     20  O   LIG A   1      -6.543  -4.387 134.626  0.00  0.00    -0.250 OA
ATOM     21  C   LIG A   1      -5.578  -4.632 131.632  0.00  0.00    -0.005 C 
ATOM     22  C   LIG A   1      -5.507  -4.388 130.309  0.00  0.00    +0.044 C 
ATOM     23  C   LIG A   1      -5.188  -3.021 129.760  0.00  0.00    +0.162 C 
ATOM     24  O   LIG A   1      -4.820  -2.911 128.593  0.00  0.00    -0.292 OA
ENDROOT
BRANCH  11  25
ATOM     25  C   LIG A   1      -9.574   4.040 131.341  0.00  0.00    -0.003 A 
ATOM     26  C   LIG A   1      -9.960   5.160 130.624  0.00  0.00    +0.199 A 
ATOM     27  O   LIG A   1      -9.977   6.266 131.408  0.00  0.00    -0.471 OA
ATOM     28  C   LIG A   1      -9.601   5.872 132.650  0.00  0.00    +0.195 A 
ATOM     29  C   LIG A   1      -9.342   4.523 132.664  0.00  0.00    +0.045 A 
ENDBRANCH  11  25
BRANCH   6  30
ATOM     30  C   LIG A   1      -7.521  -0.988 129.643  0.00  0.00    +0.126 C 
BRANCH  30  31
ATOM     31  C   LIG A   1      -7.683  -1.071 128.132  0.00  0.00    +0.307 C 
ATOM     32  O   LIG A   1      -7.440  -0.148 127.360  0.00  0.00    -0.251 OA
BRANCH  31  33
ATOM     33  O   LIG A   1      -8.097  -2.326 127.784  0.00  0.00    -0.468 OA
ATOM     34  C   LIG A   1      -7.817  -2.694 126.427  0.00  0.00    +0.280 C 
ENDBRANCH  31  33
ENDBRANCH  30  31
ENDBRANCH   6  30
TORSDOF 4
ENDMDL
