MODEL 1
REMARK VINA RESULT:      -6.5      0.000      0.000
REMARK  Name = NuBBE_1948
REMARK  6 active torsions:
REMARK  status: ('A' for Active; 'I' for Inactive)
REMARK    1  A    between atoms: O_1  and  C_2
REMARK    2  A    between atoms: C_5  and  C_7
REMARK    3  A    between atoms: C_7  and  C_8
REMARK    4  A    between atoms: C_7  and  C_9
REMARK    5  A    between atoms: C_12  and  C_14
REMARK    6  A    between atoms: C_16  and  C_19
REMARK                            x       y       z     vdW  Elec       q    Type
REMARK                         _______ _______ _______ _____ _____    ______ ____
ROOT
ATOM      1  C   LIG A   1      -7.704  -1.755 126.309  0.00  0.00    +0.075 C 
ATOM      2  C   LIG A   1      -7.065  -2.282 124.965  0.00  0.00    +0.047 C 
ATOM      3  C   LIG A   1      -5.502  -2.270 124.986  0.00  0.00    +0.001 C 
ATOM      4  C   LIG A   1      -5.014  -0.863 125.417  0.00  0.00    +0.005 C 
ATOM      5  C   LIG A   1      -5.666  -0.319 126.682  0.00  0.00    +0.006 C 
ATOM      6  C   LIG A   1      -7.197  -0.320 126.592  0.00  0.00    +0.018 C 
ATOM      7  C   LIG A   1      -7.768   0.310 127.868  0.00  0.00    +0.010 C 
ATOM      8  C   LIG A   1      -7.684  -3.661 124.681  0.00  0.00    -0.021 C 
ATOM      9  C   LIG A   1      -9.027  -3.644 124.551  0.00  0.00    -0.076 C 
ATOM     10  C   LIG A   1      -9.781  -3.200 125.782  0.00  0.00    +0.033 C 
ATOM     11  C   LIG A   1      -9.258  -1.825 126.237  0.00  0.00    +0.040 C 
ATOM     12  C   LIG A   1      -9.674  -3.318 123.235  0.00  0.00    +0.038 C 
ENDROOT
BRANCH   3  13
ATOM     13  C   LIG A   1      -4.831  -2.654 123.613  0.00  0.00    -0.013 C 
ATOM     14  C   LIG A   1      -4.455  -4.145 123.549  0.00  0.00    +0.007 C 
ATOM     15  C   LIG A   1      -5.690  -2.348 122.380  0.00  0.00    +0.007 C 
ENDBRANCH   3  13
BRANCH   1  16
ATOM     16  O   LIG A   1      -7.272  -2.609 127.385  0.00  0.00    -0.388 OA
ATOM     17  H   LIG A   1      -6.974  -2.048 128.121  0.00  0.00    +0.210 HD
ENDBRANCH   1  16
TORSDOF 2
ENDMDL
MODEL 2
REMARK VINA RESULT:      -6.5      2.039      4.060
REMARK  Name = NuBBE_1948
REMARK  6 active torsions:
REMARK  status: ('A' for Active; 'I' for Inactive)
REMARK    1  A    between atoms: O_1  and  C_2
REMARK    2  A    between atoms: C_5  and  C_7
REMARK    3  A    between atoms: C_7  and  C_8
REMARK    4  A    between atoms: C_7  and  C_9
REMARK    5  A    between atoms: C_12  and  C_14
REMARK    6  A    between atoms: C_16  and  C_19
REMARK                            x       y       z     vdW  Elec       q    Type
REMARK                         _______ _______ _______ _____ _____    ______ ____
ROOT
ATOM      1  C   LIG A   1      -7.570  -0.602 124.485  0.00  0.00    +0.075 C 
ATOM      2  C   LIG A   1      -7.279  -1.782 125.493  0.00  0.00    +0.047 C 
ATOM      3  C   LIG A   1      -8.247  -1.788 126.721  0.00  0.00    +0.001 C 
ATOM      4  C   LIG A   1      -8.249  -0.380 127.369  0.00  0.00    +0.005 C 
ATOM      5  C   LIG A   1      -8.471   0.772 126.397  0.00  0.00    +0.006 C 
ATOM      6  C   LIG A   1      -7.472   0.750 125.233  0.00  0.00    +0.018 C 
ATOM      7  C   LIG A   1      -7.715   1.979 124.349  0.00  0.00    +0.010 C 
ATOM      8  C   LIG A   1      -7.284  -3.085 124.676  0.00  0.00    -0.021 C 
ATOM      9  C   LIG A   1      -6.367  -3.117 123.687  0.00  0.00    -0.076 C 
ATOM     10  C   LIG A   1      -6.545  -2.066 122.618  0.00  0.00    +0.033 C 
ATOM     11  C   LIG A   1      -6.598  -0.672 123.270  0.00  0.00    +0.040 C 
ATOM     12  C   LIG A   1      -4.950  -3.541 123.957  0.00  0.00    +0.038 C 
ENDROOT
BRANCH   3  13
ATOM     13  C   LIG A   1      -7.897  -2.864 127.817  0.00  0.00    -0.013 C 
ATOM     14  C   LIG A   1      -7.765  -2.241 129.219  0.00  0.00    +0.007 C 
ATOM     15  C   LIG A   1      -8.907  -4.013 127.924  0.00  0.00    +0.007 C 
ENDBRANCH   3  13
BRANCH   1  16
ATOM     16  O   LIG A   1      -8.913  -0.748 123.986  0.00  0.00    -0.388 OA
ATOM     17  H   LIG A   1      -9.313   0.135 123.920  0.00  0.00    +0.210 HD
ENDBRANCH   1  16
TORSDOF 2
ENDMDL
MODEL 3
REMARK VINA RESULT:      -6.3      2.186      4.075
REMARK  Name = NuBBE_1948
REMARK  6 active torsions:
REMARK  status: ('A' for Active; 'I' for Inactive)
REMARK    1  A    between atoms: O_1  and  C_2
REMARK    2  A    between atoms: C_5  and  C_7
REMARK    3  A    between atoms: C_7  and  C_8
REMARK    4  A    between atoms: C_7  and  C_9
REMARK    5  A    between atoms: C_12  and  C_14
REMARK    6  A    between atoms: C_16  and  C_19
REMARK                            x       y       z     vdW  Elec       q    Type
REMARK                         _______ _______ _______ _____ _____    ______ ____
ROOT
ATOM      1  C   LIG A   1      -8.667  -2.230 125.553  0.00  0.00    +0.075 C 
ATOM      2  C   LIG A   1      -7.601  -1.229 126.151  0.00  0.00    +0.047 C 
ATOM      3  C   LIG A   1      -7.604   0.163 125.439  0.00  0.00    +0.001 C 
ATOM      4  C   LIG A   1      -7.489  -0.053 123.908  0.00  0.00    +0.005 C 
ATOM      5  C   LIG A   1      -8.475  -1.060 123.328  0.00  0.00    +0.006 C 
ATOM      6  C   LIG A   1      -8.404  -2.417 124.038  0.00  0.00    +0.018 C 
ATOM      7  C   LIG A   1      -9.367  -3.389 123.347  0.00  0.00    +0.010 C 
ATOM      8  C   LIG A   1      -7.844  -1.166 127.668  0.00  0.00    -0.021 C 
ATOM      9  C   LIG A   1      -7.728  -2.356 128.294  0.00  0.00    -0.076 C 
ATOM     10  C   LIG A   1      -8.718  -3.407 127.854  0.00  0.00    +0.033 C 
ATOM     11  C   LIG A   1      -8.637  -3.582 126.325  0.00  0.00    +0.040 C 
ATOM     12  C   LIG A   1      -6.388  -2.867 128.743  0.00  0.00    +0.038 C 
ENDROOT
BRANCH   3  13
ATOM     13  C   LIG A   1      -6.460   1.136 125.913  0.00  0.00    -0.013 C 
ATOM     14  C   LIG A   1      -5.106   0.417 126.049  0.00  0.00    +0.007 C 
ATOM     15  C   LIG A   1      -6.241   2.349 125.000  0.00  0.00    +0.007 C 
ENDBRANCH   3  13
BRANCH   1  16
ATOM     16  O   LIG A   1      -9.976  -1.654 125.718  0.00  0.00    -0.388 OA
ATOM     17  H   LIG A   1     -10.069  -0.919 125.089  0.00  0.00    +0.210 HD
ENDBRANCH   1  16
TORSDOF 2
ENDMDL
MODEL 4
REMARK VINA RESULT:      -6.1      2.448      4.170
REMARK  Name = NuBBE_1948
REMARK  6 active torsions:
REMARK  status: ('A' for Active; 'I' for Inactive)
REMARK    1  A    between atoms: O_1  and  C_2
REMARK    2  A    between atoms: C_5  and  C_7
REMARK    3  A    between atoms: C_7  and  C_8
REMARK    4  A    between atoms: C_7  and  C_9
REMARK    5  A    between atoms: C_12  and  C_14
REMARK    6  A    between atoms: C_16  and  C_19
REMARK                            x       y       z     vdW  Elec       q    Type
REMARK                         _______ _______ _______ _____ _____    ______ ____
ROOT
ATOM      1  C   LIG A   1      -8.500  -0.703 124.020  0.00  0.00    +0.075 C 
ATOM      2  C   LIG A   1      -7.070  -0.479 124.650  0.00  0.00    +0.047 C 
ATOM      3  C   LIG A   1      -6.998   0.784 125.569  0.00  0.00    +0.001 C 
ATOM      4  C   LIG A   1      -7.553   2.006 124.792  0.00  0.00    +0.005 C 
ATOM      5  C   LIG A   1      -8.907   1.782 124.131  0.00  0.00    +0.006 C 
ATOM      6  C   LIG A   1      -8.910   0.554 123.214  0.00  0.00    +0.018 C 
ATOM      7  C   LIG A   1     -10.280   0.447 122.534  0.00  0.00    +0.010 C 
ATOM      8  C   LIG A   1      -6.672  -1.791 125.345  0.00  0.00    -0.021 C 
ATOM      9  C   LIG A   1      -6.626  -2.858 124.520  0.00  0.00    -0.076 C 
ATOM     10  C   LIG A   1      -7.941  -3.222 123.874  0.00  0.00    +0.033 C 
ATOM     11  C   LIG A   1      -8.515  -1.991 123.146  0.00  0.00    +0.040 C 
ATOM     12  C   LIG A   1      -5.395  -3.160 123.712  0.00  0.00    +0.038 C 
ENDROOT
BRANCH   3  13
ATOM     13  C   LIG A   1      -5.553   1.119 126.099  0.00  0.00    -0.013 C 
ATOM     14  C   LIG A   1      -5.149   2.574 125.801  0.00  0.00    +0.007 C 
ATOM     15  C   LIG A   1      -5.362   0.894 127.605  0.00  0.00    +0.007 C 
ENDBRANCH   3  13
BRANCH   1  16
ATOM     16  O   LIG A   1      -9.447  -0.883 125.091  0.00  0.00    -0.388 OA
ATOM     17  H   LIG A   1     -10.285  -1.193 124.710  0.00  0.00    +0.210 HD
ENDBRANCH   1  16
TORSDOF 2
ENDMDL
MODEL 5
REMARK VINA RESULT:      -6.1      2.111      4.865
REMARK  Name = NuBBE_1948
REMARK  6 active torsions:
REMARK  status: ('A' for Active; 'I' for Inactive)
REMARK    1  A    between atoms: O_1  and  C_2
REMARK    2  A    between atoms: C_5  and  C_7
REMARK    3  A    between atoms: C_7  and  C_8
REMARK    4  A    between atoms: C_7  and  C_9
REMARK    5  A    between atoms: C_12  and  C_14
REMARK    6  A    between atoms: C_16  and  C_19
REMARK                            x       y       z     vdW  Elec       q    Type
REMARK                         _______ _______ _______ _____ _____    ______ ____
ROOT
ATOM      1  C   LIG A   1      -7.649  -1.109 124.897  0.00  0.00    +0.075 C 
ATOM      2  C   LIG A   1      -8.036  -1.333 126.412  0.00  0.00    +0.047 C 
ATOM      3  C   LIG A   1      -7.859  -2.815 126.875  0.00  0.00    +0.001 C 
ATOM      4  C   LIG A   1      -8.602  -3.747 125.882  0.00  0.00    +0.005 C 
ATOM      5  C   LIG A   1      -8.280  -3.501 124.413  0.00  0.00    +0.006 C 
ATOM      6  C   LIG A   1      -8.506  -2.041 124.004  0.00  0.00    +0.018 C 
ATOM      7  C   LIG A   1      -8.235  -1.898 122.502  0.00  0.00    +0.010 C 
ATOM      8  C   LIG A   1      -7.236  -0.312 127.237  0.00  0.00    -0.021 C 
ATOM      9  C   LIG A   1      -7.479   0.974 126.907  0.00  0.00    -0.076 C 
ATOM     10  C   LIG A   1      -7.115   1.349 125.491  0.00  0.00    +0.033 C 
ATOM     11  C   LIG A   1      -7.814   0.390 124.509  0.00  0.00    +0.040 C 
ATOM     12  C   LIG A   1      -8.640   1.720 127.503  0.00  0.00    +0.038 C 
ENDROOT
BRANCH   3  13
ATOM     13  C   LIG A   1      -8.369  -3.104 128.337  0.00  0.00    -0.013 C 
ATOM     14  C   LIG A   1      -9.417  -4.231 128.373  0.00  0.00    +0.007 C 
ATOM     15  C   LIG A   1      -7.264  -3.478 129.332  0.00  0.00    +0.007 C 
ENDBRANCH   3  13
BRANCH   1  16
ATOM     16  O   LIG A   1      -6.264  -1.463 124.723  0.00  0.00    -0.388 OA
ATOM     17  H   LIG A   1      -5.913  -0.961 123.969  0.00  0.00    +0.210 HD
ENDBRANCH   1  16
TORSDOF 2
ENDMDL
MODEL 6
REMARK VINA RESULT:      -6.0      2.131      2.983
REMARK  Name = NuBBE_1948
REMARK  6 active torsions:
REMARK  status: ('A' for Active; 'I' for Inactive)
REMARK    1  A    between atoms: O_1  and  C_2
REMARK    2  A    between atoms: C_5  and  C_7
REMARK    3  A    between atoms: C_7  and  C_8
REMARK    4  A    between atoms: C_7  and  C_9
REMARK    5  A    between atoms: C_12  and  C_14
REMARK    6  A    between atoms: C_16  and  C_19
REMARK                            x       y       z     vdW  Elec       q    Type
REMARK                         _______ _______ _______ _____ _____    ______ ____
ROOT
ATOM      1  C   LIG A   1      -7.498  -1.784 126.169  0.00  0.00    +0.075 C 
ATOM      2  C   LIG A   1      -7.824  -1.041 124.814  0.00  0.00    +0.047 C 
ATOM      3  C   LIG A   1      -7.058   0.313 124.660  0.00  0.00    +0.001 C 
ATOM      4  C   LIG A   1      -7.288   1.171 125.931  0.00  0.00    +0.005 C 
ATOM      5  C   LIG A   1      -7.032   0.446 127.247  0.00  0.00    +0.006 C 
ATOM      6  C   LIG A   1      -7.836  -0.854 127.360  0.00  0.00    +0.018 C 
ATOM      7  C   LIG A   1      -7.580  -1.477 128.737  0.00  0.00    +0.010 C 
ATOM      8  C   LIG A   1      -7.571  -2.045 123.677  0.00  0.00    -0.021 C 
ATOM      9  C   LIG A   1      -8.321  -3.165 123.755  0.00  0.00    -0.076 C 
ATOM     10  C   LIG A   1      -8.084  -4.006 124.985  0.00  0.00    +0.033 C 
ATOM     11  C   LIG A   1      -8.264  -3.138 126.245  0.00  0.00    +0.040 C 
ATOM     12  C   LIG A   1      -9.715  -3.204 123.194  0.00  0.00    +0.038 C 
ENDROOT
BRANCH   3  13
ATOM     13  C   LIG A   1      -7.466   1.149 123.389  0.00  0.00    -0.013 C 
ATOM     14  C   LIG A   1      -8.982   1.407 123.327  0.00  0.00    +0.007 C 
ATOM     15  C   LIG A   1      -6.767   2.509 123.273  0.00  0.00    +0.007 C 
ENDBRANCH   3  13
BRANCH   1  16
ATOM     16  O   LIG A   1      -6.087  -2.071 126.203  0.00  0.00    -0.388 OA
ATOM     17  H   LIG A   1      -5.708  -1.849 125.336  0.00  0.00    +0.210 HD
ENDBRANCH   1  16
TORSDOF 2
ENDMDL
MODEL 7
REMARK VINA RESULT:      -6.0      2.461      4.089
REMARK  Name = NuBBE_1948
REMARK  6 active torsions:
REMARK  status: ('A' for Active; 'I' for Inactive)
REMARK    1  A    between atoms: O_1  and  C_2
REMARK    2  A    between atoms: C_5  and  C_7
REMARK    3  A    between atoms: C_7  and  C_8
REMARK    4  A    between atoms: C_7  and  C_9
REMARK    5  A    between atoms: C_12  and  C_14
REMARK    6  A    between atoms: C_16  and  C_19
REMARK                            x       y       z     vdW  Elec       q    Type
REMARK                         _______ _______ _______ _____ _____    ______ ____
ROOT
ATOM      1  C   LIG A   1      -7.278   1.026 125.857  0.00  0.00    +0.075 C 
ATOM      2  C   LIG A   1      -8.260  -0.174 125.562  0.00  0.00    +0.047 C 
ATOM      3  C   LIG A   1      -8.157  -1.322 126.618  0.00  0.00    +0.001 C 
ATOM      4  C   LIG A   1      -6.670  -1.736 126.769  0.00  0.00    +0.005 C 
ATOM      5  C   LIG A   1      -5.704  -0.580 126.997  0.00  0.00    +0.006 C 
ATOM      6  C   LIG A   1      -5.823   0.498 125.914  0.00  0.00    +0.018 C 
ATOM      7  C   LIG A   1      -4.769   1.581 126.175  0.00  0.00    +0.010 C 
ATOM      8  C   LIG A   1      -9.669   0.423 125.411  0.00  0.00    -0.021 C 
ATOM      9  C   LIG A   1      -9.778   1.333 124.421  0.00  0.00    -0.076 C 
ATOM     10  C   LIG A   1      -8.923   2.566 124.591  0.00  0.00    +0.033 C 
ATOM     11  C   LIG A   1      -7.453   2.149 124.792  0.00  0.00    +0.040 C 
ATOM     12  C   LIG A   1     -10.037   0.908 123.003  0.00  0.00    +0.038 C 
ENDROOT
BRANCH   3  13
ATOM     13  C   LIG A   1      -9.018  -2.596 126.277  0.00  0.00    -0.013 C 
ATOM     14  C   LIG A   1      -8.626  -3.216 124.924  0.00  0.00    +0.007 C 
ATOM     15  C   LIG A   1      -8.943  -3.712 127.327  0.00  0.00    +0.007 C 
ENDBRANCH   3  13
BRANCH   1  16
ATOM     16  O   LIG A   1      -7.609   1.581 127.144  0.00  0.00    -0.388 OA
ATOM     17  H   LIG A   1      -7.390   0.924 127.826  0.00  0.00    +0.210 HD
ENDBRANCH   1  16
TORSDOF 2
ENDMDL
MODEL 8
REMARK VINA RESULT:      -6.0      2.128      4.382
REMARK  Name = NuBBE_1948
REMARK  6 active torsions:
REMARK  status: ('A' for Active; 'I' for Inactive)
REMARK    1  A    between atoms: O_1  and  C_2
REMARK    2  A    between atoms: C_5  and  C_7
REMARK    3  A    between atoms: C_7  and  C_8
REMARK    4  A    between atoms: C_7  and  C_9
REMARK    5  A    between atoms: C_12  and  C_14
REMARK    6  A    between atoms: C_16  and  C_19
REMARK                            x       y       z     vdW  Elec       q    Type
REMARK                         _______ _______ _______ _____ _____    ______ ____
ROOT
ATOM      1  C   LIG A   1      -6.638  -2.293 125.131  0.00  0.00    +0.075 C 
ATOM      2  C   LIG A   1      -7.565  -1.015 125.122  0.00  0.00    +0.047 C 
ATOM      3  C   LIG A   1      -8.329  -0.823 123.772  0.00  0.00    +0.001 C 
ATOM      4  C   LIG A   1      -7.311  -0.882 122.604  0.00  0.00    +0.005 C 
ATOM      5  C   LIG A   1      -6.371  -2.082 122.634  0.00  0.00    +0.006 C 
ATOM      6  C   LIG A   1      -5.622  -2.200 123.966  0.00  0.00    +0.018 C 
ATOM      7  C   LIG A   1      -4.648  -3.380 123.884  0.00  0.00    +0.010 C 
ATOM      8  C   LIG A   1      -8.477  -1.110 126.357  0.00  0.00    -0.021 C 
ATOM      9  C   LIG A   1      -7.810  -1.161 127.530  0.00  0.00    -0.076 C 
ATOM     10  C   LIG A   1      -6.911  -2.361 127.701  0.00  0.00    +0.033 C 
ATOM     11  C   LIG A   1      -5.934  -2.446 126.512  0.00  0.00    +0.040 C 
ATOM     12  C   LIG A   1      -7.362   0.096 128.221  0.00  0.00    +0.038 C 
ENDROOT
BRANCH   3  13
ATOM     13  C   LIG A   1      -9.152   0.516 123.676  0.00  0.00    -0.013 C 
ATOM     14  C   LIG A   1      -8.242   1.743 123.485  0.00  0.00    +0.007 C 
ATOM     15  C   LIG A   1     -10.192   0.542 122.549  0.00  0.00    +0.007 C 
ENDBRANCH   3  13
BRANCH   1  16
ATOM     16  O   LIG A   1      -7.462  -3.456 124.923  0.00  0.00    -0.388 OA
ATOM     17  H   LIG A   1      -8.341  -3.279 125.297  0.00  0.00    +0.210 HD
ENDBRANCH   1  16
TORSDOF 2
ENDMDL
MODEL 9
REMARK VINA RESULT:      -5.9      2.160      3.740
REMARK  Name = NuBBE_1948
REMARK  6 active torsions:
REMARK  status: ('A' for Active; 'I' for Inactive)
REMARK    1  A    between atoms: O_1  and  C_2
REMARK    2  A    between atoms: C_5  and  C_7
REMARK    3  A    between atoms: C_7  and  C_8
REMARK    4  A    between atoms: C_7  and  C_9
REMARK    5  A    between atoms: C_12  and  C_14
REMARK    6  A    between atoms: C_16  and  C_19
REMARK                            x       y       z     vdW  Elec       q    Type
REMARK                         _______ _______ _______ _____ _____    ______ ____
ROOT
ATOM      1  C   LIG A   1      -8.261  -2.365 125.617  0.00  0.00    +0.075 C 
ATOM      2  C   LIG A   1      -8.150  -0.835 125.245  0.00  0.00    +0.047 C 
ATOM      3  C   LIG A   1      -7.143  -0.057 126.154  0.00  0.00    +0.001 C 
ATOM      4  C   LIG A   1      -7.490  -0.329 127.640  0.00  0.00    +0.005 C 
ATOM      5  C   LIG A   1      -7.657  -1.801 127.999  0.00  0.00    +0.006 C 
ATOM      6  C   LIG A   1      -8.682  -2.505 127.101  0.00  0.00    +0.018 C 
ATOM      7  C   LIG A   1      -8.844  -3.953 127.576  0.00  0.00    +0.010 C 
ATOM      8  C   LIG A   1      -7.836  -0.758 123.742  0.00  0.00    -0.021 C 
ATOM      9  C   LIG A   1      -8.769  -1.334 122.955  0.00  0.00    -0.076 C 
ATOM     10  C   LIG A   1      -8.956  -2.817 123.169  0.00  0.00    +0.033 C 
ATOM     11  C   LIG A   1      -9.250  -3.089 124.657  0.00  0.00    +0.040 C 
ATOM     12  C   LIG A   1      -9.992  -0.576 122.523  0.00  0.00    +0.038 C 
ENDROOT
BRANCH   3  13
ATOM     13  C   LIG A   1      -7.112   1.498 125.905  0.00  0.00    -0.013 C 
ATOM     14  C   LIG A   1      -7.802   2.280 127.037  0.00  0.00    +0.007 C 
ATOM     15  C   LIG A   1      -5.705   2.086 125.738  0.00  0.00    +0.007 C 
ENDBRANCH   3  13
BRANCH   1  16
ATOM     16  O   LIG A   1      -6.964  -2.970 125.455  0.00  0.00    -0.388 OA
ATOM     17  H   LIG A   1      -7.084  -3.927 125.343  0.00  0.00    +0.210 HD
ENDBRANCH   1  16
TORSDOF 2
ENDMDL
