MODEL 1
REMARK VINA RESULT:      -7.1      0.000      0.000
REMARK  Name = NuBBE_2148
REMARK  11 active torsions:
REMARK  status: ('A' for Active; 'I' for Inactive)
REMARK    1  A    between atoms: C_1  and  O_2
REMARK    2  A    between atoms: O_2  and  C_3
REMARK    3  A    between atoms: C_10  and  C_11
REMARK    4  A    between atoms: C_13  and  C_15
REMARK    5  A    between atoms: C_16  and  C_17
REMARK    6  A    between atoms: C_17  and  C_18
REMARK    7  A    between atoms: C_23  and  O_25
REMARK    8  A    between atoms: O_25  and  C_26
REMARK    9  A    between atoms: C_27  and  O_29
REMARK   10  A    between atoms: C_30  and  O_31
REMARK   11  A    between atoms: O_31  and  C_32
REMARK                            x       y       z     vdW  Elec       q    Type
REMARK                         _______ _______ _______ _____ _____    ______ ____
ROOT
ATOM      1  C   LIG A   1      -7.586   6.107 131.824  0.00  0.00    +0.065 C 
ATOM      2  C   LIG A   1      -7.579   4.964 133.028  0.00  0.00    +0.010 C 
ATOM      3  C   LIG A   1      -6.693   5.287 134.237  0.00  0.00    +0.009 C 
ATOM      4  C   LIG A   1      -7.310   3.536 132.338  0.00  0.00    +0.041 C 
ATOM      5  C   LIG A   1      -7.644   4.175 131.089  0.00  0.00    +0.175 C 
ATOM      6  O   LIG A   1      -8.566   3.814 130.350  0.00  0.00    -0.294 OA
ATOM      7  C   LIG A   1      -5.932   2.979 131.758  0.00  0.00    +0.049 C 
ATOM      8  C   LIG A   1      -5.571   3.285 130.157  0.00  0.00    +0.150 C 
ATOM      9  C   LIG A   1      -6.162   4.704 129.600  0.00  0.00    +0.183 C 
ATOM     10  C   LIG A   1      -6.605   5.428 130.857  0.00  0.00    +0.162 C 
ENDROOT
BRANCH   1  18
ATOM     11  C   LIG A   1     -10.195   7.760 129.449  0.00  0.00    +0.166 A 
ATOM     12  C   LIG A   1     -11.367   7.478 130.124  0.00  0.00    +0.207 A 
ATOM     13  O   LIG A   1     -12.643   7.778 129.752  0.00  0.00    -0.449 OA
ATOM     14  C   LIG A   1     -13.399   7.285 130.870  0.00  0.00    +0.467 C 
ATOM     15  O   LIG A   1     -12.583   6.623 131.852  0.00  0.00    -0.453 OA
ATOM     16  C   LIG A   1     -11.341   6.805 131.321  0.00  0.00    +0.170 A 
ATOM     17  C   LIG A   1     -10.163   6.364 131.901  0.00  0.00    +0.053 A 
ATOM     18  C   LIG A   1      -8.936   6.592 131.248  0.00  0.00    -0.034 A 
ATOM     19  C   LIG A   1      -8.981   7.299 130.015  0.00  0.00    +0.053 A 
BRANCH  11  21
ATOM     20  C   LIG A   1     -10.643   7.778 127.120  0.00  0.00    +0.277 C 
ATOM     21  O   LIG A   1     -10.088   8.433 128.262  0.00  0.00    -0.491 OA
ENDBRANCH  11  21
ENDBRANCH   1  18
BRANCH   8  22
ATOM     22  O   LIG A   1      -5.990   2.220 129.299  0.00  0.00    -0.377 OA
ATOM     23  C   LIG A   1      -5.644   0.923 129.773  0.00  0.00    +0.194 C 
ENDBRANCH   8  22
BRANCH   9  24
ATOM     24  O   LIG A   1      -7.079   4.688 128.511  0.00  0.00    -0.386 OA
ATOM     25  H   LIG A   1      -7.002   5.544 128.040  0.00  0.00    +0.210 HD
ENDBRANCH   9  24
BRANCH  10  26
ATOM     26  O   LIG A   1      -5.341   5.604 131.574  0.00  0.00    -0.366 OA
ATOM     27  C   LIG A   1      -4.715   6.888 131.450  0.00  0.00    +0.195 C 
ENDBRANCH  10  26
BRANCH   4  28
ATOM     28  C   LIG A   1      -8.302   2.482 132.903  0.00  0.00    +0.041 C 
BRANCH  28  29
ATOM     29  C   LIG A   1      -8.198   1.051 132.439  0.00  0.00    -0.034 C 
ATOM     30  C   LIG A   1      -9.165   0.440 131.724  0.00  0.00    +0.004 C 
ENDBRANCH  28  29
ENDBRANCH   4  28
TORSDOF 7
ENDMDL
MODEL 2
REMARK VINA RESULT:      -6.9      1.637      3.928
REMARK  Name = NuBBE_2148
REMARK  11 active torsions:
REMARK  status: ('A' for Active; 'I' for Inactive)
REMARK    1  A    between atoms: C_1  and  O_2
REMARK    2  A    between atoms: O_2  and  C_3
REMARK    3  A    between atoms: C_10  and  C_11
REMARK    4  A    between atoms: C_13  and  C_15
REMARK    5  A    between atoms: C_16  and  C_17
REMARK    6  A    between atoms: C_17  and  C_18
REMARK    7  A    between atoms: C_23  and  O_25
REMARK    8  A    between atoms: O_25  and  C_26
REMARK    9  A    between atoms: C_27  and  O_29
REMARK   10  A    between atoms: C_30  and  O_31
REMARK   11  A    between atoms: O_31  and  C_32
REMARK                            x       y       z     vdW  Elec       q    Type
REMARK                         _______ _______ _______ _____ _____    ______ ____
ROOT
ATOM      1  C   LIG A   1      -8.537   4.275 130.625  0.00  0.00    +0.065 C 
ATOM      2  C   LIG A   1      -6.927   4.628 130.431  0.00  0.00    +0.010 C 
ATOM      3  C   LIG A   1      -6.150   3.677 129.513  0.00  0.00    +0.009 C 
ATOM      4  C   LIG A   1      -6.298   4.836 131.898  0.00  0.00    +0.041 C 
ATOM      5  C   LIG A   1      -7.656   4.956 132.367  0.00  0.00    +0.175 C 
ATOM      6  O   LIG A   1      -8.104   5.949 132.948  0.00  0.00    -0.294 OA
ATOM      7  C   LIG A   1      -5.955   3.714 132.978  0.00  0.00    +0.049 C 
ATOM      8  C   LIG A   1      -7.141   3.285 134.071  0.00  0.00    +0.150 C 
ATOM      9  C   LIG A   1      -8.662   3.392 133.479  0.00  0.00    +0.183 C 
ATOM     10  C   LIG A   1      -8.457   3.570 131.987  0.00  0.00    +0.162 C 
ENDROOT
BRANCH   1  18
ATOM     11  C   LIG A   1     -10.382   7.417 129.245  0.00  0.00    +0.166 A 
ATOM     12  C   LIG A   1     -11.474   7.462 130.091  0.00  0.00    +0.207 A 
ATOM     13  O   LIG A   1     -12.515   8.341 130.072  0.00  0.00    -0.449 OA
ATOM     14  C   LIG A   1     -13.281   7.913 131.209  0.00  0.00    +0.467 C 
ATOM     15  O   LIG A   1     -12.743   6.739 131.841  0.00  0.00    -0.453 OA
ATOM     16  C   LIG A   1     -11.617   6.539 131.098  0.00  0.00    +0.170 A 
ATOM     17  C   LIG A   1     -10.703   5.520 131.311  0.00  0.00    +0.053 A 
ATOM     18  C   LIG A   1      -9.584   5.401 130.464  0.00  0.00    -0.034 A 
ATOM     19  C   LIG A   1      -9.446   6.370 129.432  0.00  0.00    +0.053 A 
BRANCH  11  21
ATOM     20  C   LIG A   1     -10.834   8.048 127.004  0.00  0.00    +0.277 C 
ATOM     21  O   LIG A   1     -10.119   8.283 128.218  0.00  0.00    -0.491 OA
ENDBRANCH  11  21
ENDBRANCH   1  18
BRANCH   8  22
ATOM     22  O   LIG A   1      -7.046   4.029 135.288  0.00  0.00    -0.377 OA
ATOM     23  C   LIG A   1      -5.729   4.474 135.594  0.00  0.00    +0.194 C 
ENDBRANCH   8  22
BRANCH   9  24
ATOM     24  O   LIG A   1      -9.586   4.273 134.110  0.00  0.00    -0.386 OA
ATOM     25  H   LIG A   1      -9.665   4.003 135.050  0.00  0.00    +0.210 HD
ENDBRANCH   9  24
BRANCH  10  26
ATOM     26  O   LIG A   1      -7.809   2.312 131.612  0.00  0.00    -0.366 OA
ATOM     27  C   LIG A   1      -8.659   1.305 131.047  0.00  0.00    +0.195 C 
ENDBRANCH  10  26
BRANCH   4  28
ATOM     28  C   LIG A   1      -5.409   6.111 131.913  0.00  0.00    +0.041 C 
BRANCH  28  29
ATOM     29  C   LIG A   1      -5.556   7.124 130.805  0.00  0.00    -0.034 C 
ATOM     30  C   LIG A   1      -4.505   7.752 130.242  0.00  0.00    +0.004 C 
ENDBRANCH  28  29
ENDBRANCH   4  28
TORSDOF 7
ENDMDL
MODEL 3
REMARK VINA RESULT:      -6.9      2.366      4.455
REMARK  Name = NuBBE_2148
REMARK  11 active torsions:
REMARK  status: ('A' for Active; 'I' for Inactive)
REMARK    1  A    between atoms: C_1  and  O_2
REMARK    2  A    between atoms: O_2  and  C_3
REMARK    3  A    between atoms: C_10  and  C_11
REMARK    4  A    between atoms: C_13  and  C_15
REMARK    5  A    between atoms: C_16  and  C_17
REMARK    6  A    between atoms: C_17  and  C_18
REMARK    7  A    between atoms: C_23  and  O_25
REMARK    8  A    between atoms: O_25  and  C_26
REMARK    9  A    between atoms: C_27  and  O_29
REMARK   10  A    between atoms: C_30  and  O_31
REMARK   11  A    between atoms: O_31  and  C_32
REMARK                            x       y       z     vdW  Elec       q    Type
REMARK                         _______ _______ _______ _____ _____    ______ ____
ROOT
ATOM      1  C   LIG A   1      -5.819   4.553 131.716  0.00  0.00    +0.065 C 
ATOM      2  C   LIG A   1      -4.804   3.445 131.010  0.00  0.00    +0.010 C 
ATOM      3  C   LIG A   1      -3.978   2.595 131.982  0.00  0.00    +0.009 C 
ATOM      4  C   LIG A   1      -3.957   4.217 129.880  0.00  0.00    +0.041 C 
ATOM      5  C   LIG A   1      -4.939   5.268 129.987  0.00  0.00    +0.175 C 
ATOM      6  O   LIG A   1      -5.635   5.664 129.048  0.00  0.00    -0.294 OA
ATOM      7  C   LIG A   1      -2.748   5.235 130.095  0.00  0.00    +0.049 C 
ATOM      8  C   LIG A   1      -3.105   6.858 130.257  0.00  0.00    +0.150 C 
ATOM      9  C   LIG A   1      -4.544   7.154 130.977  0.00  0.00    +0.183 C 
ATOM     10  C   LIG A   1      -4.949   5.807 131.541  0.00  0.00    +0.162 C 
ENDROOT
BRANCH   1  18
ATOM     11  C   LIG A   1      -9.186   3.650 129.975  0.00  0.00    +0.166 A 
ATOM     12  C   LIG A   1      -9.978   4.701 130.397  0.00  0.00    +0.207 A 
ATOM     13  O   LIG A   1     -11.298   4.914 130.135  0.00  0.00    -0.449 OA
ATOM     14  C   LIG A   1     -11.528   6.173 130.788  0.00  0.00    +0.467 C 
ATOM     15  O   LIG A   1     -10.377   6.654 131.503  0.00  0.00    -0.453 OA
ATOM     16  C   LIG A   1      -9.460   5.694 131.191  0.00  0.00    +0.170 A 
ATOM     17  C   LIG A   1      -8.144   5.692 131.622  0.00  0.00    +0.053 A 
ATOM     18  C   LIG A   1      -7.291   4.634 131.252  0.00  0.00    -0.034 A 
ATOM     19  C   LIG A   1      -7.841   3.619 130.422  0.00  0.00    +0.053 A 
BRANCH  11  21
ATOM     20  C   LIG A   1      -8.530   1.897 128.519  0.00  0.00    +0.277 C 
ATOM     21  O   LIG A   1      -9.578   2.613 129.174  0.00  0.00    -0.491 OA
ENDBRANCH  11  21
ENDBRANCH   1  18
BRANCH   8  22
ATOM     22  O   LIG A   1      -3.042   7.549 129.007  0.00  0.00    -0.377 OA
ATOM     23  C   LIG A   1      -2.227   6.910 128.031  0.00  0.00    +0.194 C 
ENDBRANCH   8  22
BRANCH   9  24
ATOM     24  O   LIG A   1      -5.539   7.875 130.256  0.00  0.00    -0.386 OA
ATOM     25  H   LIG A   1      -6.403   7.443 130.422  0.00  0.00    +0.210 HD
ENDBRANCH   9  24
BRANCH  10  26
ATOM     26  O   LIG A   1      -3.890   5.549 132.518  0.00  0.00    -0.366 OA
ATOM     27  C   LIG A   1      -4.167   5.933 133.871  0.00  0.00    +0.195 C 
ENDBRANCH  10  26
BRANCH   4  28
ATOM     28  C   LIG A   1      -3.933   3.375 128.573  0.00  0.00    +0.041 C 
BRANCH  28  29
ATOM     29  C   LIG A   1      -2.635   3.220 127.822  0.00  0.00    -0.034 C 
ATOM     30  C   LIG A   1      -2.517   3.469 126.503  0.00  0.00    +0.004 C 
ENDBRANCH  28  29
ENDBRANCH   4  28
TORSDOF 7
ENDMDL
MODEL 4
REMARK VINA RESULT:      -6.8      4.669      6.842
REMARK  Name = NuBBE_2148
REMARK  11 active torsions:
REMARK  status: ('A' for Active; 'I' for Inactive)
REMARK    1  A    between atoms: C_1  and  O_2
REMARK    2  A    between atoms: O_2  and  C_3
REMARK    3  A    between atoms: C_10  and  C_11
REMARK    4  A    between atoms: C_13  and  C_15
REMARK    5  A    between atoms: C_16  and  C_17
REMARK    6  A    between atoms: C_17  and  C_18
REMARK    7  A    between atoms: C_23  and  O_25
REMARK    8  A    between atoms: O_25  and  C_26
REMARK    9  A    between atoms: C_27  and  O_29
REMARK   10  A    between atoms: C_30  and  O_31
REMARK   11  A    between atoms: O_31  and  C_32
REMARK                            x       y       z     vdW  Elec       q    Type
REMARK                         _______ _______ _______ _____ _____    ______ ____
ROOT
ATOM      1  C   LIG A   1      -6.710   1.828 126.854  0.00  0.00    +0.065 C 
ATOM      2  C   LIG A   1      -6.591   0.255 126.338  0.00  0.00    +0.010 C 
ATOM      3  C   LIG A   1      -5.175  -0.221 125.997  0.00  0.00    +0.009 C 
ATOM      4  C   LIG A   1      -7.687   0.045 125.177  0.00  0.00    +0.041 C 
ATOM      5  C   LIG A   1      -8.292   1.266 125.648  0.00  0.00    +0.175 C 
ATOM      6  O   LIG A   1      -9.453   1.352 126.059  0.00  0.00    -0.294 OA
ATOM      7  C   LIG A   1      -7.628   0.576 123.675  0.00  0.00    +0.049 C 
ATOM      8  C   LIG A   1      -8.271   2.082 123.347  0.00  0.00    +0.150 C 
ATOM      9  C   LIG A   1      -8.137   3.146 124.582  0.00  0.00    +0.183 C 
ATOM     10  C   LIG A   1      -7.176   2.469 125.538  0.00  0.00    +0.162 C 
ENDROOT
BRANCH   1  18
ATOM     11  C   LIG A   1      -8.718   3.810 129.541  0.00  0.00    +0.166 A 
ATOM     12  C   LIG A   1      -9.032   2.793 130.424  0.00  0.00    +0.207 A 
ATOM     13  O   LIG A   1      -9.772   2.872 131.565  0.00  0.00    -0.449 OA
ATOM     14  C   LIG A   1      -9.695   1.525 132.058  0.00  0.00    +0.467 C 
ATOM     15  O   LIG A   1      -8.989   0.640 131.170  0.00  0.00    -0.453 OA
ATOM     16  C   LIG A   1      -8.598   1.511 130.196  0.00  0.00    +0.170 A 
ATOM     17  C   LIG A   1      -7.848   1.164 129.084  0.00  0.00    +0.053 A 
ATOM     18  C   LIG A   1      -7.520   2.147 128.131  0.00  0.00    -0.034 A 
ATOM     19  C   LIG A   1      -7.970   3.472 128.386  0.00  0.00    +0.053 A 
BRANCH  11  21
ATOM     20  C   LIG A   1      -8.338   5.889 130.617  0.00  0.00    +0.277 C 
ATOM     21  O   LIG A   1      -9.078   5.125 129.663  0.00  0.00    -0.491 OA
ENDBRANCH  11  21
ENDBRANCH   1  18
BRANCH   8  22
ATOM     22  O   LIG A   1      -9.635   2.004 122.925  0.00  0.00    -0.377 OA
ATOM     23  C   LIG A   1     -10.033   0.709 122.487  0.00  0.00    +0.194 C 
ENDBRANCH   8  22
BRANCH   9  24
ATOM     24  O   LIG A   1      -9.323   3.698 125.145  0.00  0.00    -0.386 OA
ATOM     25  H   LIG A   1      -9.947   3.882 124.412  0.00  0.00    +0.210 HD
ENDBRANCH   9  24
BRANCH  10  26
ATOM     26  O   LIG A   1      -5.949   2.396 124.743  0.00  0.00    -0.366 OA
ATOM     27  C   LIG A   1      -5.155   3.588 124.690  0.00  0.00    +0.195 C 
ENDBRANCH  10  26
BRANCH   4  28
ATOM     28  C   LIG A   1      -8.456  -1.285 125.415  0.00  0.00    +0.041 C 
BRANCH  28  29
ATOM     29  C   LIG A   1      -8.235  -2.441 124.471  0.00  0.00    -0.034 C 
ATOM     30  C   LIG A   1      -9.214  -2.955 123.701  0.00  0.00    +0.004 C 
ENDBRANCH  28  29
ENDBRANCH   4  28
TORSDOF 7
ENDMDL
MODEL 5
REMARK VINA RESULT:      -6.7      4.732      7.159
REMARK  Name = NuBBE_2148
REMARK  11 active torsions:
REMARK  status: ('A' for Active; 'I' for Inactive)
REMARK    1  A    between atoms: C_1  and  O_2
REMARK    2  A    between atoms: O_2  and  C_3
REMARK    3  A    between atoms: C_10  and  C_11
REMARK    4  A    between atoms: C_13  and  C_15
REMARK    5  A    between atoms: C_16  and  C_17
REMARK    6  A    between atoms: C_17  and  C_18
REMARK    7  A    between atoms: C_23  and  O_25
REMARK    8  A    between atoms: O_25  and  C_26
REMARK    9  A    between atoms: C_27  and  O_29
REMARK   10  A    between atoms: C_30  and  O_31
REMARK   11  A    between atoms: O_31  and  C_32
REMARK                            x       y       z     vdW  Elec       q    Type
REMARK                         _______ _______ _______ _____ _____    ______ ____
ROOT
ATOM      1  C   LIG A   1      -6.727   1.709 126.846  0.00  0.00    +0.065 C 
ATOM      2  C   LIG A   1      -6.616   0.156 126.272  0.00  0.00    +0.010 C 
ATOM      3  C   LIG A   1      -5.201  -0.319 125.924  0.00  0.00    +0.009 C 
ATOM      4  C   LIG A   1      -7.705  -0.003 125.097  0.00  0.00    +0.041 C 
ATOM      5  C   LIG A   1      -8.304   1.205 125.608  0.00  0.00    +0.175 C 
ATOM      6  O   LIG A   1      -9.468   1.284 126.014  0.00  0.00    -0.294 OA
ATOM      7  C   LIG A   1      -7.631   0.583 123.616  0.00  0.00    +0.049 C 
ATOM      8  C   LIG A   1      -8.260   2.105 123.339  0.00  0.00    +0.150 C 
ATOM      9  C   LIG A   1      -8.128   3.121 124.614  0.00  0.00    +0.183 C 
ATOM     10  C   LIG A   1      -7.178   2.402 125.552  0.00  0.00    +0.162 C 
ENDROOT
BRANCH   1  18
ATOM     11  C   LIG A   1      -8.552   1.149 130.242  0.00  0.00    +0.166 A 
ATOM     12  C   LIG A   1      -9.002   2.430 130.503  0.00  0.00    +0.207 A 
ATOM     13  O   LIG A   1      -9.688   2.872 131.593  0.00  0.00    -0.449 OA
ATOM     14  C   LIG A   1      -9.910   4.252 131.260  0.00  0.00    +0.467 C 
ATOM     15  O   LIG A   1      -9.284   4.640 130.025  0.00  0.00    -0.453 OA
ATOM     16  C   LIG A   1      -8.762   3.450 129.615  0.00  0.00    +0.170 A 
ATOM     17  C   LIG A   1      -8.056   3.262 128.438  0.00  0.00    +0.053 A 
ATOM     18  C   LIG A   1      -7.545   1.987 128.128  0.00  0.00    -0.034 A 
ATOM     19  C   LIG A   1      -7.810   0.940 129.053  0.00  0.00    +0.053 A 
BRANCH  11  21
ATOM     20  C   LIG A   1      -7.973  -1.106 130.693  0.00  0.00    +0.277 C 
ATOM     21  O   LIG A   1      -8.738   0.050 131.037  0.00  0.00    -0.491 OA
ENDBRANCH  11  21
ENDBRANCH   1  18
BRANCH   8  22
ATOM     22  O   LIG A   1      -9.621   2.053 122.905  0.00  0.00    -0.377 OA
ATOM     23  C   LIG A   1     -10.044   0.764 122.475  0.00  0.00    +0.194 C 
ENDBRANCH   8  22
BRANCH   9  24
ATOM     24  O   LIG A   1      -9.314   3.661 125.189  0.00  0.00    -0.386 OA
ATOM     25  H   LIG A   1      -9.561   3.098 125.952  0.00  0.00    +0.210 HD
ENDBRANCH   9  24
BRANCH  10  26
ATOM     26  O   LIG A   1      -5.946   2.349 124.763  0.00  0.00    -0.366 OA
ATOM     27  C   LIG A   1      -5.124   3.523 124.790  0.00  0.00    +0.195 C 
ENDBRANCH  10  26
BRANCH   4  28
ATOM     28  C   LIG A   1      -8.486  -1.335 125.279  0.00  0.00    +0.041 C 
BRANCH  28  29
ATOM     29  C   LIG A   1      -8.305  -2.438 124.266  0.00  0.00    -0.034 C 
ATOM     30  C   LIG A   1      -9.324  -3.203 123.827  0.00  0.00    +0.004 C 
ENDBRANCH  28  29
ENDBRANCH   4  28
TORSDOF 7
ENDMDL
MODEL 6
REMARK VINA RESULT:      -6.6      2.164      3.739
REMARK  Name = NuBBE_2148
REMARK  11 active torsions:
REMARK  status: ('A' for Active; 'I' for Inactive)
REMARK    1  A    between atoms: C_1  and  O_2
REMARK    2  A    between atoms: O_2  and  C_3
REMARK    3  A    between atoms: C_10  and  C_11
REMARK    4  A    between atoms: C_13  and  C_15
REMARK    5  A    between atoms: C_16  and  C_17
REMARK    6  A    between atoms: C_17  and  C_18
REMARK    7  A    between atoms: C_23  and  O_25
REMARK    8  A    between atoms: O_25  and  C_26
REMARK    9  A    between atoms: C_27  and  O_29
REMARK   10  A    between atoms: C_30  and  O_31
REMARK   11  A    between atoms: O_31  and  C_32
REMARK                            x       y       z     vdW  Elec       q    Type
REMARK                         _______ _______ _______ _____ _____    ______ ____
ROOT
ATOM      1  C   LIG A   1      -5.430   6.840 131.526  0.00  0.00    +0.065 C 
ATOM      2  C   LIG A   1      -4.385   6.126 132.600  0.00  0.00    +0.010 C 
ATOM      3  C   LIG A   1      -3.381   7.070 133.270  0.00  0.00    +0.009 C 
ATOM      4  C   LIG A   1      -3.744   4.843 131.869  0.00  0.00    +0.041 C 
ATOM      5  C   LIG A   1      -4.811   4.967 130.908  0.00  0.00    +0.175 C 
ATOM      6  O   LIG A   1      -5.639   4.081 130.672  0.00  0.00    -0.294 OA
ATOM      7  C   LIG A   1      -2.630   4.829 130.728  0.00  0.00    +0.049 C 
ATOM      8  C   LIG A   1      -3.132   4.886 129.137  0.00  0.00    +0.150 C 
ATOM      9  C   LIG A   1      -4.511   5.735 128.904  0.00  0.00    +0.183 C 
ATOM     10  C   LIG A   1      -4.716   6.458 130.221  0.00  0.00    +0.162 C 
ENDROOT
BRANCH   1  18
ATOM     11  C   LIG A   1      -8.820   5.395 132.790  0.00  0.00    +0.166 A 
ATOM     12  C   LIG A   1      -9.694   5.977 131.891  0.00  0.00    +0.207 A 
ATOM     13  O   LIG A   1     -11.052   5.872 131.854  0.00  0.00    -0.449 OA
ATOM     14  C   LIG A   1     -11.374   6.642 130.684  0.00  0.00    +0.467 C 
ATOM     15  O   LIG A   1     -10.224   7.268 130.089  0.00  0.00    -0.453 OA
ATOM     16  C   LIG A   1      -9.228   6.789 130.887  0.00  0.00    +0.170 A 
ATOM     17  C   LIG A   1      -7.883   7.078 130.727  0.00  0.00    +0.053 A 
ATOM     18  C   LIG A   1      -6.943   6.541 131.628  0.00  0.00    -0.034 A 
ATOM     19  C   LIG A   1      -7.442   5.695 132.656  0.00  0.00    +0.053 A 
BRANCH  11  21
ATOM     20  C   LIG A   1      -9.272   3.175 133.491  0.00  0.00    +0.277 C 
ATOM     21  O   LIG A   1      -9.158   4.560 133.820  0.00  0.00    -0.491 OA
ENDBRANCH  11  21
ENDBRANCH   1  18
BRANCH   8  22
ATOM     22  O   LIG A   1      -3.271   3.581 128.569  0.00  0.00    -0.377 OA
ATOM     23  C   LIG A   1      -2.479   3.368 127.406  0.00  0.00    +0.194 C 
ENDBRANCH   8  22
BRANCH   9  24
ATOM     24  O   LIG A   1      -5.644   5.070 128.353  0.00  0.00    -0.386 OA
ATOM     25  H   LIG A   1      -6.009   4.476 129.043  0.00  0.00    +0.210 HD
ENDBRANCH   9  24
BRANCH  10  26
ATOM     26  O   LIG A   1      -3.540   7.329 130.282  0.00  0.00    -0.366 OA
ATOM     27  C   LIG A   1      -3.736   8.688 129.871  0.00  0.00    +0.195 C 
ENDBRANCH  10  26
BRANCH   4  28
ATOM     28  C   LIG A   1      -3.769   3.622 132.830  0.00  0.00    +0.041 C 
BRANCH  28  29
ATOM     29  C   LIG A   1      -4.598   3.693 134.088  0.00  0.00    -0.034 C 
ATOM     30  C   LIG A   1      -5.652   2.886 134.318  0.00  0.00    +0.004 C 
ENDBRANCH  28  29
ENDBRANCH   4  28
TORSDOF 7
ENDMDL
MODEL 7
REMARK VINA RESULT:      -6.6      2.546      6.137
REMARK  Name = NuBBE_2148
REMARK  11 active torsions:
REMARK  status: ('A' for Active; 'I' for Inactive)
REMARK    1  A    between atoms: C_1  and  O_2
REMARK    2  A    between atoms: O_2  and  C_3
REMARK    3  A    between atoms: C_10  and  C_11
REMARK    4  A    between atoms: C_13  and  C_15
REMARK    5  A    between atoms: C_16  and  C_17
REMARK    6  A    between atoms: C_17  and  C_18
REMARK    7  A    between atoms: C_23  and  O_25
REMARK    8  A    between atoms: O_25  and  C_26
REMARK    9  A    between atoms: C_27  and  O_29
REMARK   10  A    between atoms: C_30  and  O_31
REMARK   11  A    between atoms: O_31  and  C_32
REMARK                            x       y       z     vdW  Elec       q    Type
REMARK                         _______ _______ _______ _____ _____    ______ ____
ROOT
ATOM      1  C   LIG A   1      -7.413   3.463 130.397  0.00  0.00    +0.065 C 
ATOM      2  C   LIG A   1      -6.491   4.507 131.302  0.00  0.00    +0.010 C 
ATOM      3  C   LIG A   1      -5.865   3.906 132.565  0.00  0.00    +0.009 C 
ATOM      4  C   LIG A   1      -7.359   5.843 131.531  0.00  0.00    +0.041 C 
ATOM      5  C   LIG A   1      -8.203   5.373 130.460  0.00  0.00    +0.175 C 
ATOM      6  O   LIG A   1      -8.411   5.999 129.416  0.00  0.00    -0.294 OA
ATOM      7  C   LIG A   1      -8.602   6.041 132.510  0.00  0.00    +0.049 C 
ATOM      8  C   LIG A   1     -10.130   5.724 131.918  0.00  0.00    +0.150 C 
ATOM      9  C   LIG A   1     -10.175   4.539 130.792  0.00  0.00    +0.183 C 
ATOM     10  C   LIG A   1      -8.802   3.901 130.884  0.00  0.00    +0.162 C 
ENDROOT
BRANCH   1  18
ATOM     11  C   LIG A   1      -7.986   2.666 126.627  0.00  0.00    +0.166 A 
ATOM     12  C   LIG A   1      -6.846   3.220 126.075  0.00  0.00    +0.207 A 
ATOM     13  O   LIG A   1      -6.499   3.287 124.759  0.00  0.00    -0.449 OA
ATOM     14  C   LIG A   1      -5.209   3.915 124.828  0.00  0.00    +0.467 C 
ATOM     15  O   LIG A   1      -4.838   4.294 126.165  0.00  0.00    -0.453 OA
ATOM     16  C   LIG A   1      -5.898   3.811 126.873  0.00  0.00    +0.170 A 
ATOM     17  C   LIG A   1      -6.032   3.898 128.249  0.00  0.00    +0.053 A 
ATOM     18  C   LIG A   1      -7.184   3.379 128.871  0.00  0.00    -0.034 A 
ATOM     19  C   LIG A   1      -8.152   2.763 128.031  0.00  0.00    +0.053 A 
BRANCH  11  21
ATOM     20  C   LIG A   1      -9.069   0.622 126.104  0.00  0.00    +0.277 C 
ATOM     21  O   LIG A   1      -8.993   2.039 125.944  0.00  0.00    -0.491 OA
ENDBRANCH  11  21
ENDBRANCH   1  18
BRANCH   8  22
ATOM     22  O   LIG A   1     -10.761   6.900 131.403  0.00  0.00    -0.377 OA
ATOM     23  C   LIG A   1     -12.168   6.942 131.613  0.00  0.00    +0.194 C 
ENDBRANCH   8  22
BRANCH   9  24
ATOM     24  O   LIG A   1     -10.654   4.847 129.486  0.00  0.00    -0.386 OA
ATOM     25  H   LIG A   1     -10.312   4.165 128.871  0.00  0.00    +0.210 HD
ENDBRANCH   9  24
BRANCH  10  26
ATOM     26  O   LIG A   1      -8.802   3.364 132.246  0.00  0.00    -0.366 OA
ATOM     27  C   LIG A   1      -9.222   2.001 132.391  0.00  0.00    +0.195 C 
ENDBRANCH  10  26
BRANCH   4  28
ATOM     28  C   LIG A   1      -6.477   7.095 131.265  0.00  0.00    +0.041 C 
BRANCH  28  29
ATOM     29  C   LIG A   1      -5.143   6.924 130.583  0.00  0.00    -0.034 C 
ATOM     30  C   LIG A   1      -3.988   7.383 131.107  0.00  0.00    +0.004 C 
ENDBRANCH  28  29
ENDBRANCH   4  28
TORSDOF 7
ENDMDL
MODEL 8
REMARK VINA RESULT:      -6.5      2.239      6.446
REMARK  Name = NuBBE_2148
REMARK  11 active torsions:
REMARK  status: ('A' for Active; 'I' for Inactive)
REMARK    1  A    between atoms: C_1  and  O_2
REMARK    2  A    between atoms: O_2  and  C_3
REMARK    3  A    between atoms: C_10  and  C_11
REMARK    4  A    between atoms: C_13  and  C_15
REMARK    5  A    between atoms: C_16  and  C_17
REMARK    6  A    between atoms: C_17  and  C_18
REMARK    7  A    between atoms: C_23  and  O_25
REMARK    8  A    between atoms: O_25  and  C_26
REMARK    9  A    between atoms: C_27  and  O_29
REMARK   10  A    between atoms: C_30  and  O_31
REMARK   11  A    between atoms: O_31  and  C_32
REMARK                            x       y       z     vdW  Elec       q    Type
REMARK                         _______ _______ _______ _____ _____    ______ ____
ROOT
ATOM      1  C   LIG A   1      -6.332   3.448 131.483  0.00  0.00    +0.065 C 
ATOM      2  C   LIG A   1      -6.519   3.278 133.124  0.00  0.00    +0.010 C 
ATOM      3  C   LIG A   1      -6.766   1.847 133.614  0.00  0.00    +0.009 C 
ATOM      4  C   LIG A   1      -7.603   4.367 133.603  0.00  0.00    +0.041 C 
ATOM      5  C   LIG A   1      -7.386   5.013 132.331  0.00  0.00    +0.175 C 
ATOM      6  O   LIG A   1      -6.992   6.176 132.202  0.00  0.00    -0.294 OA
ATOM      7  C   LIG A   1      -9.182   4.329 133.387  0.00  0.00    +0.049 C 
ATOM      8  C   LIG A   1      -9.805   5.022 132.002  0.00  0.00    +0.150 C 
ATOM      9  C   LIG A   1      -8.814   4.923 130.705  0.00  0.00    +0.183 C 
ATOM     10  C   LIG A   1      -7.747   3.938 131.140  0.00  0.00    +0.162 C 
ENDROOT
BRANCH   1  18
ATOM     11  C   LIG A   1      -2.800   5.068 131.199  0.00  0.00    +0.166 A 
ATOM     12  C   LIG A   1      -2.916   5.717 129.984  0.00  0.00    +0.207 A 
ATOM     13  O   LIG A   1      -1.967   6.439 129.325  0.00  0.00    -0.449 OA
ATOM     14  C   LIG A   1      -2.693   6.895 128.172  0.00  0.00    +0.467 C 
ATOM     15  O   LIG A   1      -4.032   6.374 128.109  0.00  0.00    -0.453 OA
ATOM     16  C   LIG A   1      -4.092   5.672 129.276  0.00  0.00    +0.170 A 
ATOM     17  C   LIG A   1      -5.203   4.976 129.721  0.00  0.00    +0.053 A 
ATOM     18  C   LIG A   1      -5.141   4.268 130.937  0.00  0.00    -0.034 A 
ATOM     19  C   LIG A   1      -3.919   4.332 131.662  0.00  0.00    +0.053 A 
BRANCH  11  21
ATOM     20  C   LIG A   1      -1.621   6.077 132.991  0.00  0.00    +0.277 C 
ATOM     21  O   LIG A   1      -1.692   5.049 132.002  0.00  0.00    -0.491 OA
ENDBRANCH  11  21
ENDBRANCH   1  18
BRANCH   8  22
ATOM     22  O   LIG A   1     -10.191   6.383 132.209  0.00  0.00    -0.377 OA
ATOM     23  C   LIG A   1     -11.541   6.663 131.857  0.00  0.00    +0.194 C 
ENDBRANCH   8  22
BRANCH   9  24
ATOM     24  O   LIG A   1      -8.365   6.126 130.088  0.00  0.00    -0.386 OA
ATOM     25  H   LIG A   1      -7.846   5.881 129.294  0.00  0.00    +0.210 HD
ENDBRANCH   9  24
BRANCH  10  26
ATOM     26  O   LIG A   1      -8.521   2.710 131.334  0.00  0.00    -0.366 OA
ATOM     27  C   LIG A   1      -8.545   1.794 130.231  0.00  0.00    +0.195 C 
ENDBRANCH  10  26
BRANCH   4  28
ATOM     28  C   LIG A   1      -7.093   5.091 134.881  0.00  0.00    +0.041 C 
BRANCH  28  29
ATOM     29  C   LIG A   1      -5.618   5.075 135.196  0.00  0.00    -0.034 C 
ATOM     30  C   LIG A   1      -4.810   6.131 134.973  0.00  0.00    +0.004 C 
ENDBRANCH  28  29
ENDBRANCH   4  28
TORSDOF 7
ENDMDL
MODEL 9
REMARK VINA RESULT:      -6.3      4.982      8.294
REMARK  Name = NuBBE_2148
REMARK  11 active torsions:
REMARK  status: ('A' for Active; 'I' for Inactive)
REMARK    1  A    between atoms: C_1  and  O_2
REMARK    2  A    between atoms: O_2  and  C_3
REMARK    3  A    between atoms: C_10  and  C_11
REMARK    4  A    between atoms: C_13  and  C_15
REMARK    5  A    between atoms: C_16  and  C_17
REMARK    6  A    between atoms: C_17  and  C_18
REMARK    7  A    between atoms: C_23  and  O_25
REMARK    8  A    between atoms: O_25  and  C_26
REMARK    9  A    between atoms: C_27  and  O_29
REMARK   10  A    between atoms: C_30  and  O_31
REMARK   11  A    between atoms: O_31  and  C_32
REMARK                            x       y       z     vdW  Elec       q    Type
REMARK                         _______ _______ _______ _____ _____    ______ ____
ROOT
ATOM      1  C   LIG A   1      -8.779   0.488 126.180  0.00  0.00    +0.065 C 
ATOM      2  C   LIG A   1      -8.813   1.183 124.672  0.00  0.00    +0.010 C 
ATOM      3  C   LIG A   1     -10.155   1.097 123.937  0.00  0.00    +0.009 C 
ATOM      4  C   LIG A   1      -7.543   0.627 123.856  0.00  0.00    +0.041 C 
ATOM      5  C   LIG A   1      -7.021   0.198 125.130  0.00  0.00    +0.175 C 
ATOM      6  O   LIG A   1      -5.943   0.574 125.600  0.00  0.00    -0.294 OA
ATOM      7  C   LIG A   1      -7.354  -0.823 123.218  0.00  0.00    +0.049 C 
ATOM      8  C   LIG A   1      -6.665  -2.014 124.162  0.00  0.00    +0.150 C 
ATOM      9  C   LIG A   1      -6.997  -1.875 125.758  0.00  0.00    +0.183 C 
ATOM     10  C   LIG A   1      -8.103  -0.839 125.806  0.00  0.00    +0.162 C 
ENDROOT
BRANCH   1  18
ATOM     11  C   LIG A   1      -7.316   1.309 129.696  0.00  0.00    +0.166 A 
ATOM     12  C   LIG A   1      -7.076   2.663 129.561  0.00  0.00    +0.207 A 
ATOM     13  O   LIG A   1      -6.520   3.511 130.470  0.00  0.00    -0.449 OA
ATOM     14  C   LIG A   1      -6.588   4.769 129.779  0.00  0.00    +0.467 C 
ATOM     15  O   LIG A   1      -7.099   4.648 128.440  0.00  0.00    -0.453 OA
ATOM     16  C   LIG A   1      -7.393   3.317 128.396  0.00  0.00    +0.170 A 
ATOM     17  C   LIG A   1      -7.946   2.669 127.304  0.00  0.00    +0.053 A 
ATOM     18  C   LIG A   1      -8.188   1.282 127.367  0.00  0.00    -0.034 A 
ATOM     19  C   LIG A   1      -7.862   0.622 128.583  0.00  0.00    +0.053 A 
BRANCH  11  21
ATOM     20  C   LIG A   1      -7.688  -0.733 130.844  0.00  0.00    +0.277 C 
ATOM     21  O   LIG A   1      -7.059   0.549 130.805  0.00  0.00    -0.491 OA
ENDBRANCH  11  21
ENDBRANCH   1  18
BRANCH   8  22
ATOM     22  O   LIG A   1      -5.250  -2.100 123.972  0.00  0.00    -0.377 OA
ATOM     23  C   LIG A   1      -4.794  -3.392 123.585  0.00  0.00    +0.194 C 
ENDBRANCH   8  22
BRANCH   9  24
ATOM     24  O   LIG A   1      -5.919  -1.708 126.673  0.00  0.00    -0.386 OA
ATOM     25  H   LIG A   1      -6.234  -1.143 127.409  0.00  0.00    +0.210 HD
ENDBRANCH   9  24
BRANCH  10  26
ATOM     26  O   LIG A   1      -9.184  -1.507 125.078  0.00  0.00    -0.366 OA
ATOM     27  C   LIG A   1      -9.686  -2.718 125.657  0.00  0.00    +0.195 C 
ENDBRANCH  10  26
BRANCH   4  28
ATOM     28  C   LIG A   1      -6.824   1.802 123.135  0.00  0.00    +0.041 C 
BRANCH  28  29
ATOM     29  C   LIG A   1      -7.052   3.212 123.620  0.00  0.00    -0.034 C 
ATOM     30  C   LIG A   1      -6.104   3.932 124.251  0.00  0.00    +0.004 C 
ENDBRANCH  28  29
ENDBRANCH   4  28
TORSDOF 7
ENDMDL
