MODEL 1
REMARK VINA RESULT:      -8.2      0.000      0.000
REMARK  Name = NuBBE_1419
REMARK  9 active torsions:
REMARK  status: ('A' for Active; 'I' for Inactive)
REMARK    1  A    between atoms: O_1  and  C_2
REMARK    2  A    between atoms: O_1  and  C_3
REMARK    3  A    between atoms: C_5  and  C_15
REMARK    4  A    between atoms: C_8  and  O_9
REMARK    5  A    between atoms: O_9  and  C_10
REMARK    6  A    between atoms: C_10  and  C_11
REMARK    7  A    between atoms: C_12  and  C_13
REMARK    8  A    between atoms: C_12  and  C_14
REMARK    9  A    between atoms: C_23  and  C_27
REMARK                            x       y       z     vdW  Elec       q    Type
REMARK                         _______ _______ _______ _____ _____    ______ ____
ROOT
ATOM      1  C   LIG A   1      -8.087   1.380 126.235  0.00  0.00    +0.154 C 
ATOM      2  C   LIG A   1      -6.741   1.386 125.494  0.00  0.00    +0.056 C 
ATOM      3  C   LIG A   1      -6.698   2.748 124.854  0.00  0.00    +0.056 C 
ATOM      4  C   LIG A   1      -7.452   3.602 125.840  0.00  0.00    +0.167 C 
ATOM      5  O   LIG A   1      -8.466   2.766 126.405  0.00  0.00    -0.371 OA
ATOM      6  C   LIG A   1      -7.437   2.536 123.528  0.00  0.00    +0.154 C 
ATOM      7  O   LIG A   1      -7.391   1.120 123.244  0.00  0.00    -0.371 OA
ATOM      8  C   LIG A   1      -6.698   0.456 124.306  0.00  0.00    +0.167 C 
ENDROOT
BRANCH   6   9
ATOM      9  C   LIG A   1      -6.828   3.321 122.383  0.00  0.00    -0.015 A 
ATOM     10  C   LIG A   1      -7.520   3.485 121.169  0.00  0.00    +0.055 A 
ATOM     11  C   LIG A   1      -6.921   4.211 120.163  0.00  0.00    +0.167 A 
ATOM     12  C   LIG A   1      -5.673   4.764 120.312  0.00  0.00    +0.166 A 
ATOM     13  C   LIG A   1      -4.955   4.622 121.479  0.00  0.00    +0.050 A 
ATOM     14  C   LIG A   1      -5.539   3.891 122.521  0.00  0.00    +0.010 A 
ATOM     15  O   LIG A   1      -5.270   5.438 119.203  0.00  0.00    -0.453 OA
ATOM     16  C   LIG A   1      -6.414   5.255 118.342  0.00  0.00    +0.466 C 
ATOM     17  O   LIG A   1      -7.461   4.466 118.941  0.00  0.00    -0.453 OA
ENDBRANCH   6   9
BRANCH   1  20
ATOM     18  C   LIG A   1      -8.160   0.666 130.013  0.00  0.00    +0.162 A 
ATOM     19  C   LIG A   1      -8.265   1.324 128.782  0.00  0.00    +0.055 A 
ATOM     20  C   LIG A   1      -8.022   0.657 127.569  0.00  0.00    -0.015 A 
ATOM     21  C   LIG A   1      -7.731  -0.714 127.613  0.00  0.00    +0.010 A 
ATOM     22  C   LIG A   1      -7.632  -1.386 128.833  0.00  0.00    +0.050 A 
ATOM     23  C   LIG A   1      -7.810  -0.694 130.035  0.00  0.00    +0.162 A 
BRANCH  18  24
ATOM     24  O   LIG A   1      -8.351   1.265 131.233  0.00  0.00    -0.491 OA
ATOM     25  C   LIG A   1      -7.447   2.298 131.602  0.00  0.00    +0.277 C 
ENDBRANCH  18  24
BRANCH  23  26
ATOM     26  O   LIG A   1      -7.676  -1.287 131.269  0.00  0.00    -0.484 OA
BRANCH  26  27
ATOM     27  C   LIG A   1      -6.345  -1.665 131.623  0.00  0.00    +0.257 C 
BRANCH  27  28
ATOM     28  C   LIG A   1      -6.263  -3.166 131.634  0.00  0.00    +0.012 C 
ATOM     29  C   LIG A   1      -5.516  -3.950 130.836  0.00  0.00    -0.076 C 
ATOM     30  C   LIG A   1      -4.598  -3.454 129.749  0.00  0.00    +0.038 C 
ATOM     31  C   LIG A   1      -5.568  -5.450 130.968  0.00  0.00    +0.038 C 
ENDBRANCH  27  28
ENDBRANCH  26  27
ENDBRANCH  23  26
ENDBRANCH   1  20
TORSDOF 6
ENDMDL
MODEL 2
REMARK VINA RESULT:      -8.0      4.282     11.367
REMARK  Name = NuBBE_1419
REMARK  9 active torsions:
REMARK  status: ('A' for Active; 'I' for Inactive)
REMARK    1  A    between atoms: O_1  and  C_2
REMARK    2  A    between atoms: O_1  and  C_3
REMARK    3  A    between atoms: C_5  and  C_15
REMARK    4  A    between atoms: C_8  and  O_9
REMARK    5  A    between atoms: O_9  and  C_10
REMARK    6  A    between atoms: C_10  and  C_11
REMARK    7  A    between atoms: C_12  and  C_13
REMARK    8  A    between atoms: C_12  and  C_14
REMARK    9  A    between atoms: C_23  and  C_27
REMARK                            x       y       z     vdW  Elec       q    Type
REMARK                         _______ _______ _______ _____ _____    ______ ____
ROOT
ATOM      1  C   LIG A   1      -6.249  -2.616 130.109  0.00  0.00    +0.154 C 
ATOM      2  C   LIG A   1      -5.456  -3.928 130.218  0.00  0.00    +0.056 C 
ATOM      3  C   LIG A   1      -5.463  -4.221 131.695  0.00  0.00    +0.056 C 
ATOM      4  C   LIG A   1      -6.789  -3.657 132.139  0.00  0.00    +0.167 C 
ATOM      5  O   LIG A   1      -7.034  -2.511 131.319  0.00  0.00    -0.371 OA
ATOM      6  C   LIG A   1      -4.253  -3.436 132.214  0.00  0.00    +0.154 C 
ATOM      7  O   LIG A   1      -3.385  -3.207 131.082  0.00  0.00    -0.371 OA
ATOM      8  C   LIG A   1      -3.986  -3.776 129.914  0.00  0.00    +0.167 C 
ENDROOT
BRANCH   6   9
ATOM      9  C   LIG A   1      -3.504  -4.167 133.311  0.00  0.00    -0.015 A 
ATOM     10  C   LIG A   1      -2.601  -3.487 134.148  0.00  0.00    +0.055 A 
ATOM     11  C   LIG A   1      -1.950  -4.199 135.131  0.00  0.00    +0.167 A 
ATOM     12  C   LIG A   1      -2.152  -5.547 135.304  0.00  0.00    +0.166 A 
ATOM     13  C   LIG A   1      -3.020  -6.256 134.502  0.00  0.00    +0.050 A 
ATOM     14  C   LIG A   1      -3.698  -5.557 133.496  0.00  0.00    +0.010 A 
ATOM     15  O   LIG A   1      -1.415  -6.054 136.327  0.00  0.00    -0.453 OA
ATOM     16  C   LIG A   1      -0.733  -4.867 136.785  0.00  0.00    +0.466 C 
ATOM     17  O   LIG A   1      -1.059  -3.688 136.022  0.00  0.00    -0.453 OA
ENDBRANCH   6   9
BRANCH   1  20
ATOM     18  C   LIG A   1      -7.971  -1.379 126.901  0.00  0.00    +0.162 A 
ATOM     19  C   LIG A   1      -7.126  -1.446 128.014  0.00  0.00    +0.055 A 
ATOM     20  C   LIG A   1      -7.129  -2.561 128.872  0.00  0.00    -0.015 A 
ATOM     21  C   LIG A   1      -7.958  -3.644 128.549  0.00  0.00    +0.010 A 
ATOM     22  C   LIG A   1      -8.799  -3.594 127.436  0.00  0.00    +0.050 A 
ATOM     23  C   LIG A   1      -8.836  -2.451 126.630  0.00  0.00    +0.162 A 
BRANCH  18  24
ATOM     24  O   LIG A   1      -8.042  -0.308 126.044  0.00  0.00    -0.491 OA
ATOM     25  C   LIG A   1      -6.817   0.294 125.648  0.00  0.00    +0.277 C 
ENDBRANCH  18  24
BRANCH  23  26
ATOM     26  O   LIG A   1      -9.678  -2.321 125.551  0.00  0.00    -0.484 OA
BRANCH  26  27
ATOM     27  C   LIG A   1      -9.411  -3.202 124.459  0.00  0.00    +0.257 C 
BRANCH  27  28
ATOM     28  C   LIG A   1      -8.497  -2.500 123.494  0.00  0.00    +0.012 C 
ATOM     29  C   LIG A   1      -7.159  -2.609 123.408  0.00  0.00    -0.076 C 
ATOM     30  C   LIG A   1      -6.303  -3.477 124.294  0.00  0.00    +0.038 C 
ATOM     31  C   LIG A   1      -6.388  -1.813 122.388  0.00  0.00    +0.038 C 
ENDBRANCH  27  28
ENDBRANCH  26  27
ENDBRANCH  23  26
ENDBRANCH   1  20
TORSDOF 6
ENDMDL
MODEL 3
REMARK VINA RESULT:      -7.9      4.261     10.692
REMARK  Name = NuBBE_1419
REMARK  9 active torsions:
REMARK  status: ('A' for Active; 'I' for Inactive)
REMARK    1  A    between atoms: O_1  and  C_2
REMARK    2  A    between atoms: O_1  and  C_3
REMARK    3  A    between atoms: C_5  and  C_15
REMARK    4  A    between atoms: C_8  and  O_9
REMARK    5  A    between atoms: O_9  and  C_10
REMARK    6  A    between atoms: C_10  and  C_11
REMARK    7  A    between atoms: C_12  and  C_13
REMARK    8  A    between atoms: C_12  and  C_14
REMARK    9  A    between atoms: C_23  and  C_27
REMARK                            x       y       z     vdW  Elec       q    Type
REMARK                         _______ _______ _______ _____ _____    ______ ____
ROOT
ATOM      1  C   LIG A   1      -6.763  -2.668 130.124  0.00  0.00    +0.154 C 
ATOM      2  C   LIG A   1      -5.334  -2.115 130.014  0.00  0.00    +0.056 C 
ATOM      3  C   LIG A   1      -4.539  -3.015 130.923  0.00  0.00    +0.056 C 
ATOM      4  C   LIG A   1      -5.256  -4.334 130.796  0.00  0.00    +0.167 C 
ATOM      5  O   LIG A   1      -6.641  -4.024 130.615  0.00  0.00    -0.371 OA
ATOM      6  C   LIG A   1      -4.698  -2.355 132.297  0.00  0.00    +0.154 C 
ATOM      7  O   LIG A   1      -5.064  -0.977 132.060  0.00  0.00    -0.371 OA
ATOM      8  C   LIG A   1      -5.158  -0.758 130.649  0.00  0.00    +0.167 C 
ENDROOT
BRANCH   6   9
ATOM      9  C   LIG A   1      -3.436  -2.426 133.134  0.00  0.00    -0.015 A 
ATOM     10  C   LIG A   1      -3.081  -3.608 133.808  0.00  0.00    +0.055 A 
ATOM     11  C   LIG A   1      -1.921  -3.619 134.552  0.00  0.00    +0.167 A 
ATOM     12  C   LIG A   1      -1.117  -2.510 134.657  0.00  0.00    +0.166 A 
ATOM     13  C   LIG A   1      -1.430  -1.329 134.022  0.00  0.00    +0.050 A 
ATOM     14  C   LIG A   1      -2.602  -1.288 133.256  0.00  0.00    +0.010 A 
ATOM     15  O   LIG A   1      -0.025  -2.735 135.435  0.00  0.00    -0.453 OA
ATOM     16  C   LIG A   1      -0.229  -4.117 135.798  0.00  0.00    +0.466 C 
ATOM     17  O   LIG A   1      -1.438  -4.681 135.250  0.00  0.00    -0.453 OA
ENDBRANCH   6   9
BRANCH   1  20
ATOM     18  C   LIG A   1      -8.214  -1.433 126.784  0.00  0.00    +0.162 A 
ATOM     19  C   LIG A   1      -7.484  -1.488 127.976  0.00  0.00    +0.055 A 
ATOM     20  C   LIG A   1      -7.515  -2.624 128.805  0.00  0.00    -0.015 A 
ATOM     21  C   LIG A   1      -8.250  -3.738 128.375  0.00  0.00    +0.010 A 
ATOM     22  C   LIG A   1      -8.975  -3.700 127.183  0.00  0.00    +0.050 A 
ATOM     23  C   LIG A   1      -8.990  -2.539 126.403  0.00  0.00    +0.162 A 
BRANCH  18  24
ATOM     24  O   LIG A   1      -8.254  -0.345 125.948  0.00  0.00    -0.491 OA
ATOM     25  C   LIG A   1      -7.018   0.285 125.635  0.00  0.00    +0.277 C 
ENDBRANCH  18  24
BRANCH  23  26
ATOM     26  O   LIG A   1      -9.724  -2.422 125.246  0.00  0.00    -0.484 OA
BRANCH  26  27
ATOM     27  C   LIG A   1      -9.338  -3.299 124.187  0.00  0.00    +0.257 C 
BRANCH  27  28
ATOM     28  C   LIG A   1      -8.379  -2.567 123.288  0.00  0.00    +0.012 C 
ATOM     29  C   LIG A   1      -7.036  -2.602 123.325  0.00  0.00    -0.076 C 
ATOM     30  C   LIG A   1      -6.217  -3.403 124.304  0.00  0.00    +0.038 C 
ATOM     31  C   LIG A   1      -6.220  -1.786 122.357  0.00  0.00    +0.038 C 
ENDBRANCH  27  28
ENDBRANCH  26  27
ENDBRANCH  23  26
ENDBRANCH   1  20
TORSDOF 6
ENDMDL
MODEL 4
REMARK VINA RESULT:      -7.9      4.340      7.345
REMARK  Name = NuBBE_1419
REMARK  9 active torsions:
REMARK  status: ('A' for Active; 'I' for Inactive)
REMARK    1  A    between atoms: O_1  and  C_2
REMARK    2  A    between atoms: O_1  and  C_3
REMARK    3  A    between atoms: C_5  and  C_15
REMARK    4  A    between atoms: C_8  and  O_9
REMARK    5  A    between atoms: O_9  and  C_10
REMARK    6  A    between atoms: C_10  and  C_11
REMARK    7  A    between atoms: C_12  and  C_13
REMARK    8  A    between atoms: C_12  and  C_14
REMARK    9  A    between atoms: C_23  and  C_27
REMARK                            x       y       z     vdW  Elec       q    Type
REMARK                         _______ _______ _______ _____ _____    ______ ____
ROOT
ATOM      1  C   LIG A   1      -6.847   2.202 126.753  0.00  0.00    +0.154 C 
ATOM      2  C   LIG A   1      -5.509   1.847 127.420  0.00  0.00    +0.056 C 
ATOM      3  C   LIG A   1      -5.388   2.862 128.526  0.00  0.00    +0.056 C 
ATOM      4  C   LIG A   1      -6.824   3.098 128.920  0.00  0.00    +0.167 C 
ATOM      5  O   LIG A   1      -7.596   2.974 127.722  0.00  0.00    -0.371 OA
ATOM      6  C   LIG A   1      -4.733   4.061 127.832  0.00  0.00    +0.154 C 
ATOM      7  O   LIG A   1      -4.079   3.554 126.648  0.00  0.00    -0.371 OA
ATOM      8  C   LIG A   1      -4.305   2.143 126.562  0.00  0.00    +0.167 C 
ENDROOT
BRANCH   6   9
ATOM      9  C   LIG A   1      -3.733   4.779 128.716  0.00  0.00    -0.015 A 
ATOM     10  C   LIG A   1      -3.485   4.342 130.030  0.00  0.00    +0.055 A 
ATOM     11  C   LIG A   1      -2.563   5.029 130.790  0.00  0.00    +0.167 A 
ATOM     12  C   LIG A   1      -1.896   6.127 130.302  0.00  0.00    +0.166 A 
ATOM     13  C   LIG A   1      -2.115   6.596 129.026  0.00  0.00    +0.050 A 
ATOM     14  C   LIG A   1      -3.044   5.916 128.229  0.00  0.00    +0.010 A 
ATOM     15  O   LIG A   1      -1.034   6.654 131.211  0.00  0.00    -0.453 OA
ATOM     16  C   LIG A   1      -1.227   5.754 132.323  0.00  0.00    +0.466 C 
ATOM     17  O   LIG A   1      -2.206   4.727 132.066  0.00  0.00    -0.453 OA
ENDBRANCH   6   9
BRANCH   1  20
ATOM     18  C   LIG A   1      -8.355  -1.333 126.642  0.00  0.00    +0.162 A 
ATOM     19  C   LIG A   1      -7.677  -0.190 127.082  0.00  0.00    +0.055 A 
ATOM     20  C   LIG A   1      -7.623   0.978 126.301  0.00  0.00    -0.015 A 
ATOM     21  C   LIG A   1      -8.325   0.997 125.088  0.00  0.00    +0.010 A 
ATOM     22  C   LIG A   1      -9.014  -0.132 124.642  0.00  0.00    +0.050 A 
ATOM     23  C   LIG A   1      -9.002  -1.310 125.396  0.00  0.00    +0.162 A 
BRANCH  18  24
ATOM     24  O   LIG A   1      -8.418  -2.515 127.338  0.00  0.00    -0.491 OA
ATOM     25  C   LIG A   1      -7.623  -2.625 128.512  0.00  0.00    +0.277 C 
ENDBRANCH  18  24
BRANCH  23  26
ATOM     26  O   LIG A   1      -9.618  -2.469 124.987  0.00  0.00    -0.484 OA
BRANCH  26  27
ATOM     27  C   LIG A   1      -9.065  -3.074 123.817  0.00  0.00    +0.257 C 
BRANCH  27  28
ATOM     28  C   LIG A   1      -7.671  -3.539 124.136  0.00  0.00    +0.012 C 
ATOM     29  C   LIG A   1      -6.514  -3.027 123.681  0.00  0.00    -0.076 C 
ATOM     30  C   LIG A   1      -6.397  -1.858 122.736  0.00  0.00    +0.038 C 
ATOM     31  C   LIG A   1      -5.195  -3.630 124.086  0.00  0.00    +0.038 C 
ENDBRANCH  27  28
ENDBRANCH  26  27
ENDBRANCH  23  26
ENDBRANCH   1  20
TORSDOF 6
ENDMDL
MODEL 5
REMARK VINA RESULT:      -7.8      5.004      9.069
REMARK  Name = NuBBE_1419
REMARK  9 active torsions:
REMARK  status: ('A' for Active; 'I' for Inactive)
REMARK    1  A    between atoms: O_1  and  C_2
REMARK    2  A    between atoms: O_1  and  C_3
REMARK    3  A    between atoms: C_5  and  C_15
REMARK    4  A    between atoms: C_8  and  O_9
REMARK    5  A    between atoms: O_9  and  C_10
REMARK    6  A    between atoms: C_10  and  C_11
REMARK    7  A    between atoms: C_12  and  C_13
REMARK    8  A    between atoms: C_12  and  C_14
REMARK    9  A    between atoms: C_23  and  C_27
REMARK                            x       y       z     vdW  Elec       q    Type
REMARK                         _______ _______ _______ _____ _____    ______ ____
ROOT
ATOM      1  C   LIG A   1      -5.022   4.203 126.969  0.00  0.00    +0.154 C 
ATOM      2  C   LIG A   1      -4.033   3.549 127.947  0.00  0.00    +0.056 C 
ATOM      3  C   LIG A   1      -4.309   4.254 129.249  0.00  0.00    +0.056 C 
ATOM      4  C   LIG A   1      -5.783   4.554 129.159  0.00  0.00    +0.167 C 
ATOM      5  O   LIG A   1      -6.060   4.805 127.778  0.00  0.00    -0.371 OA
ATOM      6  C   LIG A   1      -3.419   5.499 129.169  0.00  0.00    +0.154 C 
ATOM      7  O   LIG A   1      -2.384   5.213 128.202  0.00  0.00    -0.371 OA
ATOM      8  C   LIG A   1      -2.591   3.898 127.676  0.00  0.00    +0.167 C 
ENDROOT
BRANCH   6   9
ATOM      9  C   LIG A   1      -2.803   5.868 130.504  0.00  0.00    -0.015 A 
ATOM     10  C   LIG A   1      -2.733   7.210 130.922  0.00  0.00    +0.055 A 
ATOM     11  C   LIG A   1      -2.166   7.489 132.147  0.00  0.00    +0.167 A 
ATOM     12  C   LIG A   1      -1.663   6.499 132.955  0.00  0.00    +0.166 A 
ATOM     13  C   LIG A   1      -1.701   5.173 132.582  0.00  0.00    +0.050 A 
ATOM     14  C   LIG A   1      -2.274   4.858 131.344  0.00  0.00    +0.010 A 
ATOM     15  O   LIG A   1      -1.151   6.988 134.115  0.00  0.00    -0.453 OA
ATOM     16  C   LIG A   1      -1.401   8.400 133.948  0.00  0.00    +0.466 C 
ATOM     17  O   LIG A   1      -2.034   8.726 132.695  0.00  0.00    -0.453 OA
ENDBRANCH   6   9
BRANCH   1  20
ATOM     18  C   LIG A   1      -6.551   2.716 123.770  0.00  0.00    +0.162 A 
ATOM     19  C   LIG A   1      -5.975   3.616 124.674  0.00  0.00    +0.055 A 
ATOM     20  C   LIG A   1      -5.601   3.218 125.969  0.00  0.00    -0.015 A 
ATOM     21  C   LIG A   1      -5.758   1.869 126.320  0.00  0.00    +0.010 A 
ATOM     22  C   LIG A   1      -6.322   0.959 125.425  0.00  0.00    +0.050 A 
ATOM     23  C   LIG A   1      -6.753   1.383 124.164  0.00  0.00    +0.162 A 
BRANCH  18  24
ATOM     24  O   LIG A   1      -6.970   3.046 122.505  0.00  0.00    -0.491 OA
ATOM     25  C   LIG A   1      -6.082   3.815 121.703  0.00  0.00    +0.277 C 
ENDBRANCH  18  24
BRANCH  23  26
ATOM     26  O   LIG A   1      -7.361   0.546 123.258  0.00  0.00    -0.484 OA
BRANCH  26  27
ATOM     27  C   LIG A   1      -6.758  -0.740 123.115  0.00  0.00    +0.257 C 
BRANCH  27  28
ATOM     28  C   LIG A   1      -7.846  -1.754 122.892  0.00  0.00    +0.012 C 
ATOM     29  C   LIG A   1      -8.586  -2.378 123.825  0.00  0.00    -0.076 C 
ATOM     30  C   LIG A   1      -8.456  -2.172 125.313  0.00  0.00    +0.038 C 
ATOM     31  C   LIG A   1      -9.630  -3.389 123.428  0.00  0.00    +0.038 C 
ENDBRANCH  27  28
ENDBRANCH  26  27
ENDBRANCH  23  26
ENDBRANCH   1  20
TORSDOF 6
ENDMDL
MODEL 6
REMARK VINA RESULT:      -7.8      1.158      2.039
REMARK  Name = NuBBE_1419
REMARK  9 active torsions:
REMARK  status: ('A' for Active; 'I' for Inactive)
REMARK    1  A    between atoms: O_1  and  C_2
REMARK    2  A    between atoms: O_1  and  C_3
REMARK    3  A    between atoms: C_5  and  C_15
REMARK    4  A    between atoms: C_8  and  O_9
REMARK    5  A    between atoms: O_9  and  C_10
REMARK    6  A    between atoms: C_10  and  C_11
REMARK    7  A    between atoms: C_12  and  C_13
REMARK    8  A    between atoms: C_12  and  C_14
REMARK    9  A    between atoms: C_23  and  C_27
REMARK                            x       y       z     vdW  Elec       q    Type
REMARK                         _______ _______ _______ _____ _____    ______ ____
ROOT
ATOM      1  C   LIG A   1      -7.939   1.074 126.211  0.00  0.00    +0.154 C 
ATOM      2  C   LIG A   1      -6.669   0.999 125.349  0.00  0.00    +0.056 C 
ATOM      3  C   LIG A   1      -6.501   2.408 124.846  0.00  0.00    +0.056 C 
ATOM      4  C   LIG A   1      -7.055   3.233 125.980  0.00  0.00    +0.167 C 
ATOM      5  O   LIG A   1      -8.119   2.469 126.552  0.00  0.00    -0.371 OA
ATOM      6  C   LIG A   1      -7.368   2.435 123.582  0.00  0.00    +0.154 C 
ATOM      7  O   LIG A   1      -7.530   1.064 123.156  0.00  0.00    -0.371 OA
ATOM      8  C   LIG A   1      -6.845   0.208 124.077  0.00  0.00    +0.167 C 
ENDROOT
BRANCH   6   9
ATOM      9  C   LIG A   1      -6.757   3.262 122.468  0.00  0.00    -0.015 A 
ATOM     10  C   LIG A   1      -7.417   3.416 121.236  0.00  0.00    +0.055 A 
ATOM     11  C   LIG A   1      -6.819   4.181 120.259  0.00  0.00    +0.167 A 
ATOM     12  C   LIG A   1      -5.600   4.783 120.455  0.00  0.00    +0.166 A 
ATOM     13  C   LIG A   1      -4.913   4.653 121.642  0.00  0.00    +0.050 A 
ATOM     14  C   LIG A   1      -5.497   3.882 122.655  0.00  0.00    +0.010 A 
ATOM     15  O   LIG A   1      -5.191   5.491 119.369  0.00  0.00    -0.453 OA
ATOM     16  C   LIG A   1      -6.299   5.273 118.470  0.00  0.00    +0.466 C 
ATOM     17  O   LIG A   1      -7.331   4.433 119.025  0.00  0.00    -0.453 OA
ENDBRANCH   6   9
BRANCH   1  20
ATOM     18  C   LIG A   1      -7.847  -1.996 128.524  0.00  0.00    +0.162 A 
ATOM     19  C   LIG A   1      -7.873  -1.198 127.374  0.00  0.00    +0.055 A 
ATOM     20  C   LIG A   1      -7.861   0.206 127.454  0.00  0.00    -0.015 A 
ATOM     21  C   LIG A   1      -7.755   0.797 128.721  0.00  0.00    +0.010 A 
ATOM     22  C   LIG A   1      -7.718   0.013 129.875  0.00  0.00    +0.050 A 
ATOM     23  C   LIG A   1      -7.800  -1.380 129.785  0.00  0.00    +0.162 A 
BRANCH  18  24
ATOM     24  O   LIG A   1      -7.891  -3.368 128.518  0.00  0.00    -0.491 OA
ATOM     25  C   LIG A   1      -8.933  -3.985 127.774  0.00  0.00    +0.277 C 
ENDBRANCH  18  24
BRANCH  23  26
ATOM     26  O   LIG A   1      -7.819  -2.203 130.886  0.00  0.00    -0.484 OA
BRANCH  26  27
ATOM     27  C   LIG A   1      -6.683  -2.100 131.745  0.00  0.00    +0.257 C 
BRANCH  27  28
ATOM     28  C   LIG A   1      -6.312  -3.481 132.211  0.00  0.00    +0.012 C 
ATOM     29  C   LIG A   1      -5.083  -3.943 132.502  0.00  0.00    -0.076 C 
ATOM     30  C   LIG A   1      -3.812  -3.139 132.410  0.00  0.00    +0.038 C 
ATOM     31  C   LIG A   1      -4.883  -5.371 132.940  0.00  0.00    +0.038 C 
ENDBRANCH  27  28
ENDBRANCH  26  27
ENDBRANCH  23  26
ENDBRANCH   1  20
TORSDOF 6
ENDMDL
MODEL 7
REMARK VINA RESULT:      -7.6      6.320      7.747
REMARK  Name = NuBBE_1419
REMARK  9 active torsions:
REMARK  status: ('A' for Active; 'I' for Inactive)
REMARK    1  A    between atoms: O_1  and  C_2
REMARK    2  A    between atoms: O_1  and  C_3
REMARK    3  A    between atoms: C_5  and  C_15
REMARK    4  A    between atoms: C_8  and  O_9
REMARK    5  A    between atoms: O_9  and  C_10
REMARK    6  A    between atoms: C_10  and  C_11
REMARK    7  A    between atoms: C_12  and  C_13
REMARK    8  A    between atoms: C_12  and  C_14
REMARK    9  A    between atoms: C_23  and  C_27
REMARK                            x       y       z     vdW  Elec       q    Type
REMARK                         _______ _______ _______ _____ _____    ______ ____
ROOT
ATOM      1  C   LIG A   1      -7.814   2.329 131.989  0.00  0.00    +0.154 C 
ATOM      2  C   LIG A   1      -9.255   2.692 132.380  0.00  0.00    +0.056 C 
ATOM      3  C   LIG A   1      -9.762   3.456 131.185  0.00  0.00    +0.056 C 
ATOM      4  C   LIG A   1      -9.028   2.807 130.040  0.00  0.00    +0.167 C 
ATOM      5  O   LIG A   1      -7.745   2.428 130.547  0.00  0.00    -0.371 OA
ATOM      6  C   LIG A   1      -9.313   4.893 131.471  0.00  0.00    +0.154 C 
ATOM      7  O   LIG A   1      -9.086   4.986 132.895  0.00  0.00    -0.371 OA
ATOM      8  C   LIG A   1      -9.345   3.710 133.490  0.00  0.00    +0.167 C 
ENDROOT
BRANCH   6   9
ATOM      9  C   LIG A   1     -10.332   5.926 131.033  0.00  0.00    -0.015 A 
ATOM     10  C   LIG A   1     -10.183   6.621 129.819  0.00  0.00    +0.055 A 
ATOM     11  C   LIG A   1     -11.141   7.547 129.468  0.00  0.00    +0.167 A 
ATOM     12  C   LIG A   1     -12.222   7.811 130.273  0.00  0.00    +0.166 A 
ATOM     13  C   LIG A   1     -12.404   7.163 131.474  0.00  0.00    +0.050 A 
ATOM     14  C   LIG A   1     -11.448   6.214 131.856  0.00  0.00    +0.010 A 
ATOM     15  O   LIG A   1     -13.044   8.754 129.741  0.00  0.00    -0.453 OA
ATOM     16  C   LIG A   1     -12.361   9.044 128.503  0.00  0.00    +0.466 C 
ATOM     17  O   LIG A   1     -11.145   8.289 128.329  0.00  0.00    -0.453 OA
ENDBRANCH   6   9
BRANCH   1  20
ATOM     18  C   LIG A   1      -5.796  -0.546 133.553  0.00  0.00    +0.162 A 
ATOM     19  C   LIG A   1      -6.193   0.735 133.152  0.00  0.00    +0.055 A 
ATOM     20  C   LIG A   1      -7.404   0.948 132.469  0.00  0.00    -0.015 A 
ATOM     21  C   LIG A   1      -8.245  -0.152 132.252  0.00  0.00    +0.010 A 
ATOM     22  C   LIG A   1      -7.866  -1.433 132.655  0.00  0.00    +0.050 A 
ATOM     23  C   LIG A   1      -6.628  -1.641 133.273  0.00  0.00    +0.162 A 
BRANCH  18  24
ATOM     24  O   LIG A   1      -4.614  -0.828 134.192  0.00  0.00    -0.491 OA
ATOM     25  C   LIG A   1      -3.418  -0.342 133.596  0.00  0.00    +0.277 C 
ENDBRANCH  18  24
BRANCH  23  26
ATOM     26  O   LIG A   1      -6.177  -2.885 133.647  0.00  0.00    -0.484 OA
BRANCH  26  27
ATOM     27  C   LIG A   1      -6.343  -3.914 132.671  0.00  0.00    +0.257 C 
BRANCH  27  28
ATOM     28  C   LIG A   1      -5.338  -3.696 131.573  0.00  0.00    +0.012 C 
ATOM     29  C   LIG A   1      -5.584  -3.520 130.263  0.00  0.00    -0.076 C 
ATOM     30  C   LIG A   1      -6.952  -3.512 129.633  0.00  0.00    +0.038 C 
ATOM     31  C   LIG A   1      -4.451  -3.333 129.288  0.00  0.00    +0.038 C 
ENDBRANCH  27  28
ENDBRANCH  26  27
ENDBRANCH  23  26
ENDBRANCH   1  20
TORSDOF 6
ENDMDL
MODEL 8
REMARK VINA RESULT:      -7.6      5.638      9.356
REMARK  Name = NuBBE_1419
REMARK  9 active torsions:
REMARK  status: ('A' for Active; 'I' for Inactive)
REMARK    1  A    between atoms: O_1  and  C_2
REMARK    2  A    between atoms: O_1  and  C_3
REMARK    3  A    between atoms: C_5  and  C_15
REMARK    4  A    between atoms: C_8  and  O_9
REMARK    5  A    between atoms: O_9  and  C_10
REMARK    6  A    between atoms: C_10  and  C_11
REMARK    7  A    between atoms: C_12  and  C_13
REMARK    8  A    between atoms: C_12  and  C_14
REMARK    9  A    between atoms: C_23  and  C_27
REMARK                            x       y       z     vdW  Elec       q    Type
REMARK                         _______ _______ _______ _____ _____    ______ ____
ROOT
ATOM      1  C   LIG A   1      -3.694   3.402 128.087  0.00  0.00    +0.154 C 
ATOM      2  C   LIG A   1      -4.429   4.426 128.966  0.00  0.00    +0.056 C 
ATOM      3  C   LIG A   1      -3.411   5.520 129.157  0.00  0.00    +0.056 C 
ATOM      4  C   LIG A   1      -2.639   5.484 127.864  0.00  0.00    +0.167 C 
ATOM      5  O   LIG A   1      -2.607   4.115 127.450  0.00  0.00    -0.371 OA
ATOM      6  C   LIG A   1      -2.607   5.042 130.371  0.00  0.00    +0.154 C 
ATOM      7  O   LIG A   1      -3.439   4.096 131.078  0.00  0.00    -0.371 OA
ATOM      8  C   LIG A   1      -4.677   3.949 130.375  0.00  0.00    +0.167 C 
ENDROOT
BRANCH   6   9
ATOM      9  C   LIG A   1      -2.202   6.176 131.291  0.00  0.00    -0.015 A 
ATOM     10  C   LIG A   1      -1.001   6.121 132.022  0.00  0.00    +0.055 A 
ATOM     11  C   LIG A   1      -0.680   7.182 132.841  0.00  0.00    +0.167 A 
ATOM     12  C   LIG A   1      -1.502   8.275 132.968  0.00  0.00    +0.166 A 
ATOM     13  C   LIG A   1      -2.691   8.368 132.279  0.00  0.00    +0.050 A 
ATOM     14  C   LIG A   1      -3.043   7.306 131.436  0.00  0.00    +0.010 A 
ATOM     15  O   LIG A   1      -0.999   9.204 133.822  0.00  0.00    -0.453 OA
ATOM     16  C   LIG A   1       0.240   8.574 134.211  0.00  0.00    +0.466 C 
ATOM     17  O   LIG A   1       0.443   7.284 133.601  0.00  0.00    -0.453 OA
ENDBRANCH   6   9
BRANCH   1  20
ATOM     18  C   LIG A   1      -5.979   2.868 125.040  0.00  0.00    +0.162 A 
ATOM     19  C   LIG A   1      -5.106   3.462 125.959  0.00  0.00    +0.055 A 
ATOM     20  C   LIG A   1      -4.602   2.747 127.061  0.00  0.00    -0.015 A 
ATOM     21  C   LIG A   1      -4.945   1.393 127.186  0.00  0.00    +0.010 A 
ATOM     22  C   LIG A   1      -5.807   0.786 126.271  0.00  0.00    +0.050 A 
ATOM     23  C   LIG A   1      -6.355   1.527 125.219  0.00  0.00    +0.162 A 
BRANCH  18  24
ATOM     24  O   LIG A   1      -6.533   3.517 123.965  0.00  0.00    -0.491 OA
ATOM     25  C   LIG A   1      -5.643   4.151 123.055  0.00  0.00    +0.277 C 
ENDBRANCH  18  24
BRANCH  23  26
ATOM     26  O   LIG A   1      -7.248   1.000 124.316  0.00  0.00    -0.484 OA
BRANCH  26  27
ATOM     27  C   LIG A   1      -6.734  -0.044 123.487  0.00  0.00    +0.257 C 
BRANCH  27  28
ATOM     28  C   LIG A   1      -7.419  -1.329 123.861  0.00  0.00    +0.012 C 
ATOM     29  C   LIG A   1      -6.849  -2.528 124.076  0.00  0.00    -0.076 C 
ATOM     30  C   LIG A   1      -5.372  -2.814 123.976  0.00  0.00    +0.038 C 
ATOM     31  C   LIG A   1      -7.690  -3.727 124.426  0.00  0.00    +0.038 C 
ENDBRANCH  27  28
ENDBRANCH  26  27
ENDBRANCH  23  26
ENDBRANCH   1  20
TORSDOF 6
ENDMDL
MODEL 9
REMARK VINA RESULT:      -7.5      4.712      7.048
REMARK  Name = NuBBE_1419
REMARK  9 active torsions:
REMARK  status: ('A' for Active; 'I' for Inactive)
REMARK    1  A    between atoms: O_1  and  C_2
REMARK    2  A    between atoms: O_1  and  C_3
REMARK    3  A    between atoms: C_5  and  C_15
REMARK    4  A    between atoms: C_8  and  O_9
REMARK    5  A    between atoms: O_9  and  C_10
REMARK    6  A    between atoms: C_10  and  C_11
REMARK    7  A    between atoms: C_12  and  C_13
REMARK    8  A    between atoms: C_12  and  C_14
REMARK    9  A    between atoms: C_23  and  C_27
REMARK                            x       y       z     vdW  Elec       q    Type
REMARK                         _______ _______ _______ _____ _____    ______ ____
ROOT
ATOM      1  C   LIG A   1      -4.526   4.016 126.610  0.00  0.00    +0.154 C 
ATOM      2  C   LIG A   1      -5.985   3.617 126.882  0.00  0.00    +0.056 C 
ATOM      3  C   LIG A   1      -6.094   2.247 126.267  0.00  0.00    +0.056 C 
ATOM      4  C   LIG A   1      -4.710   1.684 126.461  0.00  0.00    +0.167 C 
ATOM      5  O   LIG A   1      -3.807   2.788 126.352  0.00  0.00    -0.371 OA
ATOM      6  C   LIG A   1      -6.440   2.545 124.805  0.00  0.00    +0.154 C 
ATOM      7  O   LIG A   1      -6.994   3.880 124.769  0.00  0.00    -0.371 OA
ATOM      8  C   LIG A   1      -6.991   4.419 126.095  0.00  0.00    +0.167 C 
ENDROOT
BRANCH   6   9
ATOM      9  C   LIG A   1      -7.425   1.553 124.218  0.00  0.00    -0.015 A 
ATOM     10  C   LIG A   1      -7.175   0.169 124.271  0.00  0.00    +0.055 A 
ATOM     11  C   LIG A   1      -8.106  -0.689 123.726  0.00  0.00    +0.167 A 
ATOM     12  C   LIG A   1      -9.254  -0.228 123.130  0.00  0.00    +0.166 A 
ATOM     13  C   LIG A   1      -9.536   1.118 123.048  0.00  0.00    +0.050 A 
ATOM     14  C   LIG A   1      -8.610   2.014 123.595  0.00  0.00    +0.010 A 
ATOM     15  O   LIG A   1     -10.034  -1.238 122.660  0.00  0.00    -0.453 OA
ATOM     16  C   LIG A   1      -9.248  -2.387 123.039  0.00  0.00    +0.466 C 
ATOM     17  O   LIG A   1      -8.016  -2.045 123.705  0.00  0.00    -0.453 OA
ENDBRANCH   6   9
BRANCH   1  20
ATOM     18  C   LIG A   1      -2.927   4.870 130.001  0.00  0.00    +0.162 A 
ATOM     19  C   LIG A   1      -3.458   4.148 128.926  0.00  0.00    +0.055 A 
ATOM     20  C   LIG A   1      -3.903   4.792 127.758  0.00  0.00    -0.015 A 
ATOM     21  C   LIG A   1      -3.742   6.181 127.664  0.00  0.00    +0.010 A 
ATOM     22  C   LIG A   1      -3.204   6.912 128.724  0.00  0.00    +0.050 A 
ATOM     23  C   LIG A   1      -2.829   6.268 129.907  0.00  0.00    +0.162 A 
BRANCH  18  24
ATOM     24  O   LIG A   1      -2.506   4.309 131.181  0.00  0.00    -0.491 OA
ATOM     25  C   LIG A   1      -3.401   3.420 131.838  0.00  0.00    +0.277 C 
ENDBRANCH  18  24
BRANCH  23  26
ATOM     26  O   LIG A   1      -2.341   6.937 131.004  0.00  0.00    -0.484 OA
BRANCH  26  27
ATOM     27  C   LIG A   1      -3.280   7.784 131.670  0.00  0.00    +0.257 C 
BRANCH  27  28
ATOM     28  C   LIG A   1      -4.138   6.933 132.563  0.00  0.00    +0.012 C 
ATOM     29  C   LIG A   1      -5.397   6.517 132.334  0.00  0.00    -0.076 C 
ATOM     30  C   LIG A   1      -6.204   6.841 131.104  0.00  0.00    +0.038 C 
ATOM     31  C   LIG A   1      -6.126   5.679 133.351  0.00  0.00    +0.038 C 
ENDBRANCH  27  28
ENDBRANCH  26  27
ENDBRANCH  23  26
ENDBRANCH   1  20
TORSDOF 6
ENDMDL
