MODEL 1
REMARK VINA RESULT:      -6.6      0.000      0.000
REMARK  Name = NuBBE_1126
REMARK  10 active torsions:
REMARK  status: ('A' for Active; 'I' for Inactive)
REMARK    1  A    between atoms: O_1  and  C_2
REMARK    2  A    between atoms: C_5  and  O_12
REMARK    3  A    between atoms: O_12  and  C_13
REMARK    4  A    between atoms: C_13  and  C_14
REMARK    5  A    between atoms: C_14  and  O_16
REMARK    6  A    between atoms: C_14  and  C_17
REMARK    7  A    between atoms: C_17  and  N_18
REMARK    8  A    between atoms: N_18  and  C_19
REMARK    9  A    between atoms: C_19  and  C_20
REMARK   10  A    between atoms: C_19  and  C_21
REMARK                            x       y       z     vdW  Elec       q    Type
REMARK                         _______ _______ _______ _____ _____    ______ ____
ROOT
ATOM      1  C   LIG A   1      -5.597   4.240 121.327  0.00  0.00    +0.125 A 
ATOM      2  C   LIG A   1      -5.582   3.792 122.641  0.00  0.00    +0.049 A 
ATOM      3  C   LIG A   1      -6.753   3.288 123.216  0.00  0.00    +0.050 A 
ATOM      4  C   LIG A   1      -7.958   3.277 122.502  0.00  0.00    +0.129 A 
ATOM      5  C   LIG A   1      -7.975   3.723 121.141  0.00  0.00    +0.027 A 
ATOM      6  C   LIG A   1      -9.135   3.732 120.325  0.00  0.00    +0.012 A 
ATOM      7  C   LIG A   1      -9.089   4.132 118.983  0.00  0.00    +0.001 A 
ATOM      8  C   LIG A   1      -7.890   4.527 118.412  0.00  0.00    +0.001 A 
ATOM      9  C   LIG A   1      -6.743   4.563 119.190  0.00  0.00    +0.012 A 
ATOM     10  C   LIG A   1      -6.760   4.177 120.551  0.00  0.00    +0.027 A 
ENDROOT
BRANCH   1  11
ATOM     11  O   LIG A   1      -4.446   4.757 120.784  0.00  0.00    -0.506 OA
ATOM     12  H   LIG A   1      -4.592   4.930 119.840  0.00  0.00    +0.292 HD
ENDBRANCH   1  11
BRANCH   4  13
ATOM     13  O   LIG A   1      -9.156   2.840 123.056  0.00  0.00    -0.489 OA
BRANCH  13  14
ATOM     14  C   LIG A   1      -9.101   2.374 124.421  0.00  0.00    +0.261 C 
BRANCH  14  15
ATOM     15  C   LIG A   1      -9.925   1.086 124.646  0.00  0.00    +0.166 C 
BRANCH  15  16
ATOM     16  O   LIG A   1     -10.893   0.930 123.598  0.00  0.00    -0.387 OA
ATOM     17  H   LIG A   1     -10.733   1.646 122.961  0.00  0.00    +0.210 HD
ENDBRANCH  15  16
BRANCH  15  18
ATOM     18  C   LIG A   1      -9.034  -0.168 124.736  0.00  0.00    +0.115 C 
BRANCH  18  19
ATOM     19  N   LIG A   1      -8.042  -0.213 123.650  0.00  0.00    -0.311 NA
ATOM     20  H   LIG A   1      -7.112  -0.030 124.032  0.00  0.00    +0.122 HD
BRANCH  19  21
ATOM     21  C   LIG A   1      -8.069  -1.457 122.872  0.00  0.00    +0.048 C 
ATOM     22  C   LIG A   1      -6.631  -1.931 122.633  0.00  0.00    +0.024 C 
ATOM     23  C   LIG A   1      -8.866  -2.586 123.533  0.00  0.00    +0.024 C 
ENDBRANCH  19  21
ENDBRANCH  18  19
ENDBRANCH  15  18
ENDBRANCH  14  15
ENDBRANCH  13  14
ENDBRANCH   4  13
TORSDOF 8
ENDMDL
MODEL 2
REMARK VINA RESULT:      -6.5      3.280      4.934
REMARK  Name = NuBBE_1126
REMARK  10 active torsions:
REMARK  status: ('A' for Active; 'I' for Inactive)
REMARK    1  A    between atoms: O_1  and  C_2
REMARK    2  A    between atoms: C_5  and  O_12
REMARK    3  A    between atoms: O_12  and  C_13
REMARK    4  A    between atoms: C_13  and  C_14
REMARK    5  A    between atoms: C_14  and  O_16
REMARK    6  A    between atoms: C_14  and  C_17
REMARK    7  A    between atoms: C_17  and  N_18
REMARK    8  A    between atoms: N_18  and  C_19
REMARK    9  A    between atoms: C_19  and  C_20
REMARK   10  A    between atoms: C_19  and  C_21
REMARK                            x       y       z     vdW  Elec       q    Type
REMARK                         _______ _______ _______ _____ _____    ______ ____
ROOT
ATOM      1  C   LIG A   1      -8.791   3.718 120.253  0.00  0.00    +0.125 A 
ATOM      2  C   LIG A   1      -9.284   3.034 121.356  0.00  0.00    +0.049 A 
ATOM      3  C   LIG A   1      -8.440   2.759 122.436  0.00  0.00    +0.050 A 
ATOM      4  C   LIG A   1      -7.086   3.117 122.400  0.00  0.00    +0.129 A 
ATOM      5  C   LIG A   1      -6.577   3.837 121.272  0.00  0.00    +0.027 A 
ATOM      6  C   LIG A   1      -5.230   4.264 121.146  0.00  0.00    +0.012 A 
ATOM      7  C   LIG A   1      -4.793   5.009 120.044  0.00  0.00    +0.001 A 
ATOM      8  C   LIG A   1      -5.680   5.356 119.039  0.00  0.00    +0.001 A 
ATOM      9  C   LIG A   1      -6.996   4.926 119.112  0.00  0.00    +0.012 A 
ATOM     10  C   LIG A   1      -7.465   4.162 120.206  0.00  0.00    +0.027 A 
ENDROOT
BRANCH   1  11
ATOM     11  O   LIG A   1      -9.625   3.958 119.187  0.00  0.00    -0.506 OA
ATOM     12  H   LIG A   1     -10.436   3.436 119.296  0.00  0.00    +0.292 HD
ENDBRANCH   1  11
BRANCH   4  13
ATOM     13  O   LIG A   1      -6.201   2.809 123.427  0.00  0.00    -0.489 OA
BRANCH  13  14
ATOM     14  C   LIG A   1      -6.527   3.325 124.734  0.00  0.00    +0.261 C 
BRANCH  14  15
ATOM     15  C   LIG A   1      -5.781   4.638 125.062  0.00  0.00    +0.166 C 
BRANCH  15  16
ATOM     16  O   LIG A   1      -6.694   5.745 125.036  0.00  0.00    -0.387 OA
ATOM     17  H   LIG A   1      -6.519   6.231 124.213  0.00  0.00    +0.210 HD
ENDBRANCH  15  16
BRANCH  15  18
ATOM     18  C   LIG A   1      -5.063   4.576 126.425  0.00  0.00    +0.115 C 
BRANCH  18  19
ATOM     19  N   LIG A   1      -3.624   4.307 126.273  0.00  0.00    -0.311 NA
ATOM     20  H   LIG A   1      -3.090   5.078 126.681  0.00  0.00    +0.122 HD
BRANCH  19  21
ATOM     21  C   LIG A   1      -3.201   3.012 126.819  0.00  0.00    +0.048 C 
ATOM     22  C   LIG A   1      -1.670   2.935 126.797  0.00  0.00    +0.024 C 
ATOM     23  C   LIG A   1      -3.697   2.746 128.243  0.00  0.00    +0.024 C 
ENDBRANCH  19  21
ENDBRANCH  18  19
ENDBRANCH  15  18
ENDBRANCH  14  15
ENDBRANCH  13  14
ENDBRANCH   4  13
TORSDOF 8
ENDMDL
MODEL 3
REMARK VINA RESULT:      -6.4      7.427      9.783
REMARK  Name = NuBBE_1126
REMARK  10 active torsions:
REMARK  status: ('A' for Active; 'I' for Inactive)
REMARK    1  A    between atoms: O_1  and  C_2
REMARK    2  A    between atoms: C_5  and  O_12
REMARK    3  A    between atoms: O_12  and  C_13
REMARK    4  A    between atoms: C_13  and  C_14
REMARK    5  A    between atoms: C_14  and  O_16
REMARK    6  A    between atoms: C_14  and  C_17
REMARK    7  A    between atoms: C_17  and  N_18
REMARK    8  A    between atoms: N_18  and  C_19
REMARK    9  A    between atoms: C_19  and  C_20
REMARK   10  A    between atoms: C_19  and  C_21
REMARK                            x       y       z     vdW  Elec       q    Type
REMARK                         _______ _______ _______ _____ _____    ______ ____
ROOT
ATOM      1  C   LIG A   1     -12.109   7.009 131.357  0.00  0.00    +0.125 A 
ATOM      2  C   LIG A   1     -11.186   6.358 132.164  0.00  0.00    +0.049 A 
ATOM      3  C   LIG A   1      -9.898   6.105 131.682  0.00  0.00    +0.050 A 
ATOM      4  C   LIG A   1      -9.539   6.452 130.374  0.00  0.00    +0.129 A 
ATOM      5  C   LIG A   1     -10.482   7.139 129.542  0.00  0.00    +0.027 A 
ATOM      6  C   LIG A   1     -10.212   7.552 128.213  0.00  0.00    +0.012 A 
ATOM      7  C   LIG A   1     -11.152   8.265 127.457  0.00  0.00    +0.001 A 
ATOM      8  C   LIG A   1     -12.382   8.593 128.002  0.00  0.00    +0.001 A 
ATOM      9  C   LIG A   1     -12.693   8.174 129.286  0.00  0.00    +0.012 A 
ATOM     10  C   LIG A   1     -11.770   7.442 130.069  0.00  0.00    +0.027 A 
ENDROOT
BRANCH   1  11
ATOM     11  O   LIG A   1     -13.379   7.228 131.834  0.00  0.00    -0.506 OA
ATOM     12  H   LIG A   1     -14.006   6.695 131.319  0.00  0.00    +0.292 HD
ENDBRANCH   1  11
BRANCH   4  13
ATOM     13  O   LIG A   1      -8.289   6.165 129.836  0.00  0.00    -0.489 OA
BRANCH  13  14
ATOM     14  C   LIG A   1      -7.831   4.803 129.967  0.00  0.00    +0.261 C 
BRANCH  14  15
ATOM     15  C   LIG A   1      -7.448   4.168 128.611  0.00  0.00    +0.166 C 
BRANCH  15  16
ATOM     16  O   LIG A   1      -8.264   4.712 127.564  0.00  0.00    -0.387 OA
ATOM     17  H   LIG A   1      -9.152   4.837 127.938  0.00  0.00    +0.210 HD
ENDBRANCH  15  16
BRANCH  15  18
ATOM     18  C   LIG A   1      -5.956   4.363 128.277  0.00  0.00    +0.115 C 
BRANCH  18  19
ATOM     19  N   LIG A   1      -5.386   5.526 128.976  0.00  0.00    -0.311 NA
ATOM     20  H   LIG A   1      -5.817   5.612 129.899  0.00  0.00    +0.122 HD
BRANCH  19  21
ATOM     21  C   LIG A   1      -3.921   5.506 129.065  0.00  0.00    +0.048 C 
ATOM     22  C   LIG A   1      -3.429   4.064 128.893  0.00  0.00    +0.024 C 
ATOM     23  C   LIG A   1      -3.224   6.401 128.038  0.00  0.00    +0.024 C 
ENDBRANCH  19  21
ENDBRANCH  18  19
ENDBRANCH  15  18
ENDBRANCH  14  15
ENDBRANCH  13  14
ENDBRANCH   4  13
TORSDOF 8
ENDMDL
MODEL 4
REMARK VINA RESULT:      -6.3      2.554      7.328
REMARK  Name = NuBBE_1126
REMARK  10 active torsions:
REMARK  status: ('A' for Active; 'I' for Inactive)
REMARK    1  A    between atoms: O_1  and  C_2
REMARK    2  A    between atoms: C_5  and  O_12
REMARK    3  A    between atoms: O_12  and  C_13
REMARK    4  A    between atoms: C_13  and  C_14
REMARK    5  A    between atoms: C_14  and  O_16
REMARK    6  A    between atoms: C_14  and  C_17
REMARK    7  A    between atoms: C_17  and  N_18
REMARK    8  A    between atoms: N_18  and  C_19
REMARK    9  A    between atoms: C_19  and  C_20
REMARK   10  A    between atoms: C_19  and  C_21
REMARK                            x       y       z     vdW  Elec       q    Type
REMARK                         _______ _______ _______ _____ _____    ______ ____
ROOT
ATOM      1  C   LIG A   1      -9.319  -2.478 123.993  0.00  0.00    +0.125 A 
ATOM      2  C   LIG A   1      -9.061  -1.462 123.084  0.00  0.00    +0.049 A 
ATOM      3  C   LIG A   1      -8.354  -0.327 123.495  0.00  0.00    +0.050 A 
ATOM      4  C   LIG A   1      -7.949  -0.175 124.827  0.00  0.00    +0.129 A 
ATOM      5  C   LIG A   1      -8.199  -1.229 125.765  0.00  0.00    +0.027 A 
ATOM      6  C   LIG A   1      -7.812  -1.184 127.128  0.00  0.00    +0.012 A 
ATOM      7  C   LIG A   1      -8.037  -2.262 127.994  0.00  0.00    +0.001 A 
ATOM      8  C   LIG A   1      -8.645  -3.416 127.529  0.00  0.00    +0.001 A 
ATOM      9  C   LIG A   1      -9.068  -3.481 126.211  0.00  0.00    +0.012 A 
ATOM     10  C   LIG A   1      -8.867  -2.404 125.316  0.00  0.00    +0.027 A 
ENDROOT
BRANCH   1  11
ATOM     11  O   LIG A   1     -10.037  -3.576 123.582  0.00  0.00    -0.506 OA
ATOM     12  H   LIG A   1     -10.282  -3.463 122.650  0.00  0.00    +0.292 HD
ENDBRANCH   1  11
BRANCH   4  13
ATOM     13  O   LIG A   1      -7.298   0.963 125.289  0.00  0.00    -0.489 OA
BRANCH  13  14
ATOM     14  C   LIG A   1      -8.112   2.142 125.467  0.00  0.00    +0.261 C 
BRANCH  14  15
ATOM     15  C   LIG A   1      -7.943   3.163 124.320  0.00  0.00    +0.166 C 
BRANCH  15  16
ATOM     16  O   LIG A   1      -8.237   4.487 124.790  0.00  0.00    -0.387 OA
ATOM     17  H   LIG A   1      -9.205   4.557 124.840  0.00  0.00    +0.210 HD
ENDBRANCH  15  16
BRANCH  15  18
ATOM     18  C   LIG A   1      -6.531   3.121 123.704  0.00  0.00    +0.115 C 
BRANCH  18  19
ATOM     19  N   LIG A   1      -6.252   4.317 122.894  0.00  0.00    -0.311 NA
ATOM     20  H   LIG A   1      -5.829   5.036 123.485  0.00  0.00    +0.122 HD
BRANCH  19  21
ATOM     21  C   LIG A   1      -5.435   4.051 121.703  0.00  0.00    +0.048 C 
ATOM     22  C   LIG A   1      -6.345   4.016 120.469  0.00  0.00    +0.024 C 
ATOM     23  C   LIG A   1      -4.318   5.072 121.475  0.00  0.00    +0.024 C 
ENDBRANCH  19  21
ENDBRANCH  18  19
ENDBRANCH  15  18
ENDBRANCH  14  15
ENDBRANCH  13  14
ENDBRANCH   4  13
TORSDOF 8
ENDMDL
MODEL 5
REMARK VINA RESULT:      -6.3      2.765      4.381
REMARK  Name = NuBBE_1126
REMARK  10 active torsions:
REMARK  status: ('A' for Active; 'I' for Inactive)
REMARK    1  A    between atoms: O_1  and  C_2
REMARK    2  A    between atoms: C_5  and  O_12
REMARK    3  A    between atoms: O_12  and  C_13
REMARK    4  A    between atoms: C_13  and  C_14
REMARK    5  A    between atoms: C_14  and  O_16
REMARK    6  A    between atoms: C_14  and  C_17
REMARK    7  A    between atoms: C_17  and  N_18
REMARK    8  A    between atoms: N_18  and  C_19
REMARK    9  A    between atoms: C_19  and  C_20
REMARK   10  A    between atoms: C_19  and  C_21
REMARK                            x       y       z     vdW  Elec       q    Type
REMARK                         _______ _______ _______ _____ _____    ______ ____
ROOT
ATOM      1  C   LIG A   1      -8.386   2.810 122.875  0.00  0.00    +0.125 A 
ATOM      2  C   LIG A   1      -9.326   1.789 122.841  0.00  0.00    +0.049 A 
ATOM      3  C   LIG A   1      -9.221   0.719 123.734  0.00  0.00    +0.050 A 
ATOM      4  C   LIG A   1      -8.148   0.632 124.630  0.00  0.00    +0.129 A 
ATOM      5  C   LIG A   1      -7.184   1.690 124.680  0.00  0.00    +0.027 A 
ATOM      6  C   LIG A   1      -6.074   1.710 125.563  0.00  0.00    +0.012 A 
ATOM      7  C   LIG A   1      -5.187   2.793 125.608  0.00  0.00    +0.001 A 
ATOM      8  C   LIG A   1      -5.380   3.888 124.782  0.00  0.00    +0.001 A 
ATOM      9  C   LIG A   1      -6.434   3.887 123.882  0.00  0.00    +0.012 A 
ATOM     10  C   LIG A   1      -7.339   2.803 123.805  0.00  0.00    +0.027 A 
ENDROOT
BRANCH   1  11
ATOM     11  O   LIG A   1      -8.487   3.843 121.974  0.00  0.00    -0.506 OA
ATOM     12  H   LIG A   1      -9.425   4.016 121.795  0.00  0.00    +0.292 HD
ENDBRANCH   1  11
BRANCH   4  13
ATOM     13  O   LIG A   1      -7.974  -0.445 125.492  0.00  0.00    -0.489 OA
BRANCH  13  14
ATOM     14  C   LIG A   1      -9.172  -1.114 125.936  0.00  0.00    +0.261 C 
BRANCH  14  15
ATOM     15  C   LIG A   1      -9.121  -2.643 125.716  0.00  0.00    +0.166 C 
BRANCH  15  16
ATOM     16  O   LIG A   1      -9.885  -3.000 124.555  0.00  0.00    -0.387 OA
ATOM     17  H   LIG A   1     -10.798  -2.711 124.721  0.00  0.00    +0.210 HD
ENDBRANCH  15  16
BRANCH  15  18
ATOM     18  C   LIG A   1      -7.676  -3.164 125.580  0.00  0.00    +0.115 C 
BRANCH  18  19
ATOM     19  N   LIG A   1      -7.293  -3.352 124.172  0.00  0.00    -0.311 NA
ATOM     20  H   LIG A   1      -8.096  -3.148 123.572  0.00  0.00    +0.122 HD
BRANCH  19  21
ATOM     21  C   LIG A   1      -6.110  -2.582 123.770  0.00  0.00    +0.048 C 
ATOM     22  C   LIG A   1      -4.916  -3.533 123.632  0.00  0.00    +0.024 C 
ATOM     23  C   LIG A   1      -6.289  -1.807 122.461  0.00  0.00    +0.024 C 
ENDBRANCH  19  21
ENDBRANCH  18  19
ENDBRANCH  15  18
ENDBRANCH  14  15
ENDBRANCH  13  14
ENDBRANCH   4  13
TORSDOF 8
ENDMDL
MODEL 6
REMARK VINA RESULT:      -6.3      9.148     10.680
REMARK  Name = NuBBE_1126
REMARK  10 active torsions:
REMARK  status: ('A' for Active; 'I' for Inactive)
REMARK    1  A    between atoms: O_1  and  C_2
REMARK    2  A    between atoms: C_5  and  O_12
REMARK    3  A    between atoms: O_12  and  C_13
REMARK    4  A    between atoms: C_13  and  C_14
REMARK    5  A    between atoms: C_14  and  O_16
REMARK    6  A    between atoms: C_14  and  C_17
REMARK    7  A    between atoms: C_17  and  N_18
REMARK    8  A    between atoms: N_18  and  C_19
REMARK    9  A    between atoms: C_19  and  C_20
REMARK   10  A    between atoms: C_19  and  C_21
REMARK                            x       y       z     vdW  Elec       q    Type
REMARK                         _______ _______ _______ _____ _____    ______ ____
ROOT
ATOM      1  C   LIG A   1     -12.198   7.063 131.375  0.00  0.00    +0.125 A 
ATOM      2  C   LIG A   1     -11.319   6.479 132.277  0.00  0.00    +0.049 A 
ATOM      3  C   LIG A   1      -9.978   6.303 131.924  0.00  0.00    +0.050 A 
ATOM      4  C   LIG A   1      -9.517   6.658 130.650  0.00  0.00    +0.129 A 
ATOM      5  C   LIG A   1     -10.416   7.276 129.721  0.00  0.00    +0.027 A 
ATOM      6  C   LIG A   1     -10.046   7.692 128.417  0.00  0.00    +0.012 A 
ATOM      7  C   LIG A   1     -10.951   8.336 127.564  0.00  0.00    +0.001 A 
ATOM      8  C   LIG A   1     -12.246   8.591 127.984  0.00  0.00    +0.001 A 
ATOM      9  C   LIG A   1     -12.652   8.167 129.240  0.00  0.00    +0.012 A 
ATOM     10  C   LIG A   1     -11.765   7.503 130.119  0.00  0.00    +0.027 A 
ENDROOT
BRANCH   1  11
ATOM     11  O   LIG A   1     -13.520   7.206 131.726  0.00  0.00    -0.506 OA
ATOM     12  H   LIG A   1     -13.702   8.144 131.893  0.00  0.00    +0.292 HD
ENDBRANCH   1  11
BRANCH   4  13
ATOM     13  O   LIG A   1      -8.206   6.445 130.238  0.00  0.00    -0.489 OA
BRANCH  13  14
ATOM     14  C   LIG A   1      -7.169   6.890 131.137  0.00  0.00    +0.261 C 
BRANCH  14  15
ATOM     15  C   LIG A   1      -6.047   5.844 131.321  0.00  0.00    +0.166 C 
BRANCH  15  16
ATOM     16  O   LIG A   1      -4.807   6.498 131.629  0.00  0.00    -0.387 OA
ATOM     17  H   LIG A   1      -4.998   7.141 132.332  0.00  0.00    +0.210 HD
ENDBRANCH  15  16
BRANCH  15  18
ATOM     18  C   LIG A   1      -6.386   4.810 132.413  0.00  0.00    +0.115 C 
BRANCH  18  19
ATOM     19  N   LIG A   1      -7.483   3.919 132.001  0.00  0.00    -0.311 NA
ATOM     20  H   LIG A   1      -7.159   3.308 131.249  0.00  0.00    +0.122 HD
BRANCH  19  21
ATOM     21  C   LIG A   1      -8.069   3.150 133.106  0.00  0.00    +0.048 C 
ATOM     22  C   LIG A   1      -8.284   4.081 134.305  0.00  0.00    +0.024 C 
ATOM     23  C   LIG A   1      -9.395   2.470 132.754  0.00  0.00    +0.024 C 
ENDBRANCH  19  21
ENDBRANCH  18  19
ENDBRANCH  15  18
ENDBRANCH  14  15
ENDBRANCH  13  14
ENDBRANCH   4  13
TORSDOF 8
ENDMDL
MODEL 7
REMARK VINA RESULT:      -6.2      2.934      6.331
REMARK  Name = NuBBE_1126
REMARK  10 active torsions:
REMARK  status: ('A' for Active; 'I' for Inactive)
REMARK    1  A    between atoms: O_1  and  C_2
REMARK    2  A    between atoms: C_5  and  O_12
REMARK    3  A    between atoms: O_12  and  C_13
REMARK    4  A    between atoms: C_13  and  C_14
REMARK    5  A    between atoms: C_14  and  O_16
REMARK    6  A    between atoms: C_14  and  C_17
REMARK    7  A    between atoms: C_17  and  N_18
REMARK    8  A    between atoms: N_18  and  C_19
REMARK    9  A    between atoms: C_19  and  C_20
REMARK   10  A    between atoms: C_19  and  C_21
REMARK                            x       y       z     vdW  Elec       q    Type
REMARK                         _______ _______ _______ _____ _____    ______ ____
ROOT
ATOM      1  C   LIG A   1      -6.878  -2.089 126.521  0.00  0.00    +0.125 A 
ATOM      2  C   LIG A   1      -8.093  -1.537 126.906  0.00  0.00    +0.049 A 
ATOM      3  C   LIG A   1      -8.992  -1.093 125.932  0.00  0.00    +0.050 A 
ATOM      4  C   LIG A   1      -8.664  -1.148 124.571  0.00  0.00    +0.129 A 
ATOM      5  C   LIG A   1      -7.419  -1.732 124.169  0.00  0.00    +0.027 A 
ATOM      6  C   LIG A   1      -7.001  -1.855 122.819  0.00  0.00    +0.012 A 
ATOM      7  C   LIG A   1      -5.795  -2.480 122.475  0.00  0.00    +0.001 A 
ATOM      8  C   LIG A   1      -4.975  -3.004 123.460  0.00  0.00    +0.001 A 
ATOM      9  C   LIG A   1      -5.335  -2.871 124.791  0.00  0.00    +0.012 A 
ATOM     10  C   LIG A   1      -6.540  -2.234 125.171  0.00  0.00    +0.027 A 
ENDROOT
BRANCH   1  11
ATOM     11  O   LIG A   1      -5.993  -2.497 127.490  0.00  0.00    -0.506 OA
ATOM     12  H   LIG A   1      -6.134  -1.967 128.291  0.00  0.00    +0.292 HD
ENDBRANCH   1  11
BRANCH   4  13
ATOM     13  O   LIG A   1      -9.504  -0.662 123.575  0.00  0.00    -0.489 OA
BRANCH  13  14
ATOM     14  C   LIG A   1      -9.109   0.576 122.948  0.00  0.00    +0.261 C 
BRANCH  14  15
ATOM     15  C   LIG A   1      -9.830   1.805 123.545  0.00  0.00    +0.166 C 
BRANCH  15  16
ATOM     16  O   LIG A   1     -11.093   1.413 124.104  0.00  0.00    -0.387 OA
ATOM     17  H   LIG A   1     -11.757   2.032 123.754  0.00  0.00    +0.210 HD
ENDBRANCH  15  16
BRANCH  15  18
ATOM     18  C   LIG A   1      -8.978   2.520 124.612  0.00  0.00    +0.115 C 
BRANCH  18  19
ATOM     19  N   LIG A   1      -8.300   3.706 124.065  0.00  0.00    -0.311 NA
ATOM     20  H   LIG A   1      -8.496   4.514 124.661  0.00  0.00    +0.122 HD
BRANCH  19  21
ATOM     21  C   LIG A   1      -6.857   3.525 123.863  0.00  0.00    +0.048 C 
ATOM     22  C   LIG A   1      -6.363   2.390 124.768  0.00  0.00    +0.024 C 
ATOM     23  C   LIG A   1      -6.467   3.217 122.415  0.00  0.00    +0.024 C 
ENDBRANCH  19  21
ENDBRANCH  18  19
ENDBRANCH  15  18
ENDBRANCH  14  15
ENDBRANCH  13  14
ENDBRANCH   4  13
TORSDOF 8
ENDMDL
MODEL 8
REMARK VINA RESULT:      -6.1      4.102      7.481
REMARK  Name = NuBBE_1126
REMARK  10 active torsions:
REMARK  status: ('A' for Active; 'I' for Inactive)
REMARK    1  A    between atoms: O_1  and  C_2
REMARK    2  A    between atoms: C_5  and  O_12
REMARK    3  A    between atoms: O_12  and  C_13
REMARK    4  A    between atoms: C_13  and  C_14
REMARK    5  A    between atoms: C_14  and  O_16
REMARK    6  A    between atoms: C_14  and  C_17
REMARK    7  A    between atoms: C_17  and  N_18
REMARK    8  A    between atoms: N_18  and  C_19
REMARK    9  A    between atoms: C_19  and  C_20
REMARK   10  A    between atoms: C_19  and  C_21
REMARK                            x       y       z     vdW  Elec       q    Type
REMARK                         _______ _______ _______ _____ _____    ______ ____
ROOT
ATOM      1  C   LIG A   1      -5.864  -1.104 127.657  0.00  0.00    +0.125 A 
ATOM      2  C   LIG A   1      -5.358  -0.637 126.452  0.00  0.00    +0.049 A 
ATOM      3  C   LIG A   1      -5.889  -1.110 125.248  0.00  0.00    +0.050 A 
ATOM      4  C   LIG A   1      -6.889  -2.090 125.237  0.00  0.00    +0.129 A 
ATOM      5  C   LIG A   1      -7.426  -2.563 126.479  0.00  0.00    +0.027 A 
ATOM      6  C   LIG A   1      -8.453  -3.535 126.579  0.00  0.00    +0.012 A 
ATOM      7  C   LIG A   1      -8.978  -3.928 127.816  0.00  0.00    +0.001 A 
ATOM      8  C   LIG A   1      -8.503  -3.362 128.988  0.00  0.00    +0.001 A 
ATOM      9  C   LIG A   1      -7.475  -2.434 128.930  0.00  0.00    +0.012 A 
ATOM     10  C   LIG A   1      -6.916  -2.027 127.696  0.00  0.00    +0.027 A 
ENDROOT
BRANCH   1  11
ATOM     11  O   LIG A   1      -5.316  -0.650 128.833  0.00  0.00    -0.506 OA
ATOM     12  H   LIG A   1      -4.417  -1.006 128.921  0.00  0.00    +0.292 HD
ENDBRANCH   1  11
BRANCH   4  13
ATOM     13  O   LIG A   1      -7.400  -2.630 124.063  0.00  0.00    -0.489 OA
BRANCH  13  14
ATOM     14  C   LIG A   1      -7.599  -1.713 122.966  0.00  0.00    +0.261 C 
BRANCH  14  15
ATOM     15  C   LIG A   1      -9.090  -1.404 122.708  0.00  0.00    +0.166 C 
BRANCH  15  16
ATOM     16  O   LIG A   1      -9.918  -2.254 123.516  0.00  0.00    -0.387 OA
ATOM     17  H   LIG A   1     -10.531  -1.672 123.996  0.00  0.00    +0.210 HD
ENDBRANCH  15  16
BRANCH  15  18
ATOM     18  C   LIG A   1      -9.434   0.075 122.971  0.00  0.00    +0.115 C 
BRANCH  18  19
ATOM     19  N   LIG A   1      -9.990   0.275 124.319  0.00  0.00    -0.311 NA
ATOM     20  H   LIG A   1      -9.985  -0.614 124.823  0.00  0.00    +0.122 HD
BRANCH  19  21
ATOM     21  C   LIG A   1      -9.321   1.333 125.086  0.00  0.00    +0.048 C 
ATOM     22  C   LIG A   1      -8.938   0.785 126.465  0.00  0.00    +0.024 C 
ATOM     23  C   LIG A   1      -8.072   1.898 124.405  0.00  0.00    +0.024 C 
ENDBRANCH  19  21
ENDBRANCH  18  19
ENDBRANCH  15  18
ENDBRANCH  14  15
ENDBRANCH  13  14
ENDBRANCH   4  13
TORSDOF 8
ENDMDL
MODEL 9
REMARK VINA RESULT:      -6.1      3.187      6.439
REMARK  Name = NuBBE_1126
REMARK  10 active torsions:
REMARK  status: ('A' for Active; 'I' for Inactive)
REMARK    1  A    between atoms: O_1  and  C_2
REMARK    2  A    between atoms: C_5  and  O_12
REMARK    3  A    between atoms: O_12  and  C_13
REMARK    4  A    between atoms: C_13  and  C_14
REMARK    5  A    between atoms: C_14  and  O_16
REMARK    6  A    between atoms: C_14  and  C_17
REMARK    7  A    between atoms: C_17  and  N_18
REMARK    8  A    between atoms: N_18  and  C_19
REMARK    9  A    between atoms: C_19  and  C_20
REMARK   10  A    between atoms: C_19  and  C_21
REMARK                            x       y       z     vdW  Elec       q    Type
REMARK                         _______ _______ _______ _____ _____    ______ ____
ROOT
ATOM      1  C   LIG A   1      -9.664   0.616 122.897  0.00  0.00    +0.125 A 
ATOM      2  C   LIG A   1      -9.588   2.002 122.844  0.00  0.00    +0.049 A 
ATOM      3  C   LIG A   1      -8.434   2.651 123.293  0.00  0.00    +0.050 A 
ATOM      4  C   LIG A   1      -7.371   1.927 123.849  0.00  0.00    +0.129 A 
ATOM      5  C   LIG A   1      -7.438   0.496 123.890  0.00  0.00    +0.027 A 
ATOM      6  C   LIG A   1      -6.410  -0.330 124.411  0.00  0.00    +0.012 A 
ATOM      7  C   LIG A   1      -6.503  -1.728 124.384  0.00  0.00    +0.001 A 
ATOM      8  C   LIG A   1      -7.615  -2.343 123.834  0.00  0.00    +0.001 A 
ATOM      9  C   LIG A   1      -8.655  -1.566 123.348  0.00  0.00    +0.012 A 
ATOM     10  C   LIG A   1      -8.596  -0.153 123.373  0.00  0.00    +0.027 A 
ENDROOT
BRANCH   1  11
ATOM     11  O   LIG A   1     -10.814  -0.007 122.475  0.00  0.00    -0.506 OA
ATOM     12  H   LIG A   1     -11.559   0.609 122.567  0.00  0.00    +0.292 HD
ENDBRANCH   1  11
BRANCH   4  13
ATOM     13  O   LIG A   1      -6.233   2.538 124.362  0.00  0.00    -0.489 OA
BRANCH  13  14
ATOM     14  C   LIG A   1      -5.885   3.822 123.804  0.00  0.00    +0.261 C 
BRANCH  14  15
ATOM     15  C   LIG A   1      -5.583   4.882 124.886  0.00  0.00    +0.166 C 
BRANCH  15  16
ATOM     16  O   LIG A   1      -6.708   5.759 125.046  0.00  0.00    -0.387 OA
ATOM     17  H   LIG A   1      -7.409   5.423 124.462  0.00  0.00    +0.210 HD
ENDBRANCH  15  16
BRANCH  15  18
ATOM     18  C   LIG A   1      -5.212   4.245 126.240  0.00  0.00    +0.115 C 
BRANCH  18  19
ATOM     19  N   LIG A   1      -4.089   3.304 126.111  0.00  0.00    -0.311 NA
ATOM     20  H   LIG A   1      -3.702   3.364 125.166  0.00  0.00    +0.122 HD
BRANCH  19  21
ATOM     21  C   LIG A   1      -3.047   3.479 127.131  0.00  0.00    +0.048 C 
ATOM     22  C   LIG A   1      -1.713   2.966 126.577  0.00  0.00    +0.024 C 
ATOM     23  C   LIG A   1      -2.873   4.926 127.599  0.00  0.00    +0.024 C 
ENDBRANCH  19  21
ENDBRANCH  18  19
ENDBRANCH  15  18
ENDBRANCH  14  15
ENDBRANCH  13  14
ENDBRANCH   4  13
TORSDOF 8
ENDMDL
