MODEL 1
REMARK VINA RESULT:      -8.9      0.000      0.000
REMARK  Name = NuBBE_471
REMARK  15 active torsions:
REMARK  status: ('A' for Active; 'I' for Inactive)
REMARK    1  A    between atoms: C_4  and  C_5
REMARK    2  A    between atoms: C_12  and  O_13
REMARK    3  A    between atoms: C_16  and  C_24
REMARK    4  A    between atoms: C_18  and  C_23
REMARK    5  A    between atoms: C_28  and  C_29
REMARK    6  A    between atoms: C_30  and  C_31
REMARK    7  A    between atoms: C_31  and  C_33
REMARK    8  A    between atoms: C_31  and  C_34
REMARK    9  A    between atoms: C_34  and  O_36
REMARK   10  A    between atoms: C_34  and  C_49
REMARK   11  A    between atoms: O_36  and  C_37
REMARK   12  A    between atoms: C_37  and  C_38
REMARK   13  A    between atoms: C_38  and  O_39
REMARK   14  A    between atoms: C_38  and  C_41
REMARK   15  A    between atoms: O_39  and  C_40
REMARK                            x       y       z     vdW  Elec       q    Type
REMARK                         _______ _______ _______ _____ _____    ______ ____
ROOT
ATOM      1 CL   LIG A   1      -4.116   0.111 129.975  0.00  0.00    -0.079 Cl
ATOM      2  C   LIG A   1      -5.447  -0.128 128.894  0.00  0.00    +0.094 C 
ATOM      3  C   LIG A   1      -5.604  -1.534 128.363  0.00  0.00    +0.207 C 
ATOM      4  C   LIG A   1      -6.968  -1.863 127.735  0.00  0.00    +0.141 C 
ATOM      5  C   LIG A   1      -7.985  -2.094 128.868  0.00  0.00    +0.051 C 
ATOM      6  C   LIG A   1      -7.260  -0.704 126.788  0.00  0.00    +0.081 C 
ATOM      7  C   LIG A   1      -7.422   0.557 127.588  0.00  0.00    +0.003 C 
ATOM      8  C   LIG A   1      -8.420   1.450 127.489  0.00  0.00    +0.200 C 
ATOM      9  O   LIG A   1      -8.477   2.628 128.211  0.00  0.00    -0.463 OA
ATOM     10  O   LIG A   1      -7.006  -3.009 126.887  0.00  0.00    -0.333 OA
ATOM     11  C   LIG A   1      -7.951  -2.763 125.837  0.00  0.00    +0.188 C 
ATOM     12  C   LIG A   1      -8.331  -1.281 125.862  0.00  0.00    +0.168 C 
ATOM     13  C   LIG A   1      -7.398  -3.287 124.512  0.00  0.00    +0.086 C 
ATOM     14  C   LIG A   1      -8.241  -2.734 123.367  0.00  0.00    +0.181 C 
ATOM     15  O   LIG A   1      -8.238  -1.297 123.389  0.00  0.00    -0.461 OA
ATOM     16  C   LIG A   1      -8.318  -0.576 124.525  0.00  0.00    +0.316 C 
ATOM     17  O   LIG A   1      -8.383   0.649 124.460  0.00  0.00    -0.250 OA
ATOM     18  C   LIG A   1      -9.683  -3.225 123.304  0.00  0.00    +0.052 C 
ATOM     19  C   LIG A   1      -5.916  -2.928 124.305  0.00  0.00    +0.016 C 
ATOM     20  O   LIG A   1      -4.699  -2.363 128.440  0.00  0.00    -0.288 OA
ATOM     21  C   LIG A   1      -6.345   0.834 128.569  0.00  0.00    +0.007 C 
ATOM     22  C   LIG A   1      -6.310   2.182 129.142  0.00  0.00    +0.056 C 
ATOM     23  C   LIG A   1      -7.363   3.001 128.965  0.00  0.00    +0.128 C 
ENDROOT
BRANCH  11  24
ATOM     24  O   LIG A   1      -9.106  -3.518 126.187  0.00  0.00    -0.363 OA
ATOM     25  H   LIG A   1      -9.762  -3.313 125.496  0.00  0.00    +0.213 HD
ENDBRANCH  11  24
BRANCH  23  26
ATOM     26  C   LIG A   1      -7.416   4.333 129.540  0.00  0.00    +0.042 C 
ATOM     27  C   LIG A   1      -6.499   4.816 130.392  0.00  0.00    -0.017 C 
BRANCH  27  28
ATOM     28  C   LIG A   1      -6.459   6.220 130.962  0.00  0.00    +0.049 C 
ATOM     29  C   LIG A   1      -7.661   6.399 131.896  0.00  0.00    +0.015 C 
BRANCH  28  30
ATOM     30  C   LIG A   1      -5.100   6.478 131.675  0.00  0.00    +0.180 C 
ATOM     31  C   LIG A   1      -5.166   6.195 133.176  0.00  0.00    +0.052 C 
BRANCH  30  32
ATOM     32  O   LIG A   1      -4.088   5.622 131.091  0.00  0.00    -0.459 OA
BRANCH  32  33
ATOM     33  C   LIG A   1      -2.943   6.241 130.627  0.00  0.00    +0.341 C 
ATOM     34  O   LIG A   1      -1.948   6.466 131.298  0.00  0.00    -0.247 OA
BRANCH  33  35
ATOM     35  C   LIG A   1      -3.121   6.615 129.129  0.00  0.00    +0.256 C 
BRANCH  35  36
ATOM     36  C   LIG A   1      -3.429   5.383 128.286  0.00  0.00    -0.008 A 
ATOM     37  C   LIG A   1      -2.685   4.201 128.434  0.00  0.00    +0.007 A 
ATOM     38  C   LIG A   1      -2.950   3.089 127.629  0.00  0.00    +0.000 A 
ATOM     39  C   LIG A   1      -3.964   3.138 126.676  0.00  0.00    +0.000 A 
ATOM     40  C   LIG A   1      -4.712   4.302 126.518  0.00  0.00    +0.000 A 
ATOM     41  C   LIG A   1      -4.444   5.418 127.314  0.00  0.00    +0.007 A 
ENDBRANCH  35  36
BRANCH  35  42
ATOM     42  O   LIG A   1      -4.084   7.603 128.757  0.00  0.00    -0.364 OA
ATOM     43  C   LIG A   1      -3.867   8.871 129.349  0.00  0.00    +0.195 C 
ENDBRANCH  35  42
ENDBRANCH  33  35
ENDBRANCH  32  33
ENDBRANCH  30  32
ENDBRANCH  28  30
ENDBRANCH  27  28
ENDBRANCH  23  26
TORSDOF 9
ENDMDL
MODEL 2
REMARK VINA RESULT:      -8.8      2.855      4.319
REMARK  Name = NuBBE_471
REMARK  15 active torsions:
REMARK  status: ('A' for Active; 'I' for Inactive)
REMARK    1  A    between atoms: C_4  and  C_5
REMARK    2  A    between atoms: C_12  and  O_13
REMARK    3  A    between atoms: C_16  and  C_24
REMARK    4  A    between atoms: C_18  and  C_23
REMARK    5  A    between atoms: C_28  and  C_29
REMARK    6  A    between atoms: C_30  and  C_31
REMARK    7  A    between atoms: C_31  and  C_33
REMARK    8  A    between atoms: C_31  and  C_34
REMARK    9  A    between atoms: C_34  and  O_36
REMARK   10  A    between atoms: C_34  and  C_49
REMARK   11  A    between atoms: O_36  and  C_37
REMARK   12  A    between atoms: C_37  and  C_38
REMARK   13  A    between atoms: C_38  and  O_39
REMARK   14  A    between atoms: C_38  and  C_41
REMARK   15  A    between atoms: O_39  and  C_40
REMARK                            x       y       z     vdW  Elec       q    Type
REMARK                         _______ _______ _______ _____ _____    ______ ____
ROOT
ATOM      1 CL   LIG A   1      -4.299   0.773 130.245  0.00  0.00    -0.079 Cl
ATOM      2  C   LIG A   1      -5.598   0.362 129.177  0.00  0.00    +0.094 C 
ATOM      3  C   LIG A   1      -5.603  -1.067 128.684  0.00  0.00    +0.207 C 
ATOM      4  C   LIG A   1      -6.924  -1.558 128.071  0.00  0.00    +0.141 C 
ATOM      5  C   LIG A   1      -7.908  -1.868 129.214  0.00  0.00    +0.051 C 
ATOM      6  C   LIG A   1      -7.342  -0.464 127.095  0.00  0.00    +0.081 C 
ATOM      7  C   LIG A   1      -7.638   0.794 127.862  0.00  0.00    +0.003 C 
ATOM      8  C   LIG A   1      -8.727   1.570 127.744  0.00  0.00    +0.200 C 
ATOM      9  O   LIG A   1      -8.910   2.754 128.436  0.00  0.00    -0.463 OA
ATOM     10  O   LIG A   1      -6.840  -2.724 127.254  0.00  0.00    -0.333 OA
ATOM     11  C   LIG A   1      -7.807  -2.610 126.202  0.00  0.00    +0.188 C 
ATOM     12  C   LIG A   1      -8.345  -1.177 126.190  0.00  0.00    +0.168 C 
ATOM     13  C   LIG A   1      -7.203  -3.106 124.889  0.00  0.00    +0.086 C 
ATOM     14  C   LIG A   1      -8.103  -2.678 123.734  0.00  0.00    +0.181 C 
ATOM     15  O   LIG A   1      -8.256  -1.250 123.718  0.00  0.00    -0.461 OA
ATOM     16  C   LIG A   1      -8.411  -0.511 124.834  0.00  0.00    +0.316 C 
ATOM     17  O   LIG A   1      -8.608   0.697 124.737  0.00  0.00    -0.250 OA
ATOM     18  C   LIG A   1      -9.484  -3.324 123.691  0.00  0.00    +0.052 C 
ATOM     19  C   LIG A   1      -5.769  -2.594 124.666  0.00  0.00    +0.016 C 
ATOM     20  O   LIG A   1      -4.613  -1.791 128.778  0.00  0.00    -0.288 OA
ATOM     21  C   LIG A   1      -6.595   1.212 128.830  0.00  0.00    +0.007 C 
ATOM     22  C   LIG A   1      -6.705   2.570 129.367  0.00  0.00    +0.056 C 
ATOM     23  C   LIG A   1      -7.842   3.266 129.174  0.00  0.00    +0.128 C 
ENDROOT
BRANCH  11  24
ATOM     24  O   LIG A   1      -8.873  -3.475 126.578  0.00  0.00    -0.363 OA
ATOM     25  H   LIG A   1      -8.756  -4.274 126.031  0.00  0.00    +0.213 HD
ENDBRANCH  11  24
BRANCH  23  26
ATOM     26  C   LIG A   1      -8.038   4.600 129.714  0.00  0.00    +0.042 C 
ATOM     27  C   LIG A   1      -9.223   5.228 129.740  0.00  0.00    -0.017 C 
BRANCH  27  28
ATOM     28  C   LIG A   1      -9.503   6.583 130.358  0.00  0.00    +0.049 C 
ATOM     29  C   LIG A   1     -10.055   7.509 129.269  0.00  0.00    +0.015 C 
BRANCH  28  30
ATOM     30  C   LIG A   1     -10.469   6.437 131.570  0.00  0.00    +0.180 C 
ATOM     31  C   LIG A   1     -11.916   6.197 131.136  0.00  0.00    +0.052 C 
BRANCH  30  32
ATOM     32  O   LIG A   1     -10.043   5.320 132.385  0.00  0.00    -0.459 OA
BRANCH  32  33
ATOM     33  C   LIG A   1      -8.861   5.474 133.084  0.00  0.00    +0.341 C 
ATOM     34  O   LIG A   1      -8.083   6.404 132.945  0.00  0.00    -0.247 OA
BRANCH  33  35
ATOM     35  C   LIG A   1      -8.671   4.281 134.061  0.00  0.00    +0.256 C 
BRANCH  35  36
ATOM     36  C   LIG A   1      -8.553   2.962 133.305  0.00  0.00    -0.008 A 
ATOM     37  C   LIG A   1      -9.632   2.456 132.562  0.00  0.00    +0.007 A 
ATOM     38  C   LIG A   1      -9.527   1.227 131.903  0.00  0.00    +0.000 A 
ATOM     39  C   LIG A   1      -8.345   0.494 131.970  0.00  0.00    +0.000 A 
ATOM     40  C   LIG A   1      -7.265   0.982 132.702  0.00  0.00    +0.000 A 
ATOM     41  C   LIG A   1      -7.370   2.205 133.369  0.00  0.00    +0.007 A 
ENDBRANCH  35  36
BRANCH  35  42
ATOM     42  O   LIG A   1      -7.592   4.299 134.998  0.00  0.00    -0.364 OA
ATOM     43  C   LIG A   1      -7.619   5.404 135.885  0.00  0.00    +0.195 C 
ENDBRANCH  35  42
ENDBRANCH  33  35
ENDBRANCH  32  33
ENDBRANCH  30  32
ENDBRANCH  28  30
ENDBRANCH  27  28
ENDBRANCH  23  26
TORSDOF 9
ENDMDL
MODEL 3
REMARK VINA RESULT:      -8.7      3.219      8.875
REMARK  Name = NuBBE_471
REMARK  15 active torsions:
REMARK  status: ('A' for Active; 'I' for Inactive)
REMARK    1  A    between atoms: C_4  and  C_5
REMARK    2  A    between atoms: C_12  and  O_13
REMARK    3  A    between atoms: C_16  and  C_24
REMARK    4  A    between atoms: C_18  and  C_23
REMARK    5  A    between atoms: C_28  and  C_29
REMARK    6  A    between atoms: C_30  and  C_31
REMARK    7  A    between atoms: C_31  and  C_33
REMARK    8  A    between atoms: C_31  and  C_34
REMARK    9  A    between atoms: C_34  and  O_36
REMARK   10  A    between atoms: C_34  and  C_49
REMARK   11  A    between atoms: O_36  and  C_37
REMARK   12  A    between atoms: C_37  and  C_38
REMARK   13  A    between atoms: C_38  and  O_39
REMARK   14  A    between atoms: C_38  and  C_41
REMARK   15  A    between atoms: O_39  and  C_40
REMARK                            x       y       z     vdW  Elec       q    Type
REMARK                         _______ _______ _______ _____ _____    ______ ____
ROOT
ATOM      1 CL   LIG A   1      -5.208   3.517 134.734  0.00  0.00    -0.079 Cl
ATOM      2  C   LIG A   1      -6.027   3.945 133.271  0.00  0.00    +0.094 C 
ATOM      3  C   LIG A   1      -6.787   5.252 133.313  0.00  0.00    +0.207 C 
ATOM      4  C   LIG A   1      -7.183   5.839 131.949  0.00  0.00    +0.141 C 
ATOM      5  C   LIG A   1      -5.940   6.494 131.319  0.00  0.00    +0.051 C 
ATOM      6  C   LIG A   1      -7.802   4.678 131.179  0.00  0.00    +0.081 C 
ATOM      7  C   LIG A   1      -6.749   3.633 130.934  0.00  0.00    +0.003 C 
ATOM      8  C   LIG A   1      -6.467   3.035 129.766  0.00  0.00    +0.200 C 
ATOM      9  O   LIG A   1      -5.527   2.032 129.620  0.00  0.00    -0.463 OA
ATOM     10  O   LIG A   1      -8.218   6.821 131.968  0.00  0.00    -0.333 OA
ATOM     11  C   LIG A   1      -8.988   6.688 130.766  0.00  0.00    +0.188 C 
ATOM     12  C   LIG A   1      -8.592   5.380 130.076  0.00  0.00    +0.168 C 
ATOM     13  C   LIG A   1     -10.474   6.850 131.084  0.00  0.00    +0.086 C 
ATOM     14  C   LIG A   1     -11.294   6.383 129.884  0.00  0.00    +0.181 C 
ATOM     15  O   LIG A   1     -10.985   5.017 129.565  0.00  0.00    -0.461 OA
ATOM     16  C   LIG A   1      -9.736   4.514 129.602  0.00  0.00    +0.316 C 
ATOM     17  O   LIG A   1      -9.540   3.355 129.246  0.00  0.00    -0.250 OA
ATOM     18  C   LIG A   1     -11.165   7.228 128.621  0.00  0.00    +0.052 C 
ATOM     19  C   LIG A   1     -10.896   6.082 132.349  0.00  0.00    +0.016 C 
ATOM     20  O   LIG A   1      -7.059   5.811 134.374  0.00  0.00    -0.288 OA
ATOM     21  C   LIG A   1      -5.968   3.223 132.126  0.00  0.00    +0.007 C 
ATOM     22  C   LIG A   1      -5.156   2.011 131.991  0.00  0.00    +0.056 C 
ATOM     23  C   LIG A   1      -4.951   1.487 130.769  0.00  0.00    +0.128 C 
ENDROOT
BRANCH  11  24
ATOM     24  O   LIG A   1      -8.573   7.766 129.934  0.00  0.00    -0.363 OA
ATOM     25  H   LIG A   1      -7.841   8.191 130.417  0.00  0.00    +0.213 HD
ENDBRANCH  11  24
BRANCH  23  26
ATOM     26  C   LIG A   1      -4.122   0.313 130.555  0.00  0.00    +0.042 C 
ATOM     27  C   LIG A   1      -4.321  -0.863 131.170  0.00  0.00    -0.017 C 
BRANCH  27  28
ATOM     28  C   LIG A   1      -3.540  -2.139 130.930  0.00  0.00    +0.049 C 
ATOM     29  C   LIG A   1      -3.976  -3.178 131.970  0.00  0.00    +0.015 C 
BRANCH  28  30
ATOM     30  C   LIG A   1      -3.743  -2.632 129.467  0.00  0.00    +0.180 C 
ATOM     31  C   LIG A   1      -2.722  -3.697 129.064  0.00  0.00    +0.052 C 
BRANCH  30  32
ATOM     32  O   LIG A   1      -5.069  -3.195 129.335  0.00  0.00    -0.459 OA
BRANCH  32  33
ATOM     33  C   LIG A   1      -5.918  -2.582 128.433  0.00  0.00    +0.341 C 
ATOM     34  O   LIG A   1      -5.561  -1.988 127.428  0.00  0.00    -0.247 OA
BRANCH  33  35
ATOM     35  C   LIG A   1      -7.391  -2.754 128.900  0.00  0.00    +0.256 C 
BRANCH  35  36
ATOM     36  C   LIG A   1      -7.696  -1.865 130.100  0.00  0.00    -0.008 A 
ATOM     37  C   LIG A   1      -8.092  -0.529 129.928  0.00  0.00    +0.007 A 
ATOM     38  C   LIG A   1      -8.333   0.290 131.036  0.00  0.00    +0.000 A 
ATOM     39  C   LIG A   1      -8.191  -0.216 132.326  0.00  0.00    +0.000 A 
ATOM     40  C   LIG A   1      -7.799  -1.539 132.514  0.00  0.00    +0.000 A 
ATOM     41  C   LIG A   1      -7.549  -2.357 131.410  0.00  0.00    +0.007 A 
ENDBRANCH  35  36
BRANCH  35  42
ATOM     42  O   LIG A   1      -8.456  -2.547 127.971  0.00  0.00    -0.364 OA
ATOM     43  C   LIG A   1      -8.696  -3.650 127.114  0.00  0.00    +0.195 C 
ENDBRANCH  35  42
ENDBRANCH  33  35
ENDBRANCH  32  33
ENDBRANCH  30  32
ENDBRANCH  28  30
ENDBRANCH  27  28
ENDBRANCH  23  26
TORSDOF 9
ENDMDL
MODEL 4
REMARK VINA RESULT:      -8.2      2.230      8.971
REMARK  Name = NuBBE_471
REMARK  15 active torsions:
REMARK  status: ('A' for Active; 'I' for Inactive)
REMARK    1  A    between atoms: C_4  and  C_5
REMARK    2  A    between atoms: C_12  and  O_13
REMARK    3  A    between atoms: C_16  and  C_24
REMARK    4  A    between atoms: C_18  and  C_23
REMARK    5  A    between atoms: C_28  and  C_29
REMARK    6  A    between atoms: C_30  and  C_31
REMARK    7  A    between atoms: C_31  and  C_33
REMARK    8  A    between atoms: C_31  and  C_34
REMARK    9  A    between atoms: C_34  and  O_36
REMARK   10  A    between atoms: C_34  and  C_49
REMARK   11  A    between atoms: O_36  and  C_37
REMARK   12  A    between atoms: C_37  and  C_38
REMARK   13  A    between atoms: C_38  and  O_39
REMARK   14  A    between atoms: C_38  and  C_41
REMARK   15  A    between atoms: O_39  and  C_40
REMARK                            x       y       z     vdW  Elec       q    Type
REMARK                         _______ _______ _______ _____ _____    ______ ____
ROOT
ATOM      1 CL   LIG A   1     -10.098   4.151 130.348  0.00  0.00    -0.079 Cl
ATOM      2  C   LIG A   1      -8.398   4.113 130.673  0.00  0.00    +0.094 C 
ATOM      3  C   LIG A   1      -7.841   5.345 131.350  0.00  0.00    +0.207 C 
ATOM      4  C   LIG A   1      -6.454   5.185 131.993  0.00  0.00    +0.141 C 
ATOM      5  C   LIG A   1      -6.617   4.432 133.326  0.00  0.00    +0.051 C 
ATOM      6  C   LIG A   1      -5.598   4.505 130.930  0.00  0.00    +0.081 C 
ATOM      7  C   LIG A   1      -6.139   3.127 130.670  0.00  0.00    +0.003 C 
ATOM      8  C   LIG A   1      -5.438   1.982 130.631  0.00  0.00    +0.200 C 
ATOM      9  O   LIG A   1      -5.986   0.751 130.322  0.00  0.00    -0.463 OA
ATOM     10  O   LIG A   1      -5.750   6.394 132.269  0.00  0.00    -0.333 OA
ATOM     11  C   LIG A   1      -4.348   6.152 132.089  0.00  0.00    +0.188 C 
ATOM     12  C   LIG A   1      -4.173   4.797 131.399  0.00  0.00    +0.168 C 
ATOM     13  C   LIG A   1      -3.705   7.346 131.386  0.00  0.00    +0.086 C 
ATOM     14  C   LIG A   1      -2.311   6.950 130.906  0.00  0.00    +0.181 C 
ATOM     15  O   LIG A   1      -2.387   5.817 130.025  0.00  0.00    -0.461 OA
ATOM     16  C   LIG A   1      -3.211   4.772 130.234  0.00  0.00    +0.316 C 
ATOM     17  O   LIG A   1      -3.167   3.807 129.476  0.00  0.00    -0.250 OA
ATOM     18  C   LIG A   1      -1.288   6.659 131.999  0.00  0.00    +0.052 C 
ATOM     19  C   LIG A   1      -4.548   7.864 130.207  0.00  0.00    +0.016 C 
ATOM     20  O   LIG A   1      -8.467   6.403 131.390  0.00  0.00    -0.288 OA
ATOM     21  C   LIG A   1      -7.597   3.051 130.413  0.00  0.00    +0.007 C 
ATOM     22  C   LIG A   1      -8.102   1.789 129.865  0.00  0.00    +0.056 C 
ATOM     23  C   LIG A   1      -7.303   0.706 129.862  0.00  0.00    +0.128 C 
ENDROOT
BRANCH  11  24
ATOM     24  O   LIG A   1      -3.815   6.046 133.404  0.00  0.00    -0.363 OA
ATOM     25  H   LIG A   1      -2.930   6.453 133.353  0.00  0.00    +0.213 HD
ENDBRANCH  11  24
BRANCH  23  26
ATOM     26  C   LIG A   1      -7.750  -0.587 129.374  0.00  0.00    +0.042 C 
ATOM     27  C   LIG A   1      -7.149  -1.259 128.381  0.00  0.00    -0.017 C 
BRANCH  27  28
ATOM     28  C   LIG A   1      -7.521  -2.641 127.883  0.00  0.00    +0.049 C 
ATOM     29  C   LIG A   1      -8.420  -3.309 128.930  0.00  0.00    +0.015 C 
BRANCH  28  30
ATOM     30  C   LIG A   1      -8.195  -2.550 126.483  0.00  0.00    +0.180 C 
ATOM     31  C   LIG A   1      -9.492  -3.357 126.406  0.00  0.00    +0.052 C 
BRANCH  30  32
ATOM     32  O   LIG A   1      -8.499  -1.165 126.191  0.00  0.00    -0.459 OA
BRANCH  32  33
ATOM     33  C   LIG A   1      -8.437  -0.781 124.865  0.00  0.00    +0.341 C 
ATOM     34  O   LIG A   1      -9.378  -0.795 124.088  0.00  0.00    -0.247 OA
BRANCH  33  35
ATOM     35  C   LIG A   1      -6.987  -0.342 124.515  0.00  0.00    +0.256 C 
BRANCH  35  36
ATOM     36  C   LIG A   1      -6.529   0.806 125.407  0.00  0.00    -0.008 A 
ATOM     37  C   LIG A   1      -5.276   0.774 126.040  0.00  0.00    +0.007 A 
ATOM     38  C   LIG A   1      -4.880   1.814 126.887  0.00  0.00    +0.000 A 
ATOM     39  C   LIG A   1      -5.724   2.900 127.106  0.00  0.00    +0.000 A 
ATOM     40  C   LIG A   1      -6.970   2.948 126.485  0.00  0.00    +0.000 A 
ATOM     41  C   LIG A   1      -7.372   1.907 125.645  0.00  0.00    +0.007 A 
ENDBRANCH  35  36
BRANCH  35  42
ATOM     42  O   LIG A   1      -5.932  -1.305 124.533  0.00  0.00    -0.364 OA
ATOM     43  C   LIG A   1      -5.949  -2.199 123.434  0.00  0.00    +0.195 C 
ENDBRANCH  35  42
ENDBRANCH  33  35
ENDBRANCH  32  33
ENDBRANCH  30  32
ENDBRANCH  28  30
ENDBRANCH  27  28
ENDBRANCH  23  26
TORSDOF 9
ENDMDL
MODEL 5
REMARK VINA RESULT:      -8.2      1.955      3.760
REMARK  Name = NuBBE_471
REMARK  15 active torsions:
REMARK  status: ('A' for Active; 'I' for Inactive)
REMARK    1  A    between atoms: C_4  and  C_5
REMARK    2  A    between atoms: C_12  and  O_13
REMARK    3  A    between atoms: C_16  and  C_24
REMARK    4  A    between atoms: C_18  and  C_23
REMARK    5  A    between atoms: C_28  and  C_29
REMARK    6  A    between atoms: C_30  and  C_31
REMARK    7  A    between atoms: C_31  and  C_33
REMARK    8  A    between atoms: C_31  and  C_34
REMARK    9  A    between atoms: C_34  and  O_36
REMARK   10  A    between atoms: C_34  and  C_49
REMARK   11  A    between atoms: O_36  and  C_37
REMARK   12  A    between atoms: C_37  and  C_38
REMARK   13  A    between atoms: C_38  and  O_39
REMARK   14  A    between atoms: C_38  and  C_41
REMARK   15  A    between atoms: O_39  and  C_40
REMARK                            x       y       z     vdW  Elec       q    Type
REMARK                         _______ _______ _______ _____ _____    ______ ____
ROOT
ATOM      1 CL   LIG A   1      -4.161  -0.379 130.191  0.00  0.00    -0.079 Cl
ATOM      2  C   LIG A   1      -5.485  -0.510 129.083  0.00  0.00    +0.094 C 
ATOM      3  C   LIG A   1      -5.692  -1.881 128.482  0.00  0.00    +0.207 C 
ATOM      4  C   LIG A   1      -7.059  -2.121 127.821  0.00  0.00    +0.141 C 
ATOM      5  C   LIG A   1      -8.101  -2.365 128.928  0.00  0.00    +0.051 C 
ATOM      6  C   LIG A   1      -7.289  -0.907 126.928  0.00  0.00    +0.081 C 
ATOM      7  C   LIG A   1      -7.411   0.320 127.787  0.00  0.00    +0.003 C 
ATOM      8  C   LIG A   1      -8.369   1.257 127.719  0.00  0.00    +0.200 C 
ATOM      9  O   LIG A   1      -8.389   2.400 128.498  0.00  0.00    -0.463 OA
ATOM     10  O   LIG A   1      -7.132  -3.223 126.918  0.00  0.00    -0.333 OA
ATOM     11  C   LIG A   1      -8.050  -2.887 125.869  0.00  0.00    +0.188 C 
ATOM     12  C   LIG A   1      -8.369  -1.393 125.962  0.00  0.00    +0.168 C 
ATOM     13  C   LIG A   1      -7.500  -3.369 124.527  0.00  0.00    +0.086 C 
ATOM     14  C   LIG A   1      -8.302  -2.726 123.400  0.00  0.00    +0.181 C 
ATOM     15  O   LIG A   1      -8.241  -1.294 123.493  0.00  0.00    -0.461 OA
ATOM     16  C   LIG A   1      -8.307  -0.626 124.661  0.00  0.00    +0.316 C 
ATOM     17  O   LIG A   1      -8.321   0.603 124.655  0.00  0.00    -0.250 OA
ATOM     18  C   LIG A   1      -9.762  -3.153 123.295  0.00  0.00    +0.052 C 
ATOM     19  C   LIG A   1      -6.001  -3.062 124.357  0.00  0.00    +0.016 C 
ATOM     20  O   LIG A   1      -4.823  -2.750 128.530  0.00  0.00    -0.288 OA
ATOM     21  C   LIG A   1      -6.338   0.503 128.794  0.00  0.00    +0.007 C 
ATOM     22  C   LIG A   1      -6.256   1.819 129.433  0.00  0.00    +0.056 C 
ATOM     23  C   LIG A   1      -7.272   2.689 129.283  0.00  0.00    +0.128 C 
ENDROOT
BRANCH  11  24
ATOM     24  O   LIG A   1      -9.240  -3.609 126.168  0.00  0.00    -0.363 OA
ATOM     25  H   LIG A   1      -9.431  -3.407 127.102  0.00  0.00    +0.213 HD
ENDBRANCH  11  24
BRANCH  23  26
ATOM     26  C   LIG A   1      -7.278   3.993 129.922  0.00  0.00    +0.042 C 
ATOM     27  C   LIG A   1      -6.167   4.680 130.228  0.00  0.00    -0.017 C 
BRANCH  27  28
ATOM     28  C   LIG A   1      -6.113   6.073 130.822  0.00  0.00    +0.049 C 
ATOM     29  C   LIG A   1      -7.473   6.385 131.456  0.00  0.00    +0.015 C 
BRANCH  28  30
ATOM     30  C   LIG A   1      -4.937   6.186 131.836  0.00  0.00    +0.180 C 
ATOM     31  C   LIG A   1      -3.992   7.342 131.508  0.00  0.00    +0.052 C 
BRANCH  30  32
ATOM     32  O   LIG A   1      -5.474   6.396 133.164  0.00  0.00    -0.459 OA
BRANCH  32  33
ATOM     33  C   LIG A   1      -5.048   5.528 134.151  0.00  0.00    +0.341 C 
ATOM     34  O   LIG A   1      -3.902   5.133 134.289  0.00  0.00    -0.247 OA
BRANCH  33  35
ATOM     35  C   LIG A   1      -6.251   5.127 135.050  0.00  0.00    +0.256 C 
BRANCH  35  36
ATOM     36  C   LIG A   1      -7.163   4.133 134.339  0.00  0.00    -0.008 A 
ATOM     37  C   LIG A   1      -6.637   2.999 133.700  0.00  0.00    +0.007 A 
ATOM     38  C   LIG A   1      -7.477   2.113 133.018  0.00  0.00    +0.000 A 
ATOM     39  C   LIG A   1      -8.850   2.343 132.972  0.00  0.00    +0.000 A 
ATOM     40  C   LIG A   1      -9.388   3.463 133.602  0.00  0.00    +0.000 A 
ATOM     41  C   LIG A   1      -8.550   4.354 134.277  0.00  0.00    +0.007 A 
ENDBRANCH  35  36
BRANCH  35  42
ATOM     42  O   LIG A   1      -6.013   4.587 136.351  0.00  0.00    -0.364 OA
ATOM     43  C   LIG A   1      -5.713   5.563 137.334  0.00  0.00    +0.195 C 
ENDBRANCH  35  42
ENDBRANCH  33  35
ENDBRANCH  32  33
ENDBRANCH  30  32
ENDBRANCH  28  30
ENDBRANCH  27  28
ENDBRANCH  23  26
TORSDOF 9
ENDMDL
MODEL 6
REMARK VINA RESULT:      -8.2      3.739      7.281
REMARK  Name = NuBBE_471
REMARK  15 active torsions:
REMARK  status: ('A' for Active; 'I' for Inactive)
REMARK    1  A    between atoms: C_4  and  C_5
REMARK    2  A    between atoms: C_12  and  O_13
REMARK    3  A    between atoms: C_16  and  C_24
REMARK    4  A    between atoms: C_18  and  C_23
REMARK    5  A    between atoms: C_28  and  C_29
REMARK    6  A    between atoms: C_30  and  C_31
REMARK    7  A    between atoms: C_31  and  C_33
REMARK    8  A    between atoms: C_31  and  C_34
REMARK    9  A    between atoms: C_34  and  O_36
REMARK   10  A    between atoms: C_34  and  C_49
REMARK   11  A    between atoms: O_36  and  C_37
REMARK   12  A    between atoms: C_37  and  C_38
REMARK   13  A    between atoms: C_38  and  O_39
REMARK   14  A    between atoms: C_38  and  C_41
REMARK   15  A    between atoms: O_39  and  C_40
REMARK                            x       y       z     vdW  Elec       q    Type
REMARK                         _______ _______ _______ _____ _____    ______ ____
ROOT
ATOM      1 CL   LIG A   1      -9.195  -3.437 124.253  0.00  0.00    -0.079 Cl
ATOM      2  C   LIG A   1      -8.684  -1.908 124.881  0.00  0.00    +0.094 C 
ATOM      3  C   LIG A   1      -8.990  -0.714 124.005  0.00  0.00    +0.207 C 
ATOM      4  C   LIG A   1      -8.909   0.658 124.694  0.00  0.00    +0.141 C 
ATOM      5  C   LIG A   1     -10.180   0.856 125.540  0.00  0.00    +0.051 C 
ATOM      6  C   LIG A   1      -7.585   0.647 125.450  0.00  0.00    +0.081 C 
ATOM      7  C   LIG A   1      -7.643  -0.398 126.528  0.00  0.00    +0.003 C 
ATOM      8  C   LIG A   1      -7.306  -0.241 127.818  0.00  0.00    +0.200 C 
ATOM      9  O   LIG A   1      -7.321  -1.263 128.750  0.00  0.00    -0.463 OA
ATOM     10  O   LIG A   1      -8.793   1.786 123.828  0.00  0.00    -0.333 OA
ATOM     11  C   LIG A   1      -7.982   2.773 124.478  0.00  0.00    +0.188 C 
ATOM     12  C   LIG A   1      -7.322   2.132 125.702  0.00  0.00    +0.168 C 
ATOM     13  C   LIG A   1      -7.030   3.408 123.465  0.00  0.00    +0.086 C 
ATOM     14  C   LIG A   1      -5.961   4.199 124.213  0.00  0.00    +0.181 C 
ATOM     15  O   LIG A   1      -5.246   3.344 125.120  0.00  0.00    -0.461 OA
ATOM     16  C   LIG A   1      -5.843   2.393 125.864  0.00  0.00    +0.316 C 
ATOM     17  O   LIG A   1      -5.176   1.750 126.671  0.00  0.00    -0.250 OA
ATOM     18  C   LIG A   1      -6.451   5.427 124.972  0.00  0.00    +0.052 C 
ATOM     19  C   LIG A   1      -6.373   2.369 122.538  0.00  0.00    +0.016 C 
ATOM     20  O   LIG A   1      -9.294  -0.838 122.820  0.00  0.00    -0.288 OA
ATOM     21  C   LIG A   1      -8.103  -1.739 126.094  0.00  0.00    +0.007 C 
ATOM     22  C   LIG A   1      -7.887  -2.842 127.033  0.00  0.00    +0.056 C 
ATOM     23  C   LIG A   1      -7.535  -2.568 128.303  0.00  0.00    +0.128 C 
ENDROOT
BRANCH  11  24
ATOM     24  O   LIG A   1      -8.893   3.763 124.940  0.00  0.00    -0.363 OA
ATOM     25  H   LIG A   1      -9.753   3.307 125.003  0.00  0.00    +0.213 HD
ENDBRANCH  11  24
BRANCH  23  26
ATOM     26  C   LIG A   1      -7.346  -3.609 129.298  0.00  0.00    +0.042 C 
ATOM     27  C   LIG A   1      -6.396  -3.572 130.245  0.00  0.00    -0.017 C 
BRANCH  27  28
ATOM     28  C   LIG A   1      -6.200  -4.586 131.354  0.00  0.00    +0.049 C 
ATOM     29  C   LIG A   1      -4.806  -5.207 131.205  0.00  0.00    +0.015 C 
BRANCH  28  30
ATOM     30  C   LIG A   1      -6.414  -3.917 132.744  0.00  0.00    +0.180 C 
ATOM     31  C   LIG A   1      -5.748  -4.700 133.876  0.00  0.00    +0.052 C 
BRANCH  30  32
ATOM     32  O   LIG A   1      -5.856  -2.582 132.719  0.00  0.00    -0.459 OA
BRANCH  32  33
ATOM     33  C   LIG A   1      -6.691  -1.552 133.108  0.00  0.00    +0.341 C 
ATOM     34  O   LIG A   1      -7.417  -1.572 134.088  0.00  0.00    -0.247 OA
BRANCH  33  35
ATOM     35  C   LIG A   1      -6.570  -0.373 132.102  0.00  0.00    +0.256 C 
BRANCH  35  36
ATOM     36  C   LIG A   1      -7.617   0.699 132.381  0.00  0.00    -0.008 A 
ATOM     37  C   LIG A   1      -8.904   0.617 131.823  0.00  0.00    +0.007 A 
ATOM     38  C   LIG A   1      -9.845   1.624 132.054  0.00  0.00    +0.000 A 
ATOM     39  C   LIG A   1      -9.519   2.721 132.849  0.00  0.00    +0.000 A 
ATOM     40  C   LIG A   1      -8.247   2.817 133.410  0.00  0.00    +0.000 A 
ATOM     41  C   LIG A   1      -7.302   1.817 133.174  0.00  0.00    +0.007 A 
ENDBRANCH  35  36
BRANCH  35  42
ATOM     42  O   LIG A   1      -5.325   0.314 131.963  0.00  0.00    -0.364 OA
ATOM     43  C   LIG A   1      -4.748   0.206 130.674  0.00  0.00    +0.195 C 
ENDBRANCH  35  42
ENDBRANCH  33  35
ENDBRANCH  32  33
ENDBRANCH  30  32
ENDBRANCH  28  30
ENDBRANCH  27  28
ENDBRANCH  23  26
TORSDOF 9
ENDMDL
MODEL 7
REMARK VINA RESULT:      -8.2      3.695      6.515
REMARK  Name = NuBBE_471
REMARK  15 active torsions:
REMARK  status: ('A' for Active; 'I' for Inactive)
REMARK    1  A    between atoms: C_4  and  C_5
REMARK    2  A    between atoms: C_12  and  O_13
REMARK    3  A    between atoms: C_16  and  C_24
REMARK    4  A    between atoms: C_18  and  C_23
REMARK    5  A    between atoms: C_28  and  C_29
REMARK    6  A    between atoms: C_30  and  C_31
REMARK    7  A    between atoms: C_31  and  C_33
REMARK    8  A    between atoms: C_31  and  C_34
REMARK    9  A    between atoms: C_34  and  O_36
REMARK   10  A    between atoms: C_34  and  C_49
REMARK   11  A    between atoms: O_36  and  C_37
REMARK   12  A    between atoms: C_37  and  C_38
REMARK   13  A    between atoms: C_38  and  O_39
REMARK   14  A    between atoms: C_38  and  C_41
REMARK   15  A    between atoms: O_39  and  C_40
REMARK                            x       y       z     vdW  Elec       q    Type
REMARK                         _______ _______ _______ _____ _____    ______ ____
ROOT
ATOM      1 CL   LIG A   1      -8.290   3.584 129.651  0.00  0.00    -0.079 Cl
ATOM      2  C   LIG A   1      -8.074   2.233 128.590  0.00  0.00    +0.094 C 
ATOM      3  C   LIG A   1      -7.956   2.575 127.123  0.00  0.00    +0.207 C 
ATOM      4  C   LIG A   1      -7.382   1.469 126.223  0.00  0.00    +0.141 C 
ATOM      5  C   LIG A   1      -5.855   1.427 126.413  0.00  0.00    +0.051 C 
ATOM      6  C   LIG A   1      -8.148   0.207 126.604  0.00  0.00    +0.081 C 
ATOM      7  C   LIG A   1      -7.827  -0.154 128.026  0.00  0.00    +0.003 C 
ATOM      8  C   LIG A   1      -7.462  -1.361 128.487  0.00  0.00    +0.200 C 
ATOM      9  O   LIG A   1      -7.241  -1.644 129.822  0.00  0.00    -0.463 OA
ATOM     10  O   LIG A   1      -7.633   1.607 124.825  0.00  0.00    -0.333 OA
ATOM     11  C   LIG A   1      -7.787   0.297 124.262  0.00  0.00    +0.188 C 
ATOM     12  C   LIG A   1      -7.911  -0.712 125.406  0.00  0.00    +0.168 C 
ATOM     13  C   LIG A   1      -8.931   0.301 123.250  0.00  0.00    +0.086 C 
ATOM     14  C   LIG A   1      -9.301  -1.140 122.910  0.00  0.00    +0.181 C 
ATOM     15  O   LIG A   1      -9.672  -1.857 124.099  0.00  0.00    -0.461 OA
ATOM     16  C   LIG A   1      -9.030  -1.720 125.275  0.00  0.00    +0.316 C 
ATOM     17  O   LIG A   1      -9.359  -2.420 126.229  0.00  0.00    -0.250 OA
ATOM     18  C   LIG A   1      -8.241  -1.940 122.161  0.00  0.00    +0.052 C 
ATOM     19  C   LIG A   1     -10.168   1.063 123.757  0.00  0.00    +0.016 C 
ATOM     20  O   LIG A   1      -8.291   3.674 126.682  0.00  0.00    -0.288 OA
ATOM     21  C   LIG A   1      -7.950   0.950 129.009  0.00  0.00    +0.007 C 
ATOM     22  C   LIG A   1      -7.941   0.572 130.424  0.00  0.00    +0.056 C 
ATOM     23  C   LIG A   1      -7.572  -0.675 130.771  0.00  0.00    +0.128 C 
ENDROOT
BRANCH  11  24
ATOM     24  O   LIG A   1      -6.565   0.037 123.580  0.00  0.00    -0.363 OA
ATOM     25  H   LIG A   1      -6.684  -0.840 123.171  0.00  0.00    +0.213 HD
ENDBRANCH  11  24
BRANCH  23  26
ATOM     26  C   LIG A   1      -7.498  -1.107 132.156  0.00  0.00    +0.042 C 
ATOM     27  C   LIG A   1      -7.233  -2.367 132.532  0.00  0.00    -0.017 C 
BRANCH  27  28
ATOM     28  C   LIG A   1      -7.066  -2.858 133.956  0.00  0.00    +0.049 C 
ATOM     29  C   LIG A   1      -8.287  -3.711 134.322  0.00  0.00    +0.015 C 
BRANCH  28  30
ATOM     30  C   LIG A   1      -5.725  -3.632 134.109  0.00  0.00    +0.180 C 
ATOM     31  C   LIG A   1      -5.897  -4.956 134.856  0.00  0.00    +0.052 C 
BRANCH  30  32
ATOM     32  O   LIG A   1      -5.186  -3.914 132.795  0.00  0.00    -0.459 OA
BRANCH  32  33
ATOM     33  C   LIG A   1      -3.901  -3.472 132.542  0.00  0.00    +0.341 C 
ATOM     34  O   LIG A   1      -2.952  -3.611 133.297  0.00  0.00    -0.247 OA
BRANCH  33  35
ATOM     35  C   LIG A   1      -3.854  -2.766 131.159  0.00  0.00    +0.256 C 
BRANCH  35  36
ATOM     36  C   LIG A   1      -3.942  -1.251 131.310  0.00  0.00    -0.008 A 
ATOM     37  C   LIG A   1      -3.919  -0.649 132.578  0.00  0.00    +0.007 A 
ATOM     38  C   LIG A   1      -4.039   0.738 132.709  0.00  0.00    +0.000 A 
ATOM     39  C   LIG A   1      -4.173   1.541 131.578  0.00  0.00    +0.000 A 
ATOM     40  C   LIG A   1      -4.196   0.959 130.313  0.00  0.00    +0.000 A 
ATOM     41  C   LIG A   1      -4.086  -0.427 130.180  0.00  0.00    +0.007 A 
ENDBRANCH  35  36
BRANCH  35  42
ATOM     42  O   LIG A   1      -2.759  -3.014 130.275  0.00  0.00    -0.364 OA
ATOM     43  C   LIG A   1      -3.101  -3.783 129.135  0.00  0.00    +0.195 C 
ENDBRANCH  35  42
ENDBRANCH  33  35
ENDBRANCH  32  33
ENDBRANCH  30  32
ENDBRANCH  28  30
ENDBRANCH  27  28
ENDBRANCH  23  26
TORSDOF 9
ENDMDL
MODEL 8
REMARK VINA RESULT:      -8.2      2.568      9.049
REMARK  Name = NuBBE_471
REMARK  15 active torsions:
REMARK  status: ('A' for Active; 'I' for Inactive)
REMARK    1  A    between atoms: C_4  and  C_5
REMARK    2  A    between atoms: C_12  and  O_13
REMARK    3  A    between atoms: C_16  and  C_24
REMARK    4  A    between atoms: C_18  and  C_23
REMARK    5  A    between atoms: C_28  and  C_29
REMARK    6  A    between atoms: C_30  and  C_31
REMARK    7  A    between atoms: C_31  and  C_33
REMARK    8  A    between atoms: C_31  and  C_34
REMARK    9  A    between atoms: C_34  and  O_36
REMARK   10  A    between atoms: C_34  and  C_49
REMARK   11  A    between atoms: O_36  and  C_37
REMARK   12  A    between atoms: C_37  and  C_38
REMARK   13  A    between atoms: C_38  and  O_39
REMARK   14  A    between atoms: C_38  and  C_41
REMARK   15  A    between atoms: O_39  and  C_40
REMARK                            x       y       z     vdW  Elec       q    Type
REMARK                         _______ _______ _______ _____ _____    ______ ____
ROOT
ATOM      1 CL   LIG A   1      -8.808   2.765 129.566  0.00  0.00    -0.079 Cl
ATOM      2  C   LIG A   1      -7.207   3.420 129.605  0.00  0.00    +0.094 C 
ATOM      3  C   LIG A   1      -6.501   3.327 130.939  0.00  0.00    +0.207 C 
ATOM      4  C   LIG A   1      -4.979   3.532 130.905  0.00  0.00    +0.141 C 
ATOM      5  C   LIG A   1      -4.322   2.241 130.381  0.00  0.00    +0.051 C 
ATOM      6  C   LIG A   1      -4.764   4.789 130.070  0.00  0.00    +0.081 C 
ATOM      7  C   LIG A   1      -5.217   4.528 128.661  0.00  0.00    +0.003 C 
ATOM      8  C   LIG A   1      -4.536   4.793 127.536  0.00  0.00    +0.200 C 
ATOM      9  O   LIG A   1      -5.036   4.587 126.263  0.00  0.00    -0.463 OA
ATOM     10  O   LIG A   1      -4.362   3.846 132.153  0.00  0.00    -0.333 OA
ATOM     11  C   LIG A   1      -3.261   4.730 131.903  0.00  0.00    +0.188 C 
ATOM     12  C   LIG A   1      -3.348   5.218 130.455  0.00  0.00    +0.168 C 
ATOM     13  C   LIG A   1      -3.220   5.820 132.973  0.00  0.00    +0.086 C 
ATOM     14  C   LIG A   1      -2.271   6.926 132.520  0.00  0.00    +0.181 C 
ATOM     15  O   LIG A   1      -2.694   7.465 131.257  0.00  0.00    -0.461 OA
ATOM     16  C   LIG A   1      -3.166   6.705 130.250  0.00  0.00    +0.316 C 
ATOM     17  O   LIG A   1      -3.439   7.229 129.174  0.00  0.00    -0.250 OA
ATOM     18  C   LIG A   1      -0.798   6.543 132.427  0.00  0.00    +0.052 C 
ATOM     19  C   LIG A   1      -4.612   6.403 133.278  0.00  0.00    +0.016 C 
ATOM     20  O   LIG A   1      -7.110   3.090 131.981  0.00  0.00    -0.288 OA
ATOM     21  C   LIG A   1      -6.569   3.934 128.525  0.00  0.00    +0.007 C 
ATOM     22  C   LIG A   1      -7.158   3.946 127.184  0.00  0.00    +0.056 C 
ATOM     23  C   LIG A   1      -6.382   4.242 126.125  0.00  0.00    +0.128 C 
ENDROOT
BRANCH  11  24
ATOM     24  O   LIG A   1      -2.097   3.920 132.022  0.00  0.00    -0.363 OA
ATOM     25  H   LIG A   1      -2.294   3.296 132.745  0.00  0.00    +0.213 HD
ENDBRANCH  11  24
BRANCH  23  26
ATOM     26  C   LIG A   1      -6.888   4.232 124.764  0.00  0.00    +0.042 C 
ATOM     27  C   LIG A   1      -6.189   3.778 123.712  0.00  0.00    -0.017 C 
BRANCH  27  28
ATOM     28  C   LIG A   1      -6.691   3.670 122.286  0.00  0.00    +0.049 C 
ATOM     29  C   LIG A   1      -5.768   2.719 121.516  0.00  0.00    +0.015 C 
BRANCH  28  30
ATOM     30  C   LIG A   1      -8.178   3.211 122.268  0.00  0.00    +0.180 C 
ATOM     31  C   LIG A   1      -8.869   3.521 120.939  0.00  0.00    +0.052 C 
BRANCH  30  32
ATOM     32  O   LIG A   1      -8.236   1.782 122.491  0.00  0.00    -0.459 OA
BRANCH  32  33
ATOM     33  C   LIG A   1      -8.980   1.351 123.573  0.00  0.00    +0.341 C 
ATOM     34  O   LIG A   1      -9.925   1.953 124.057  0.00  0.00    -0.247 OA
BRANCH  33  35
ATOM     35  C   LIG A   1      -8.424  -0.008 124.083  0.00  0.00    +0.256 C 
BRANCH  35  36
ATOM     36  C   LIG A   1      -7.504   0.188 125.283  0.00  0.00    -0.008 A 
ATOM     37  C   LIG A   1      -6.140   0.473 125.109  0.00  0.00    +0.007 A 
ATOM     38  C   LIG A   1      -5.296   0.614 126.215  0.00  0.00    +0.000 A 
ATOM     39  C   LIG A   1      -5.802   0.480 127.505  0.00  0.00    +0.000 A 
ATOM     40  C   LIG A   1      -7.153   0.198 127.695  0.00  0.00    +0.000 A 
ATOM     41  C   LIG A   1      -7.997   0.048 126.592  0.00  0.00    +0.007 A 
ENDBRANCH  35  36
BRANCH  35  42
ATOM     42  O   LIG A   1      -9.330  -1.052 124.444  0.00  0.00    -0.364 OA
ATOM     43  C   LIG A   1      -9.015  -2.310 123.873  0.00  0.00    +0.195 C 
ENDBRANCH  35  42
ENDBRANCH  33  35
ENDBRANCH  32  33
ENDBRANCH  30  32
ENDBRANCH  28  30
ENDBRANCH  27  28
ENDBRANCH  23  26
TORSDOF 9
ENDMDL
MODEL 9
REMARK VINA RESULT:      -8.1      2.933      4.974
REMARK  Name = NuBBE_471
REMARK  15 active torsions:
REMARK  status: ('A' for Active; 'I' for Inactive)
REMARK    1  A    between atoms: C_4  and  C_5
REMARK    2  A    between atoms: C_12  and  O_13
REMARK    3  A    between atoms: C_16  and  C_24
REMARK    4  A    between atoms: C_18  and  C_23
REMARK    5  A    between atoms: C_28  and  C_29
REMARK    6  A    between atoms: C_30  and  C_31
REMARK    7  A    between atoms: C_31  and  C_33
REMARK    8  A    between atoms: C_31  and  C_34
REMARK    9  A    between atoms: C_34  and  O_36
REMARK   10  A    between atoms: C_34  and  C_49
REMARK   11  A    between atoms: O_36  and  C_37
REMARK   12  A    between atoms: C_37  and  C_38
REMARK   13  A    between atoms: C_38  and  O_39
REMARK   14  A    between atoms: C_38  and  C_41
REMARK   15  A    between atoms: O_39  and  C_40
REMARK                            x       y       z     vdW  Elec       q    Type
REMARK                         _______ _______ _______ _____ _____    ______ ____
ROOT
ATOM      1 CL   LIG A   1      -3.760  -1.099 130.488  0.00  0.00    -0.079 Cl
ATOM      2  C   LIG A   1      -5.058  -0.997 129.347  0.00  0.00    +0.094 C 
ATOM      3  C   LIG A   1      -5.408  -2.291 128.648  0.00  0.00    +0.207 C 
ATOM      4  C   LIG A   1      -6.774  -2.323 127.945  0.00  0.00    +0.141 C 
ATOM      5  C   LIG A   1      -7.869  -2.514 129.011  0.00  0.00    +0.051 C 
ATOM      6  C   LIG A   1      -6.835  -1.033 127.134  0.00  0.00    +0.081 C 
ATOM      7  C   LIG A   1      -6.836   0.140 128.073  0.00  0.00    +0.003 C 
ATOM      8  C   LIG A   1      -7.676   1.187 128.051  0.00  0.00    +0.200 C 
ATOM      9  O   LIG A   1      -7.583   2.269 128.907  0.00  0.00    -0.463 OA
ATOM     10  O   LIG A   1      -6.950  -3.346 126.966  0.00  0.00    -0.333 OA
ATOM     11  C   LIG A   1      -7.792  -2.834 125.924  0.00  0.00    +0.188 C 
ATOM     12  C   LIG A   1      -7.936  -1.322 126.114  0.00  0.00    +0.168 C 
ATOM     13  C   LIG A   1      -7.265  -3.287 124.564  0.00  0.00    +0.086 C 
ATOM     14  C   LIG A   1      -7.954  -2.480 123.468  0.00  0.00    +0.181 C 
ATOM     15  O   LIG A   1      -7.728  -1.074 123.661  0.00  0.00    -0.461 OA
ATOM     16  C   LIG A   1      -7.749  -0.482 124.871  0.00  0.00    +0.316 C 
ATOM     17  O   LIG A   1      -7.618   0.736 124.951  0.00  0.00    -0.250 OA
ATOM     18  C   LIG A   1      -9.451  -2.722 123.304  0.00  0.00    +0.052 C 
ATOM     19  C   LIG A   1      -5.736  -3.150 124.446  0.00  0.00    +0.016 C 
ATOM     20  O   LIG A   1      -4.648  -3.259 128.653  0.00  0.00    -0.288 OA
ATOM     21  C   LIG A   1      -5.778   0.127 129.112  0.00  0.00    +0.007 C 
ATOM     22  C   LIG A   1      -5.560   1.378 129.842  0.00  0.00    +0.056 C 
ATOM     23  C   LIG A   1      -6.463   2.371 129.733  0.00  0.00    +0.128 C 
ENDROOT
BRANCH  11  24
ATOM     24  O   LIG A   1      -9.067  -3.427 126.148  0.00  0.00    -0.363 OA
ATOM     25  H   LIG A   1      -9.445  -3.559 125.259  0.00  0.00    +0.213 HD
ENDBRANCH  11  24
BRANCH  23  26
ATOM     26  C   LIG A   1      -6.334   3.621 130.460  0.00  0.00    +0.042 C 
ATOM     27  C   LIG A   1      -7.192   4.024 131.409  0.00  0.00    -0.017 C 
BRANCH  27  28
ATOM     28  C   LIG A   1      -7.067   5.276 132.253  0.00  0.00    +0.049 C 
ATOM     29  C   LIG A   1      -5.661   5.856 132.058  0.00  0.00    +0.015 C 
BRANCH  28  30
ATOM     30  C   LIG A   1      -8.191   6.290 131.889  0.00  0.00    +0.180 C 
ATOM     31  C   LIG A   1      -7.742   7.307 130.838  0.00  0.00    +0.052 C 
BRANCH  30  32
ATOM     32  O   LIG A   1      -9.332   5.567 131.370  0.00  0.00    -0.459 OA
BRANCH  32  33
ATOM     33  C   LIG A   1     -10.582   6.062 131.693  0.00  0.00    +0.341 C 
ATOM     34  O   LIG A   1     -10.820   6.800 132.636  0.00  0.00    -0.247 OA
BRANCH  33  35
ATOM     35  C   LIG A   1     -11.634   5.529 130.681  0.00  0.00    +0.256 C 
BRANCH  35  36
ATOM     36  C   LIG A   1     -12.184   6.654 129.812  0.00  0.00    -0.008 A 
ATOM     37  C   LIG A   1     -11.796   7.987 130.025  0.00  0.00    +0.007 A 
ATOM     38  C   LIG A   1     -12.335   9.017 129.248  0.00  0.00    +0.000 A 
ATOM     39  C   LIG A   1     -13.258   8.731 128.246  0.00  0.00    +0.000 A 
ATOM     40  C   LIG A   1     -13.652   7.414 128.021  0.00  0.00    +0.000 A 
ATOM     41  C   LIG A   1     -13.123   6.383 128.801  0.00  0.00    +0.007 A 
ENDBRANCH  35  36
BRANCH  35  42
ATOM     42  O   LIG A   1     -11.281   4.472 129.786  0.00  0.00    -0.364 OA
ATOM     43  C   LIG A   1     -11.094   3.219 130.420  0.00  0.00    +0.195 C 
ENDBRANCH  35  42
ENDBRANCH  33  35
ENDBRANCH  32  33
ENDBRANCH  30  32
ENDBRANCH  28  30
ENDBRANCH  27  28
ENDBRANCH  23  26
TORSDOF 9
ENDMDL
