MODEL 1
REMARK VINA RESULT:      -9.3      0.000      0.000
REMARK  Name = NuBBE_1603
REMARK  13 active torsions:
REMARK  status: ('A' for Active; 'I' for Inactive)
REMARK    1  A    between atoms: C_1  and  C_2
REMARK    2  A    between atoms: C_8  and  C_9
REMARK    3  A    between atoms: C_13  and  C_14
REMARK    4  A    between atoms: C_13  and  C_15
REMARK    5  A    between atoms: C_21  and  C_40
REMARK    6  A    between atoms: C_22  and  C_24
REMARK    7  A    between atoms: C_27  and  C_28
REMARK    8  A    between atoms: C_28  and  O_29
REMARK    9  A    between atoms: C_28  and  C_30
REMARK   10  A    between atoms: C_30  and  C_31
REMARK   11  A    between atoms: C_30  and  O_32
REMARK   12  A    between atoms: C_30  and  C_33
REMARK   13  A    between atoms: C_35  and  O_37
REMARK                            x       y       z     vdW  Elec       q    Type
REMARK                         _______ _______ _______ _____ _____    ______ ____
ROOT
ATOM      1  C   LIG A   1      -8.596  -0.153 131.087  0.00  0.00    +0.016 C 
ATOM      2  C   LIG A   1      -8.098   1.302 130.946  0.00  0.00    -0.005 C 
ATOM      3  C   LIG A   1      -6.545   1.228 130.939  0.00  0.00    -0.063 C 
ATOM      4  C   LIG A   1      -5.807   1.131 129.818  0.00  0.00    -0.026 C 
ATOM      5  C   LIG A   1      -4.346   0.832 129.785  0.00  0.00    +0.032 C 
ATOM      6  C   LIG A   1      -3.809   0.134 131.050  0.00  0.00    +0.012 C 
ATOM      7  C   LIG A   1      -4.326   0.870 132.341  0.00  0.00    -0.021 C 
ATOM      8  C   LIG A   1      -3.540   2.210 132.443  0.00  0.00    +0.012 C 
ATOM      9  C   LIG A   1      -3.987   0.035 133.617  0.00  0.00    +0.015 C 
ATOM     10  C   LIG A   1      -2.837  -0.937 133.408  0.00  0.00    +0.075 C 
ATOM     11  C   LIG A   1      -3.217  -1.944 132.349  0.00  0.00    +0.139 C 
ATOM     12  C   LIG A   1      -3.927  -1.432 131.085  0.00  0.00    +0.027 C 
ATOM     13  C   LIG A   1      -3.196  -2.056 129.873  0.00  0.00    +0.019 C 
ATOM     14  C   LIG A   1      -5.356  -1.987 131.100  0.00  0.00    +0.019 C 
ATOM     15  O   LIG A   1      -2.939  -3.143 132.504  0.00  0.00    -0.297 OA
ATOM     16  C   LIG A   1      -5.893   1.116 132.309  0.00  0.00    +0.021 C 
ATOM     17  C   LIG A   1      -6.345   2.318 133.149  0.00  0.00    +0.009 C 
ATOM     18  C   LIG A   1      -7.860   2.315 133.340  0.00  0.00    +0.008 C 
ATOM     19  C   LIG A   1      -8.691   2.304 132.032  0.00  0.00    -0.020 C 
ATOM     20  C   LIG A   1      -8.664   3.717 131.306  0.00  0.00    +0.004 C 
ATOM     21  C   LIG A   1      -8.497   3.390 129.799  0.00  0.00    +0.005 C 
ATOM     22  C   LIG A   1      -8.705   1.895 129.658  0.00  0.00    +0.012 C 
ATOM     23  C   LIG A   1     -10.135   1.898 132.436  0.00  0.00    +0.012 C 
ENDROOT
BRANCH  20  24
ATOM     24  C   LIG A   1      -9.877   4.680 131.509  0.00  0.00    +0.051 C 
ATOM     25  C   LIG A   1     -10.546   5.011 130.165  0.00  0.00    +0.043 C 
ATOM     26  C   LIG A   1     -10.456   6.523 130.001  0.00  0.00    +0.153 C 
ATOM     27  O   LIG A   1      -9.431   6.935 130.932  0.00  0.00    -0.345 OA
ATOM     28  C   LIG A   1      -9.548   6.067 132.057  0.00  0.00    +0.251 C 
BRANCH  28  29
ATOM     29  O   LIG A   1     -10.634   6.508 132.862  0.00  0.00    -0.367 OA
ATOM     30  H   LIG A   1     -11.271   6.908 132.249  0.00  0.00    +0.212 HD
ENDBRANCH  28  29
BRANCH  26  31
ATOM     31  C   LIG A   1     -10.102   7.047 128.587  0.00  0.00    +0.174 C 
BRANCH  31  32
ATOM     32  C   LIG A   1     -11.281   7.696 127.799  0.00  0.00    +0.089 C 
ATOM     33  C   LIG A   1     -12.621   6.994 128.070  0.00  0.00    +0.044 C 
ATOM     34  C   LIG A   1     -11.005   7.661 126.295  0.00  0.00    +0.044 C 
BRANCH  32  35
ATOM     35  O   LIG A   1     -11.454   9.070 128.167  0.00  0.00    -0.387 OA
ATOM     36  H   LIG A   1     -10.558   9.441 128.281  0.00  0.00    +0.210 HD
ENDBRANCH  32  35
ENDBRANCH  31  32
BRANCH  31  37
ATOM     37  O   LIG A   1      -9.523   5.978 127.815  0.00  0.00    -0.386 OA
ATOM     38  H   LIG A   1      -9.013   6.429 127.112  0.00  0.00    +0.210 HD
ENDBRANCH  31  37
ENDBRANCH  26  31
ENDBRANCH  20  24
TORSDOF 6
ENDMDL
MODEL 2
REMARK VINA RESULT:      -9.1      4.844      6.457
REMARK  Name = NuBBE_1603
REMARK  13 active torsions:
REMARK  status: ('A' for Active; 'I' for Inactive)
REMARK    1  A    between atoms: C_1  and  C_2
REMARK    2  A    between atoms: C_8  and  C_9
REMARK    3  A    between atoms: C_13  and  C_14
REMARK    4  A    between atoms: C_13  and  C_15
REMARK    5  A    between atoms: C_21  and  C_40
REMARK    6  A    between atoms: C_22  and  C_24
REMARK    7  A    between atoms: C_27  and  C_28
REMARK    8  A    between atoms: C_28  and  O_29
REMARK    9  A    between atoms: C_28  and  C_30
REMARK   10  A    between atoms: C_30  and  C_31
REMARK   11  A    between atoms: C_30  and  O_32
REMARK   12  A    between atoms: C_30  and  C_33
REMARK   13  A    between atoms: C_35  and  O_37
REMARK                            x       y       z     vdW  Elec       q    Type
REMARK                         _______ _______ _______ _____ _____    ______ ____
ROOT
ATOM      1  C   LIG A   1      -3.134   4.918 131.500  0.00  0.00    +0.016 C 
ATOM      2  C   LIG A   1      -4.322   5.817 131.907  0.00  0.00    -0.005 C 
ATOM      3  C   LIG A   1      -3.727   6.940 132.803  0.00  0.00    -0.063 C 
ATOM      4  C   LIG A   1      -3.311   8.130 132.331  0.00  0.00    -0.026 C 
ATOM      5  C   LIG A   1      -2.534   9.132 133.117  0.00  0.00    +0.032 C 
ATOM      6  C   LIG A   1      -1.782   8.547 134.329  0.00  0.00    +0.012 C 
ATOM      7  C   LIG A   1      -2.733   7.613 135.164  0.00  0.00    -0.021 C 
ATOM      8  C   LIG A   1      -3.732   8.541 135.916  0.00  0.00    +0.012 C 
ATOM      9  C   LIG A   1      -1.919   6.833 136.247  0.00  0.00    +0.015 C 
ATOM     10  C   LIG A   1      -0.604   7.506 136.606  0.00  0.00    +0.075 C 
ATOM     11  C   LIG A   1       0.283   7.557 135.385  0.00  0.00    +0.139 C 
ATOM     12  C   LIG A   1      -0.354   7.957 134.043  0.00  0.00    +0.027 C 
ATOM     13  C   LIG A   1       0.560   9.034 133.414  0.00  0.00    +0.019 C 
ATOM     14  C   LIG A   1      -0.317   6.727 133.129  0.00  0.00    +0.019 C 
ATOM     15  O   LIG A   1       1.493   7.298 135.485  0.00  0.00    -0.297 OA
ATOM     16  C   LIG A   1      -3.492   6.557 134.256  0.00  0.00    +0.021 C 
ATOM     17  C   LIG A   1      -4.829   6.086 134.845  0.00  0.00    +0.009 C 
ATOM     18  C   LIG A   1      -5.351   4.857 134.105  0.00  0.00    +0.008 C 
ATOM     19  C   LIG A   1      -5.536   5.034 132.576  0.00  0.00    -0.020 C 
ATOM     20  C   LIG A   1      -6.804   5.927 132.236  0.00  0.00    +0.004 C 
ATOM     21  C   LIG A   1      -6.340   6.860 131.087  0.00  0.00    +0.005 C 
ATOM     22  C   LIG A   1      -4.998   6.333 130.620  0.00  0.00    +0.012 C 
ATOM     23  C   LIG A   1      -5.669   3.603 131.985  0.00  0.00    +0.012 C 
ENDROOT
BRANCH  20  24
ATOM     24  C   LIG A   1      -8.132   5.209 131.833  0.00  0.00    +0.051 C 
ATOM     25  C   LIG A   1      -8.634   5.708 130.469  0.00  0.00    +0.043 C 
ATOM     26  C   LIG A   1     -10.016   6.301 130.709  0.00  0.00    +0.153 C 
ATOM     27  O   LIG A   1     -10.077   6.530 132.135  0.00  0.00    -0.345 OA
ATOM     28  C   LIG A   1      -9.336   5.471 132.736  0.00  0.00    +0.251 C 
BRANCH  28  29
ATOM     29  O   LIG A   1     -10.148   4.303 132.762  0.00  0.00    -0.367 OA
ATOM     30  H   LIG A   1     -10.985   4.575 133.170  0.00  0.00    +0.212 HD
ENDBRANCH  28  29
BRANCH  26  31
ATOM     31  C   LIG A   1     -10.345   7.619 129.966  0.00  0.00    +0.174 C 
BRANCH  31  32
ATOM     32  C   LIG A   1     -11.483   7.524 128.905  0.00  0.00    +0.089 C 
ATOM     33  C   LIG A   1     -11.044   8.049 127.529  0.00  0.00    +0.044 C 
ATOM     34  C   LIG A   1     -12.709   8.316 129.361  0.00  0.00    +0.044 C 
BRANCH  32  35
ATOM     35  O   LIG A   1     -11.901   6.167 128.715  0.00  0.00    -0.387 OA
ATOM     36  H   LIG A   1     -12.298   6.122 127.824  0.00  0.00    +0.210 HD
ENDBRANCH  32  35
ENDBRANCH  31  32
BRANCH  31  37
ATOM     37  O   LIG A   1      -9.145   8.133 129.357  0.00  0.00    -0.386 OA
ATOM     38  H   LIG A   1      -8.584   8.408 130.110  0.00  0.00    +0.210 HD
ENDBRANCH  31  37
ENDBRANCH  26  31
ENDBRANCH  20  24
TORSDOF 6
ENDMDL
MODEL 3
REMARK VINA RESULT:      -8.9      2.081      4.189
REMARK  Name = NuBBE_1603
REMARK  13 active torsions:
REMARK  status: ('A' for Active; 'I' for Inactive)
REMARK    1  A    between atoms: C_1  and  C_2
REMARK    2  A    between atoms: C_8  and  C_9
REMARK    3  A    between atoms: C_13  and  C_14
REMARK    4  A    between atoms: C_13  and  C_15
REMARK    5  A    between atoms: C_21  and  C_40
REMARK    6  A    between atoms: C_22  and  C_24
REMARK    7  A    between atoms: C_27  and  C_28
REMARK    8  A    between atoms: C_28  and  O_29
REMARK    9  A    between atoms: C_28  and  C_30
REMARK   10  A    between atoms: C_30  and  C_31
REMARK   11  A    between atoms: C_30  and  O_32
REMARK   12  A    between atoms: C_30  and  C_33
REMARK   13  A    between atoms: C_35  and  O_37
REMARK                            x       y       z     vdW  Elec       q    Type
REMARK                         _______ _______ _______ _____ _____    ______ ____
ROOT
ATOM      1  C   LIG A   1      -4.559   0.763 132.694  0.00  0.00    +0.016 C 
ATOM      2  C   LIG A   1      -5.898   0.963 131.951  0.00  0.00    -0.005 C 
ATOM      3  C   LIG A   1      -6.587  -0.430 131.918  0.00  0.00    -0.063 C 
ATOM      4  C   LIG A   1      -7.456  -0.856 132.853  0.00  0.00    -0.026 C 
ATOM      5  C   LIG A   1      -7.956  -2.256 132.975  0.00  0.00    +0.032 C 
ATOM      6  C   LIG A   1      -7.054  -3.315 132.311  0.00  0.00    +0.012 C 
ATOM      7  C   LIG A   1      -6.652  -2.858 130.860  0.00  0.00    -0.021 C 
ATOM      8  C   LIG A   1      -7.919  -3.015 129.969  0.00  0.00    +0.012 C 
ATOM      9  C   LIG A   1      -5.553  -3.803 130.276  0.00  0.00    +0.015 C 
ATOM     10  C   LIG A   1      -5.522  -5.168 130.943  0.00  0.00    +0.075 C 
ATOM     11  C   LIG A   1      -5.185  -5.004 132.406  0.00  0.00    +0.139 C 
ATOM     12  C   LIG A   1      -5.872  -3.870 133.185  0.00  0.00    +0.027 C 
ATOM     13  C   LIG A   1      -6.413  -4.488 134.496  0.00  0.00    +0.019 C 
ATOM     14  C   LIG A   1      -4.793  -2.849 133.564  0.00  0.00    +0.019 C 
ATOM     15  O   LIG A   1      -4.387  -5.784 132.950  0.00  0.00    -0.297 OA
ATOM     16  C   LIG A   1      -6.099  -1.371 130.827  0.00  0.00    +0.021 C 
ATOM     17  C   LIG A   1      -6.293  -0.672 129.475  0.00  0.00    +0.009 C 
ATOM     18  C   LIG A   1      -5.472   0.613 129.399  0.00  0.00    +0.008 C 
ATOM     19  C   LIG A   1      -5.756   1.646 130.520  0.00  0.00    -0.020 C 
ATOM     20  C   LIG A   1      -7.148   2.380 130.304  0.00  0.00    +0.004 C 
ATOM     21  C   LIG A   1      -7.786   2.451 131.716  0.00  0.00    +0.005 C 
ATOM     22  C   LIG A   1      -6.705   2.046 132.698  0.00  0.00    +0.012 C 
ATOM     23  C   LIG A   1      -4.571   2.651 130.497  0.00  0.00    +0.012 C 
ENDROOT
BRANCH  20  24
ATOM     24  C   LIG A   1      -7.146   3.799 129.650  0.00  0.00    +0.051 C 
ATOM     25  C   LIG A   1      -7.672   4.858 130.633  0.00  0.00    +0.043 C 
ATOM     26  C   LIG A   1      -8.897   5.483 129.979  0.00  0.00    +0.153 C 
ATOM     27  O   LIG A   1      -9.284   4.546 128.950  0.00  0.00    -0.345 OA
ATOM     28  C   LIG A   1      -8.073   3.986 128.450  0.00  0.00    +0.251 C 
BRANCH  28  29
ATOM     29  O   LIG A   1      -7.476   4.915 127.554  0.00  0.00    -0.367 OA
ATOM     30  H   LIG A   1      -6.775   4.424 127.096  0.00  0.00    +0.212 HD
ENDBRANCH  28  29
BRANCH  26  31
ATOM     31  C   LIG A   1     -10.110   5.760 130.901  0.00  0.00    +0.174 C 
BRANCH  31  32
ATOM     32  C   LIG A   1     -11.292   6.531 130.238  0.00  0.00    +0.089 C 
ATOM     33  C   LIG A   1     -10.813   7.741 129.420  0.00  0.00    +0.044 C 
ATOM     34  C   LIG A   1     -12.278   7.018 131.301  0.00  0.00    +0.044 C 
BRANCH  32  35
ATOM     35  O   LIG A   1     -12.020   5.687 129.338  0.00  0.00    -0.387 OA
ATOM     36  H   LIG A   1     -11.838   4.768 129.612  0.00  0.00    +0.210 HD
ENDBRANCH  32  35
ENDBRANCH  31  32
BRANCH  31  37
ATOM     37  O   LIG A   1      -9.663   6.459 132.077  0.00  0.00    -0.386 OA
ATOM     38  H   LIG A   1      -8.799   6.054 132.293  0.00  0.00    +0.210 HD
ENDBRANCH  31  37
ENDBRANCH  26  31
ENDBRANCH  20  24
TORSDOF 6
ENDMDL
MODEL 4
REMARK VINA RESULT:      -8.9      5.619     10.006
REMARK  Name = NuBBE_1603
REMARK  13 active torsions:
REMARK  status: ('A' for Active; 'I' for Inactive)
REMARK    1  A    between atoms: C_1  and  C_2
REMARK    2  A    between atoms: C_8  and  C_9
REMARK    3  A    between atoms: C_13  and  C_14
REMARK    4  A    between atoms: C_13  and  C_15
REMARK    5  A    between atoms: C_21  and  C_40
REMARK    6  A    between atoms: C_22  and  C_24
REMARK    7  A    between atoms: C_27  and  C_28
REMARK    8  A    between atoms: C_28  and  O_29
REMARK    9  A    between atoms: C_28  and  C_30
REMARK   10  A    between atoms: C_30  and  C_31
REMARK   11  A    between atoms: C_30  and  O_32
REMARK   12  A    between atoms: C_30  and  C_33
REMARK   13  A    between atoms: C_35  and  O_37
REMARK                            x       y       z     vdW  Elec       q    Type
REMARK                         _______ _______ _______ _____ _____    ______ ____
ROOT
ATOM      1  C   LIG A   1      -7.499  -0.099 128.487  0.00  0.00    +0.016 C 
ATOM      2  C   LIG A   1      -6.780  -1.457 128.639  0.00  0.00    -0.005 C 
ATOM      3  C   LIG A   1      -6.713  -2.074 127.213  0.00  0.00    -0.063 C 
ATOM      4  C   LIG A   1      -5.676  -1.902 126.373  0.00  0.00    -0.026 C 
ATOM      5  C   LIG A   1      -5.677  -2.284 124.931  0.00  0.00    +0.032 C 
ATOM      6  C   LIG A   1      -7.081  -2.415 124.308  0.00  0.00    +0.012 C 
ATOM      7  C   LIG A   1      -8.016  -3.270 125.241  0.00  0.00    -0.021 C 
ATOM      8  C   LIG A   1      -7.549  -4.749 125.116  0.00  0.00    +0.012 C 
ATOM      9  C   LIG A   1      -9.494  -3.206 124.738  0.00  0.00    +0.015 C 
ATOM     10  C   LIG A   1      -9.610  -2.835 123.268  0.00  0.00    +0.075 C 
ATOM     11  C   LIG A   1      -9.045  -1.452 123.054  0.00  0.00    +0.139 C 
ATOM     12  C   LIG A   1      -7.723  -1.092 123.754  0.00  0.00    +0.027 C 
ATOM     13  C   LIG A   1      -6.807  -0.452 122.686  0.00  0.00    +0.019 C 
ATOM     14  C   LIG A   1      -8.033  -0.018 124.803  0.00  0.00    +0.019 C 
ATOM     15  O   LIG A   1      -9.634  -0.648 122.315  0.00  0.00    -0.297 OA
ATOM     16  C   LIG A   1      -7.981  -2.774 126.748  0.00  0.00    +0.021 C 
ATOM     17  C   LIG A   1      -8.317  -3.872 127.765  0.00  0.00    +0.009 C 
ATOM     18  C   LIG A   1      -8.581  -3.277 129.147  0.00  0.00    +0.008 C 
ATOM     19  C   LIG A   1      -7.427  -2.421 129.729  0.00  0.00    -0.020 C 
ATOM     20  C   LIG A   1      -6.213  -3.322 130.215  0.00  0.00    +0.004 C 
ATOM     21  C   LIG A   1      -4.941  -2.569 129.742  0.00  0.00    +0.005 C 
ATOM     22  C   LIG A   1      -5.399  -1.201 129.278  0.00  0.00    +0.012 C 
ATOM     23  C   LIG A   1      -8.038  -1.606 130.902  0.00  0.00    +0.012 C 
ENDROOT
BRANCH  20  24
ATOM     24  C   LIG A   1      -6.098  -3.656 131.737  0.00  0.00    +0.051 C 
ATOM     25  C   LIG A   1      -5.473  -2.483 132.511  0.00  0.00    +0.043 C 
ATOM     26  C   LIG A   1      -4.205  -3.022 133.159  0.00  0.00    +0.153 C 
ATOM     27  O   LIG A   1      -3.910  -4.239 132.438  0.00  0.00    -0.345 OA
ATOM     28  C   LIG A   1      -5.170  -4.813 132.102  0.00  0.00    +0.251 C 
BRANCH  28  29
ATOM     29  O   LIG A   1      -5.693  -5.471 133.249  0.00  0.00    -0.367 OA
ATOM     30  H   LIG A   1      -5.157  -5.161 133.996  0.00  0.00    +0.212 HD
ENDBRANCH  28  29
BRANCH  26  31
ATOM     31  C   LIG A   1      -2.963  -2.097 133.129  0.00  0.00    +0.174 C 
BRANCH  31  32
ATOM     32  C   LIG A   1      -1.933  -2.321 134.278  0.00  0.00    +0.089 C 
ATOM     33  C   LIG A   1      -2.549  -2.091 135.667  0.00  0.00    +0.044 C 
ATOM     34  C   LIG A   1      -0.735  -1.385 134.113  0.00  0.00    +0.044 C 
BRANCH  32  35
ATOM     35  O   LIG A   1      -1.430  -3.662 134.266  0.00  0.00    -0.387 OA
ATOM     36  H   LIG A   1      -1.055  -3.824 135.153  0.00  0.00    +0.210 HD
ENDBRANCH  32  35
ENDBRANCH  31  32
BRANCH  31  37
ATOM     37  O   LIG A   1      -3.395  -0.723 133.115  0.00  0.00    -0.386 OA
ATOM     38  H   LIG A   1      -3.033  -0.341 133.939  0.00  0.00    +0.210 HD
ENDBRANCH  31  37
ENDBRANCH  26  31
ENDBRANCH  20  24
TORSDOF 6
ENDMDL
MODEL 5
REMARK VINA RESULT:      -8.7      6.457      8.611
REMARK  Name = NuBBE_1603
REMARK  13 active torsions:
REMARK  status: ('A' for Active; 'I' for Inactive)
REMARK    1  A    between atoms: C_1  and  C_2
REMARK    2  A    between atoms: C_8  and  C_9
REMARK    3  A    between atoms: C_13  and  C_14
REMARK    4  A    between atoms: C_13  and  C_15
REMARK    5  A    between atoms: C_21  and  C_40
REMARK    6  A    between atoms: C_22  and  C_24
REMARK    7  A    between atoms: C_27  and  C_28
REMARK    8  A    between atoms: C_28  and  O_29
REMARK    9  A    between atoms: C_28  and  C_30
REMARK   10  A    between atoms: C_30  and  C_31
REMARK   11  A    between atoms: C_30  and  O_32
REMARK   12  A    between atoms: C_30  and  C_33
REMARK   13  A    between atoms: C_35  and  O_37
REMARK                            x       y       z     vdW  Elec       q    Type
REMARK                         _______ _______ _______ _____ _____    ______ ____
ROOT
ATOM      1  C   LIG A   1      -1.047   6.795 131.937  0.00  0.00    +0.016 C 
ATOM      2  C   LIG A   1      -2.517   7.206 132.168  0.00  0.00    -0.005 C 
ATOM      3  C   LIG A   1      -2.472   8.567 132.919  0.00  0.00    -0.063 C 
ATOM      4  C   LIG A   1      -2.496   9.762 132.300  0.00  0.00    -0.026 C 
ATOM      5  C   LIG A   1      -2.228  11.069 132.966  0.00  0.00    +0.032 C 
ATOM      6  C   LIG A   1      -1.422  10.964 134.277  0.00  0.00    +0.012 C 
ATOM      7  C   LIG A   1      -2.021   9.839 135.198  0.00  0.00    -0.021 C 
ATOM      8  C   LIG A   1      -3.359  10.390 135.772  0.00  0.00    +0.012 C 
ATOM      9  C   LIG A   1      -1.073   9.565 136.410  0.00  0.00    +0.015 C 
ATOM     10  C   LIG A   1      -0.147  10.729 136.720  0.00  0.00    +0.075 C 
ATOM     11  C   LIG A   1       0.760  10.977 135.539  0.00  0.00    +0.139 C 
ATOM     12  C   LIG A   1       0.142  10.942 134.131  0.00  0.00    +0.027 C 
ATOM     13  C   LIG A   1       0.635  12.208 133.392  0.00  0.00    +0.019 C 
ATOM     14  C   LIG A   1       0.722   9.725 133.401  0.00  0.00    +0.019 C 
ATOM     15  O   LIG A   1       1.964  11.219 135.721  0.00  0.00    -0.297 OA
ATOM     16  C   LIG A   1      -2.241   8.474 134.419  0.00  0.00    +0.021 C 
ATOM     17  C   LIG A   1      -3.348   7.596 135.017  0.00  0.00    +0.009 C 
ATOM     18  C   LIG A   1      -3.300   6.183 134.438  0.00  0.00    +0.008 C 
ATOM     19  C   LIG A   1      -3.400   6.098 132.894  0.00  0.00    -0.020 C 
ATOM     20  C   LIG A   1      -4.876   6.386 132.383  0.00  0.00    +0.004 C 
ATOM     21  C   LIG A   1      -4.698   7.287 131.133  0.00  0.00    +0.005 C 
ATOM     22  C   LIG A   1      -3.220   7.268 130.796  0.00  0.00    +0.012 C 
ATOM     23  C   LIG A   1      -2.931   4.669 132.505  0.00  0.00    +0.012 C 
ENDROOT
BRANCH  20  24
ATOM     24  C   LIG A   1      -5.793   5.170 132.036  0.00  0.00    +0.051 C 
ATOM     25  C   LIG A   1      -6.775   5.527 130.908  0.00  0.00    +0.043 C 
ATOM     26  C   LIG A   1      -8.174   5.339 131.480  0.00  0.00    +0.153 C 
ATOM     27  O   LIG A   1      -7.989   5.331 132.913  0.00  0.00    -0.345 OA
ATOM     28  C   LIG A   1      -6.732   4.700 133.144  0.00  0.00    +0.251 C 
BRANCH  28  29
ATOM     29  O   LIG A   1      -6.900   3.292 133.032  0.00  0.00    -0.367 OA
ATOM     30  H   LIG A   1      -7.060   3.122 132.090  0.00  0.00    +0.212 HD
ENDBRANCH  28  29
BRANCH  26  31
ATOM     31  C   LIG A   1      -9.226   6.413 131.107  0.00  0.00    +0.174 C 
BRANCH  31  32
ATOM     32  C   LIG A   1     -10.713   5.996 131.320  0.00  0.00    +0.089 C 
ATOM     33  C   LIG A   1     -11.106   4.781 130.464  0.00  0.00    +0.044 C 
ATOM     34  C   LIG A   1     -11.650   7.157 130.981  0.00  0.00    +0.044 C 
BRANCH  32  35
ATOM     35  O   LIG A   1     -10.959   5.636 132.685  0.00  0.00    -0.387 OA
ATOM     36  H   LIG A   1     -11.312   6.434 133.122  0.00  0.00    +0.210 HD
ENDBRANCH  32  35
ENDBRANCH  31  32
BRANCH  31  37
ATOM     37  O   LIG A   1      -9.020   6.827 129.744  0.00  0.00    -0.386 OA
ATOM     38  H   LIG A   1      -9.619   7.592 129.624  0.00  0.00    +0.210 HD
ENDBRANCH  31  37
ENDBRANCH  26  31
ENDBRANCH  20  24
TORSDOF 6
ENDMDL
MODEL 6
REMARK VINA RESULT:      -8.5      4.952      7.348
REMARK  Name = NuBBE_1603
REMARK  13 active torsions:
REMARK  status: ('A' for Active; 'I' for Inactive)
REMARK    1  A    between atoms: C_1  and  C_2
REMARK    2  A    between atoms: C_8  and  C_9
REMARK    3  A    between atoms: C_13  and  C_14
REMARK    4  A    between atoms: C_13  and  C_15
REMARK    5  A    between atoms: C_21  and  C_40
REMARK    6  A    between atoms: C_22  and  C_24
REMARK    7  A    between atoms: C_27  and  C_28
REMARK    8  A    between atoms: C_28  and  O_29
REMARK    9  A    between atoms: C_28  and  C_30
REMARK   10  A    between atoms: C_30  and  C_31
REMARK   11  A    between atoms: C_30  and  O_32
REMARK   12  A    between atoms: C_30  and  C_33
REMARK   13  A    between atoms: C_35  and  O_37
REMARK                            x       y       z     vdW  Elec       q    Type
REMARK                         _______ _______ _______ _____ _____    ______ ____
ROOT
ATOM      1  C   LIG A   1      -6.887   2.710 124.705  0.00  0.00    +0.016 C 
ATOM      2  C   LIG A   1      -6.381   2.399 126.130  0.00  0.00    -0.005 C 
ATOM      3  C   LIG A   1      -6.332   0.849 126.242  0.00  0.00    -0.063 C 
ATOM      4  C   LIG A   1      -5.240   0.114 125.963  0.00  0.00    -0.026 C 
ATOM      5  C   LIG A   1      -5.223  -1.373 125.842  0.00  0.00    +0.032 C 
ATOM      6  C   LIG A   1      -6.598  -2.003 125.542  0.00  0.00    +0.012 C 
ATOM      7  C   LIG A   1      -7.693  -1.409 126.503  0.00  0.00    -0.021 C 
ATOM      8  C   LIG A   1      -7.439  -2.023 127.911  0.00  0.00    +0.012 C 
ATOM      9  C   LIG A   1      -9.118  -1.861 126.049  0.00  0.00    +0.015 C 
ATOM     10  C   LIG A   1      -9.105  -3.121 125.200  0.00  0.00    +0.075 C 
ATOM     11  C   LIG A   1      -8.334  -2.861 123.928  0.00  0.00    +0.139 C 
ATOM     12  C   LIG A   1      -7.012  -2.081 124.028  0.00  0.00    +0.027 C 
ATOM     13  C   LIG A   1      -5.960  -2.874 123.219  0.00  0.00    +0.019 C 
ATOM     14  C   LIG A   1      -7.215  -0.733 123.328  0.00  0.00    +0.019 C 
ATOM     15  O   LIG A   1      -8.763  -3.287 122.844  0.00  0.00    -0.297 OA
ATOM     16  C   LIG A   1      -7.662   0.176 126.545  0.00  0.00    +0.021 C 
ATOM     17  C   LIG A   1      -8.206   0.768 127.853  0.00  0.00    +0.009 C 
ATOM     18  C   LIG A   1      -8.450   2.269 127.716  0.00  0.00    +0.008 C 
ATOM     19  C   LIG A   1      -7.216   3.103 127.289  0.00  0.00    -0.020 C 
ATOM     20  C   LIG A   1      -6.171   3.258 128.475  0.00  0.00    +0.004 C 
ATOM     21  C   LIG A   1      -4.782   3.064 127.814  0.00  0.00    +0.005 C 
ATOM     22  C   LIG A   1      -5.012   3.086 126.316  0.00  0.00    +0.012 C 
ATOM     23  C   LIG A   1      -7.761   4.482 126.824  0.00  0.00    +0.012 C 
ENDROOT
BRANCH  20  24
ATOM     24  C   LIG A   1      -6.183   4.581 129.308  0.00  0.00    +0.051 C 
ATOM     25  C   LIG A   1      -4.871   5.360 129.120  0.00  0.00    +0.043 C 
ATOM     26  C   LIG A   1      -4.245   5.488 130.502  0.00  0.00    +0.153 C 
ATOM     27  O   LIG A   1      -4.906   4.482 131.302  0.00  0.00    -0.345 OA
ATOM     28  C   LIG A   1      -6.247   4.418 130.825  0.00  0.00    +0.251 C 
BRANCH  28  29
ATOM     29  O   LIG A   1      -6.978   5.509 131.369  0.00  0.00    -0.367 OA
ATOM     30  H   LIG A   1      -7.837   5.501 130.917  0.00  0.00    +0.212 HD
ENDBRANCH  28  29
BRANCH  26  31
ATOM     31  C   LIG A   1      -2.712   5.286 130.591  0.00  0.00    +0.174 C 
BRANCH  31  32
ATOM     32  C   LIG A   1      -2.079   5.569 131.987  0.00  0.00    +0.089 C 
ATOM     33  C   LIG A   1      -0.840   6.473 131.894  0.00  0.00    +0.044 C 
ATOM     34  C   LIG A   1      -1.679   4.260 132.670  0.00  0.00    +0.044 C 
BRANCH  32  35
ATOM     35  O   LIG A   1      -3.009   6.232 132.852  0.00  0.00    -0.387 OA
ATOM     36  H   LIG A   1      -3.891   6.114 132.451  0.00  0.00    +0.210 HD
ENDBRANCH  32  35
ENDBRANCH  31  32
BRANCH  31  37
ATOM     37  O   LIG A   1      -2.068   6.091 129.586  0.00  0.00    -0.386 OA
ATOM     38  H   LIG A   1      -1.172   6.261 129.941  0.00  0.00    +0.210 HD
ENDBRANCH  31  37
ENDBRANCH  26  31
ENDBRANCH  20  24
TORSDOF 6
ENDMDL
MODEL 7
REMARK VINA RESULT:      -8.4      5.210      7.890
REMARK  Name = NuBBE_1603
REMARK  13 active torsions:
REMARK  status: ('A' for Active; 'I' for Inactive)
REMARK    1  A    between atoms: C_1  and  C_2
REMARK    2  A    between atoms: C_8  and  C_9
REMARK    3  A    between atoms: C_13  and  C_14
REMARK    4  A    between atoms: C_13  and  C_15
REMARK    5  A    between atoms: C_21  and  C_40
REMARK    6  A    between atoms: C_22  and  C_24
REMARK    7  A    between atoms: C_27  and  C_28
REMARK    8  A    between atoms: C_28  and  O_29
REMARK    9  A    between atoms: C_28  and  C_30
REMARK   10  A    between atoms: C_30  and  C_31
REMARK   11  A    between atoms: C_30  and  O_32
REMARK   12  A    between atoms: C_30  and  C_33
REMARK   13  A    between atoms: C_35  and  O_37
REMARK                            x       y       z     vdW  Elec       q    Type
REMARK                         _______ _______ _______ _____ _____    ______ ____
ROOT
ATOM      1  C   LIG A   1      -7.883   4.949 128.772  0.00  0.00    +0.016 C 
ATOM      2  C   LIG A   1      -7.272   3.750 128.014  0.00  0.00    -0.005 C 
ATOM      3  C   LIG A   1      -5.797   3.642 128.494  0.00  0.00    -0.063 C 
ATOM      4  C   LIG A   1      -5.403   2.872 129.525  0.00  0.00    -0.026 C 
ATOM      5  C   LIG A   1      -4.049   2.917 130.151  0.00  0.00    +0.032 C 
ATOM      6  C   LIG A   1      -3.281   4.232 129.913  0.00  0.00    +0.012 C 
ATOM      7  C   LIG A   1      -3.344   4.634 128.393  0.00  0.00    -0.021 C 
ATOM      8  C   LIG A   1      -2.406   3.656 127.628  0.00  0.00    +0.012 C 
ATOM      9  C   LIG A   1      -2.777   6.076 128.187  0.00  0.00    +0.015 C 
ATOM     10  C   LIG A   1      -1.848   6.520 129.306  0.00  0.00    +0.075 C 
ATOM     11  C   LIG A   1      -2.614   6.562 130.606  0.00  0.00    +0.139 C 
ATOM     12  C   LIG A   1      -3.570   5.400 130.923  0.00  0.00    +0.027 C 
ATOM     13  C   LIG A   1      -3.269   4.950 132.371  0.00  0.00    +0.019 C 
ATOM     14  C   LIG A   1      -4.999   5.956 130.899  0.00  0.00    +0.019 C 
ATOM     15  O   LIG A   1      -2.449   7.508 131.393  0.00  0.00    -0.297 OA
ATOM     16  C   LIG A   1      -4.822   4.592 127.819  0.00  0.00    +0.021 C 
ATOM     17  C   LIG A   1      -4.887   4.343 126.306  0.00  0.00    +0.009 C 
ATOM     18  C   LIG A   1      -6.286   4.629 125.763  0.00  0.00    +0.008 C 
ATOM     19  C   LIG A   1      -7.431   3.827 126.432  0.00  0.00    -0.020 C 
ATOM     20  C   LIG A   1      -7.431   2.307 125.971  0.00  0.00    +0.004 C 
ATOM     21  C   LIG A   1      -7.712   1.497 127.264  0.00  0.00    +0.005 C 
ATOM     22  C   LIG A   1      -8.126   2.502 128.320  0.00  0.00    +0.012 C 
ATOM     23  C   LIG A   1      -8.752   4.543 126.038  0.00  0.00    +0.012 C 
ENDROOT
BRANCH  20  24
ATOM     24  C   LIG A   1      -8.423   1.872 124.845  0.00  0.00    +0.051 C 
ATOM     25  C   LIG A   1      -8.863   0.411 125.035  0.00  0.00    +0.043 C 
ATOM     26  C   LIG A   1      -8.433  -0.335 123.778  0.00  0.00    +0.153 C 
ATOM     27  O   LIG A   1      -7.446   0.521 123.161  0.00  0.00    -0.345 OA
ATOM     28  C   LIG A   1      -7.862   1.858 123.425  0.00  0.00    +0.251 C 
BRANCH  28  29
ATOM     29  O   LIG A   1      -8.905   2.198 122.520  0.00  0.00    -0.367 OA
ATOM     30  H   LIG A   1      -9.007   3.161 122.589  0.00  0.00    +0.212 HD
ENDBRANCH  28  29
BRANCH  26  31
ATOM     31  C   LIG A   1      -7.831  -1.747 123.981  0.00  0.00    +0.174 C 
BRANCH  31  32
ATOM     32  C   LIG A   1      -8.849  -2.859 124.378  0.00  0.00    +0.089 C 
ATOM     33  C   LIG A   1      -8.157  -4.109 124.944  0.00  0.00    +0.044 C 
ATOM     34  C   LIG A   1      -9.691  -3.271 123.169  0.00  0.00    +0.044 C 
BRANCH  32  35
ATOM     35  O   LIG A   1      -9.754  -2.395 125.388  0.00  0.00    -0.387 OA
ATOM     36  H   LIG A   1      -9.312  -1.648 125.832  0.00  0.00    +0.210 HD
ENDBRANCH  32  35
ENDBRANCH  31  32
BRANCH  31  37
ATOM     37  O   LIG A   1      -6.773  -1.677 124.955  0.00  0.00    -0.386 OA
ATOM     38  H   LIG A   1      -7.139  -1.129 125.679  0.00  0.00    +0.210 HD
ENDBRANCH  31  37
ENDBRANCH  26  31
ENDBRANCH  20  24
TORSDOF 6
ENDMDL
MODEL 8
REMARK VINA RESULT:      -8.3      4.555      9.788
REMARK  Name = NuBBE_1603
REMARK  13 active torsions:
REMARK  status: ('A' for Active; 'I' for Inactive)
REMARK    1  A    between atoms: C_1  and  C_2
REMARK    2  A    between atoms: C_8  and  C_9
REMARK    3  A    between atoms: C_13  and  C_14
REMARK    4  A    between atoms: C_13  and  C_15
REMARK    5  A    between atoms: C_21  and  C_40
REMARK    6  A    between atoms: C_22  and  C_24
REMARK    7  A    between atoms: C_27  and  C_28
REMARK    8  A    between atoms: C_28  and  O_29
REMARK    9  A    between atoms: C_28  and  C_30
REMARK   10  A    between atoms: C_30  and  C_31
REMARK   11  A    between atoms: C_30  and  O_32
REMARK   12  A    between atoms: C_30  and  C_33
REMARK   13  A    between atoms: C_35  and  O_37
REMARK                            x       y       z     vdW  Elec       q    Type
REMARK                         _______ _______ _______ _____ _____    ______ ____
ROOT
ATOM      1  C   LIG A   1      -8.178   0.177 130.678  0.00  0.00    +0.016 C 
ATOM      2  C   LIG A   1      -6.890  -0.649 130.473  0.00  0.00    -0.005 C 
ATOM      3  C   LIG A   1      -6.617  -0.651 128.942  0.00  0.00    -0.063 C 
ATOM      4  C   LIG A   1      -5.837   0.255 128.322  0.00  0.00    -0.026 C 
ATOM      5  C   LIG A   1      -5.736   0.419 126.843  0.00  0.00    +0.032 C 
ATOM      6  C   LIG A   1      -6.939  -0.140 126.056  0.00  0.00    +0.012 C 
ATOM      7  C   LIG A   1      -7.297  -1.587 126.560  0.00  0.00    -0.021 C 
ATOM      8  C   LIG A   1      -6.186  -2.539 126.026  0.00  0.00    +0.012 C 
ATOM      9  C   LIG A   1      -8.651  -2.060 125.940  0.00  0.00    +0.015 C 
ATOM     10  C   LIG A   1      -9.013  -1.325 124.660  0.00  0.00    +0.075 C 
ATOM     11  C   LIG A   1      -9.191   0.145 124.959  0.00  0.00    +0.139 C 
ATOM     12  C   LIG A   1      -8.166   0.826 125.881  0.00  0.00    +0.027 C 
ATOM     13  C   LIG A   1      -7.729   2.133 125.181  0.00  0.00    +0.019 C 
ATOM     14  C   LIG A   1      -8.892   1.213 127.175  0.00  0.00    +0.019 C 
ATOM     15  O   LIG A   1     -10.134   0.772 124.452  0.00  0.00    -0.297 OA
ATOM     16  C   LIG A   1      -7.418  -1.663 128.140  0.00  0.00    +0.021 C 
ATOM     17  C   LIG A   1      -7.131  -3.058 128.713  0.00  0.00    +0.009 C 
ATOM     18  C   LIG A   1      -7.568  -3.152 130.173  0.00  0.00    +0.008 C 
ATOM     19  C   LIG A   1      -6.934  -2.103 131.121  0.00  0.00    -0.020 C 
ATOM     20  C   LIG A   1      -5.412  -2.433 131.430  0.00  0.00    +0.004 C 
ATOM     21  C   LIG A   1      -4.684  -1.064 131.367  0.00  0.00    +0.005 C 
ATOM     22  C   LIG A   1      -5.766  -0.004 131.311  0.00  0.00    +0.012 C 
ATOM     23  C   LIG A   1      -7.794  -2.109 132.415  0.00  0.00    +0.012 C 
ENDROOT
BRANCH  20  24
ATOM     24  C   LIG A   1      -5.066  -3.156 132.771  0.00  0.00    +0.051 C 
ATOM     25  C   LIG A   1      -4.363  -2.198 133.747  0.00  0.00    +0.043 C 
ATOM     26  C   LIG A   1      -3.001  -2.809 134.045  0.00  0.00    +0.153 C 
ATOM     27  O   LIG A   1      -2.785  -3.765 132.983  0.00  0.00    -0.345 OA
ATOM     28  C   LIG A   1      -4.066  -4.307 132.674  0.00  0.00    +0.251 C 
BRANCH  28  29
ATOM     29  O   LIG A   1      -4.398  -5.282 133.654  0.00  0.00    -0.367 OA
ATOM     30  H   LIG A   1      -3.906  -6.081 133.407  0.00  0.00    +0.212 HD
ENDBRANCH  28  29
BRANCH  26  31
ATOM     31  C   LIG A   1      -1.800  -1.832 134.104  0.00  0.00    +0.174 C 
BRANCH  31  32
ATOM     32  C   LIG A   1      -0.492  -2.415 134.720  0.00  0.00    +0.089 C 
ATOM     33  C   LIG A   1      -0.432  -2.229 136.245  0.00  0.00    +0.044 C 
ATOM     34  C   LIG A   1       0.737  -1.751 134.098  0.00  0.00    +0.044 C 
BRANCH  32  35
ATOM     35  O   LIG A   1      -0.386  -3.822 134.472  0.00  0.00    -0.387 OA
ATOM     36  H   LIG A   1      -0.671  -4.270 135.292  0.00  0.00    +0.210 HD
ENDBRANCH  32  35
ENDBRANCH  31  32
BRANCH  31  37
ATOM     37  O   LIG A   1      -2.191  -0.641 134.813  0.00  0.00    -0.386 OA
ATOM     38  H   LIG A   1      -3.031  -0.881 135.255  0.00  0.00    +0.210 HD
ENDBRANCH  31  37
ENDBRANCH  26  31
ENDBRANCH  20  24
TORSDOF 6
ENDMDL
MODEL 9
REMARK VINA RESULT:      -8.2      5.265      8.944
REMARK  Name = NuBBE_1603
REMARK  13 active torsions:
REMARK  status: ('A' for Active; 'I' for Inactive)
REMARK    1  A    between atoms: C_1  and  C_2
REMARK    2  A    between atoms: C_8  and  C_9
REMARK    3  A    between atoms: C_13  and  C_14
REMARK    4  A    between atoms: C_13  and  C_15
REMARK    5  A    between atoms: C_21  and  C_40
REMARK    6  A    between atoms: C_22  and  C_24
REMARK    7  A    between atoms: C_27  and  C_28
REMARK    8  A    between atoms: C_28  and  O_29
REMARK    9  A    between atoms: C_28  and  C_30
REMARK   10  A    between atoms: C_30  and  C_31
REMARK   11  A    between atoms: C_30  and  O_32
REMARK   12  A    between atoms: C_30  and  C_33
REMARK   13  A    between atoms: C_35  and  O_37
REMARK                            x       y       z     vdW  Elec       q    Type
REMARK                         _______ _______ _______ _____ _____    ______ ____
ROOT
ATOM      1  C   LIG A   1      -8.307  -3.343 129.061  0.00  0.00    +0.016 C 
ATOM      2  C   LIG A   1      -7.278  -2.324 129.595  0.00  0.00    -0.005 C 
ATOM      3  C   LIG A   1      -7.159  -1.219 128.508  0.00  0.00    -0.063 C 
ATOM      4  C   LIG A   1      -7.897  -0.094 128.502  0.00  0.00    -0.026 C 
ATOM      5  C   LIG A   1      -7.971   0.869 127.365  0.00  0.00    +0.032 C 
ATOM      6  C   LIG A   1      -7.572   0.275 125.999  0.00  0.00    +0.012 C 
ATOM      7  C   LIG A   1      -6.227  -0.531 126.126  0.00  0.00    -0.021 C 
ATOM      8  C   LIG A   1      -5.086   0.516 126.284  0.00  0.00    +0.012 C 
ATOM      9  C   LIG A   1      -5.945  -1.330 124.812  0.00  0.00    +0.015 C 
ATOM     10  C   LIG A   1      -6.665  -0.762 123.600  0.00  0.00    +0.075 C 
ATOM     11  C   LIG A   1      -8.157  -0.847 123.819  0.00  0.00    +0.139 C 
ATOM     12  C   LIG A   1      -8.711  -0.453 125.198  0.00  0.00    +0.027 C 
ATOM     13  C   LIG A   1      -9.897   0.508 124.950  0.00  0.00    +0.019 C 
ATOM     14  C   LIG A   1      -9.272  -1.722 125.851  0.00  0.00    +0.019 C 
ATOM     15  O   LIG A   1      -8.900  -1.208 122.893  0.00  0.00    -0.297 OA
ATOM     16  C   LIG A   1      -6.248  -1.555 127.337  0.00  0.00    +0.021 C 
ATOM     17  C   LIG A   1      -4.855  -1.877 127.896  0.00  0.00    +0.009 C 
ATOM     18  C   LIG A   1      -4.904  -3.087 128.826  0.00  0.00    +0.008 C 
ATOM     19  C   LIG A   1      -5.884  -2.964 130.020  0.00  0.00    -0.020 C 
ATOM     20  C   LIG A   1      -5.331  -1.977 131.135  0.00  0.00    +0.004 C 
ATOM     21  C   LIG A   1      -6.563  -1.143 131.577  0.00  0.00    +0.005 C 
ATOM     22  C   LIG A   1      -7.777  -1.809 130.962  0.00  0.00    +0.012 C 
ATOM     23  C   LIG A   1      -6.077  -4.402 130.576  0.00  0.00    +0.012 C 
ENDROOT
BRANCH  20  24
ATOM     24  C   LIG A   1      -4.629  -2.591 132.389  0.00  0.00    +0.051 C 
ATOM     25  C   LIG A   1      -5.462  -2.351 133.658  0.00  0.00    +0.043 C 
ATOM     26  C   LIG A   1      -4.581  -1.547 134.605  0.00  0.00    +0.153 C 
ATOM     27  O   LIG A   1      -3.540  -0.998 133.766  0.00  0.00    -0.345 OA
ATOM     28  C   LIG A   1      -3.280  -1.982 132.768  0.00  0.00    +0.251 C 
BRANCH  28  29
ATOM     29  O   LIG A   1      -2.463  -3.000 133.331  0.00  0.00    -0.367 OA
ATOM     30  H   LIG A   1      -1.656  -2.552 133.631  0.00  0.00    +0.212 HD
ENDBRANCH  28  29
BRANCH  26  31
ATOM     31  C   LIG A   1      -5.267  -0.397 135.384  0.00  0.00    +0.174 C 
BRANCH  31  32
ATOM     32  C   LIG A   1      -4.333   0.429 136.320  0.00  0.00    +0.089 C 
ATOM     33  C   LIG A   1      -4.798   0.397 137.785  0.00  0.00    +0.044 C 
ATOM     34  C   LIG A   1      -4.266   1.886 135.860  0.00  0.00    +0.044 C 
BRANCH  32  35
ATOM     35  O   LIG A   1      -2.996  -0.085 136.300  0.00  0.00    -0.387 OA
ATOM     36  H   LIG A   1      -2.403   0.689 136.276  0.00  0.00    +0.210 HD
ENDBRANCH  32  35
ENDBRANCH  31  32
BRANCH  31  37
ATOM     37  O   LIG A   1      -6.374  -0.928 136.137  0.00  0.00    -0.386 OA
ATOM     38  H   LIG A   1      -6.294  -0.515 137.020  0.00  0.00    +0.210 HD
ENDBRANCH  31  37
ENDBRANCH  26  31
ENDBRANCH  20  24
TORSDOF 6
ENDMDL
