MODEL 1
REMARK VINA RESULT:      -9.3      0.000      0.000
REMARK  Name = NuBBE_1066
REMARK  0 active torsions:
REMARK  status: ('A' for Active; 'I' for Inactive)
REMARK                            x       y       z     vdW  Elec       q    Type
REMARK                         _______ _______ _______ _____ _____    ______ ____
ROOT
ATOM      1  O   LIG A   1     -12.305   6.302 131.940  0.00  0.00    -0.267 OA
ATOM      2  C   LIG A   1     -11.434   6.617 131.172  0.00  0.00    +0.262 A 
ATOM      3  C   LIG A   1     -11.767   7.137 129.840  0.00  0.00    +0.065 A 
ATOM      4  C   LIG A   1     -13.086   7.103 129.491  0.00  0.00    +0.015 A 
ATOM      5  C   LIG A   1     -13.454   7.514 128.216  0.00  0.00    +0.001 A 
ATOM      6  C   LIG A   1     -12.688   8.488 127.650  0.00  0.00    +0.002 A 
ATOM      7  C   LIG A   1     -11.310   8.384 127.889  0.00  0.00    +0.028 A 
ATOM      8  C   LIG A   1     -10.798   7.708 129.046  0.00  0.00    +0.079 A 
ATOM      9  N   LIG A   1      -9.407   7.585 129.435  0.00  0.00    -0.227 NA
ATOM     10  C   LIG A   1      -9.117   7.018 130.568  0.00  0.00    +0.161 A 
ATOM     11  N   LIG A   1     -10.082   6.528 131.457  0.00  0.00    -0.291 N 
ATOM     12  C   LIG A   1      -9.787   6.077 132.839  0.00  0.00    +0.131 C 
ATOM     13  C   LIG A   1      -8.480   5.290 132.967  0.00  0.00    +0.059 C 
ATOM     14  C   LIG A   1      -7.438   6.018 132.211  0.00  0.00    -0.010 A 
ATOM     15  C   LIG A   1      -7.749   6.797 131.100  0.00  0.00    +0.087 A 
ATOM     16  N   LIG A   1      -6.546   7.290 130.648  0.00  0.00    -0.351 N 
ATOM     17  H   LIG A   1      -6.443   7.894 129.843  0.00  0.00    +0.166 HD
ATOM     18  C   LIG A   1      -5.504   6.897 131.483  0.00  0.00    +0.047 A 
ATOM     19  C   LIG A   1      -6.049   6.093 132.481  0.00  0.00    +0.004 A 
ATOM     20  C   LIG A   1      -5.210   5.555 133.483  0.00  0.00    +0.010 A 
ATOM     21  C   LIG A   1      -3.840   5.828 133.450  0.00  0.00    +0.001 A 
ATOM     22  C   LIG A   1      -3.315   6.631 132.442  0.00  0.00    +0.002 A 
ATOM     23  C   LIG A   1      -4.128   7.180 131.447  0.00  0.00    +0.026 A 
ENDROOT
TORSDOF 0
ENDMDL
MODEL 2
REMARK VINA RESULT:      -8.4      2.909      4.178
REMARK  Name = NuBBE_1066
REMARK  0 active torsions:
REMARK  status: ('A' for Active; 'I' for Inactive)
REMARK                            x       y       z     vdW  Elec       q    Type
REMARK                         _______ _______ _______ _____ _____    ______ ____
ROOT
ATOM      1  O   LIG A   1      -9.127   8.325 129.495  0.00  0.00    -0.267 OA
ATOM      2  C   LIG A   1      -9.880   7.398 129.644  0.00  0.00    +0.262 A 
ATOM      3  C   LIG A   1     -11.290   7.515 129.251  0.00  0.00    +0.065 A 
ATOM      4  C   LIG A   1     -11.706   8.752 128.855  0.00  0.00    +0.015 A 
ATOM      5  C   LIG A   1     -13.046   8.942 128.541  0.00  0.00    +0.001 A 
ATOM      6  C   LIG A   1     -13.701   7.870 128.014  0.00  0.00    +0.002 A 
ATOM      7  C   LIG A   1     -13.370   6.628 128.576  0.00  0.00    +0.028 A 
ATOM      8  C   LIG A   1     -12.101   6.403 129.204  0.00  0.00    +0.079 A 
ATOM      9  N   LIG A   1     -11.618   5.156 129.763  0.00  0.00    -0.227 NA
ATOM     10  C   LIG A   1     -10.401   5.097 130.215  0.00  0.00    +0.161 A 
ATOM     11  N   LIG A   1      -9.507   6.175 130.175  0.00  0.00    -0.291 N 
ATOM     12  C   LIG A   1      -8.060   6.069 130.482  0.00  0.00    +0.131 C 
ATOM     13  C   LIG A   1      -7.745   5.145 131.661  0.00  0.00    +0.059 C 
ATOM     14  C   LIG A   1      -8.536   3.907 131.491  0.00  0.00    -0.010 A 
ATOM     15  C   LIG A   1      -9.764   3.908 130.834  0.00  0.00    +0.087 A 
ATOM     16  N   LIG A   1     -10.212   2.607 130.890  0.00  0.00    -0.351 N 
ATOM     17  H   LIG A   1     -11.088   2.288 130.498  0.00  0.00    +0.166 HD
ATOM     18  C   LIG A   1      -9.269   1.784 131.502  0.00  0.00    +0.047 A 
ATOM     19  C   LIG A   1      -8.200   2.589 131.887  0.00  0.00    +0.004 A 
ATOM     20  C   LIG A   1      -7.084   2.009 132.531  0.00  0.00    +0.010 A 
ATOM     21  C   LIG A   1      -7.076   0.635 132.785  0.00  0.00    +0.001 A 
ATOM     22  C   LIG A   1      -8.157  -0.151 132.396  0.00  0.00    +0.002 A 
ATOM     23  C   LIG A   1      -9.266   0.402 131.750  0.00  0.00    +0.026 A 
ENDROOT
TORSDOF 0
ENDMDL
MODEL 3
REMARK VINA RESULT:      -8.2      2.002      3.027
REMARK  Name = NuBBE_1066
REMARK  0 active torsions:
REMARK  status: ('A' for Active; 'I' for Inactive)
REMARK                            x       y       z     vdW  Elec       q    Type
REMARK                         _______ _______ _______ _____ _____    ______ ____
ROOT
ATOM      1  O   LIG A   1      -9.101   5.683 128.078  0.00  0.00    -0.267 OA
ATOM      2  C   LIG A   1      -9.542   6.041 129.138  0.00  0.00    +0.262 A 
ATOM      3  C   LIG A   1     -10.876   6.649 129.222  0.00  0.00    +0.065 A 
ATOM      4  C   LIG A   1     -11.499   6.905 128.036  0.00  0.00    +0.015 A 
ATOM      5  C   LIG A   1     -12.731   7.547 128.049  0.00  0.00    +0.001 A 
ATOM      6  C   LIG A   1     -13.528   7.303 129.127  0.00  0.00    +0.002 A 
ATOM      7  C   LIG A   1     -12.864   7.222 130.359  0.00  0.00    +0.028 A 
ATOM      8  C   LIG A   1     -11.480   6.851 130.443  0.00  0.00    +0.079 A 
ATOM      9  N   LIG A   1     -10.701   6.673 131.653  0.00  0.00    -0.227 NA
ATOM     10  C   LIG A   1      -9.479   6.242 131.557  0.00  0.00    +0.161 A 
ATOM     11  N   LIG A   1      -8.866   5.915 130.340  0.00  0.00    -0.291 N 
ATOM     12  C   LIG A   1      -7.560   5.223 130.226  0.00  0.00    +0.131 C 
ATOM     13  C   LIG A   1      -6.521   5.689 131.249  0.00  0.00    +0.059 C 
ATOM     14  C   LIG A   1      -7.185   5.757 132.569  0.00  0.00    -0.010 A 
ATOM     15  C   LIG A   1      -8.546   6.026 132.691  0.00  0.00    +0.087 A 
ATOM     16  N   LIG A   1      -8.799   6.036 134.044  0.00  0.00    -0.351 N 
ATOM     17  H   LIG A   1      -9.708   6.210 134.453  0.00  0.00    +0.166 HD
ATOM     18  C   LIG A   1      -7.652   5.714 134.766  0.00  0.00    +0.047 A 
ATOM     19  C   LIG A   1      -6.620   5.530 133.849  0.00  0.00    +0.004 A 
ATOM     20  C   LIG A   1      -5.330   5.182 134.307  0.00  0.00    +0.010 A 
ATOM     21  C   LIG A   1      -5.105   5.040 135.680  0.00  0.00    +0.001 A 
ATOM     22  C   LIG A   1      -6.149   5.232 136.579  0.00  0.00    +0.002 A 
ATOM     23  C   LIG A   1      -7.435   5.568 136.145  0.00  0.00    +0.026 A 
ENDROOT
TORSDOF 0
ENDMDL
MODEL 4
REMARK VINA RESULT:      -8.0      8.446     10.255
REMARK  Name = NuBBE_1066
REMARK  0 active torsions:
REMARK  status: ('A' for Active; 'I' for Inactive)
REMARK                            x       y       z     vdW  Elec       q    Type
REMARK                         _______ _______ _______ _____ _____    ______ ____
ROOT
ATOM      1  O   LIG A   1      -9.218   0.171 125.658  0.00  0.00    -0.267 OA
ATOM      2  C   LIG A   1      -8.289   0.934 125.600  0.00  0.00    +0.262 A 
ATOM      3  C   LIG A   1      -7.421   1.139 126.766  0.00  0.00    +0.065 A 
ATOM      4  C   LIG A   1      -7.812   0.536 127.925  0.00  0.00    +0.015 A 
ATOM      5  C   LIG A   1      -7.071   0.753 129.079  0.00  0.00    +0.001 A 
ATOM      6  C   LIG A   1      -5.735   0.960 128.910  0.00  0.00    +0.002 A 
ATOM      7  C   LIG A   1      -5.384   1.739 127.798  0.00  0.00    +0.028 A 
ATOM      8  C   LIG A   1      -6.234   1.828 126.645  0.00  0.00    +0.079 A 
ATOM      9  N   LIG A   1      -5.958   2.545 125.416  0.00  0.00    -0.227 NA
ATOM     10  C   LIG A   1      -6.796   2.447 124.428  0.00  0.00    +0.161 A 
ATOM     11  N   LIG A   1      -7.956   1.664 124.471  0.00  0.00    -0.291 N 
ATOM     12  C   LIG A   1      -8.806   1.368 123.292  0.00  0.00    +0.131 C 
ATOM     13  C   LIG A   1      -8.989   2.559 122.347  0.00  0.00    +0.059 C 
ATOM     14  C   LIG A   1      -7.663   3.180 122.140  0.00  0.00    -0.010 A 
ATOM     15  C   LIG A   1      -6.670   3.131 123.116  0.00  0.00    +0.087 A 
ATOM     16  N   LIG A   1      -5.604   3.824 122.591  0.00  0.00    -0.351 N 
ATOM     17  H   LIG A   1      -4.724   3.967 123.071  0.00  0.00    +0.166 HD
ATOM     18  C   LIG A   1      -5.877   4.247 121.292  0.00  0.00    +0.047 A 
ATOM     19  C   LIG A   1      -7.176   3.845 120.988  0.00  0.00    +0.004 A 
ATOM     20  C   LIG A   1      -7.719   4.137 119.716  0.00  0.00    +0.010 A 
ATOM     21  C   LIG A   1      -6.946   4.837 118.785  0.00  0.00    +0.001 A 
ATOM     22  C   LIG A   1      -5.652   5.232 119.111  0.00  0.00    +0.002 A 
ATOM     23  C   LIG A   1      -5.094   4.946 120.360  0.00  0.00    +0.026 A 
ENDROOT
TORSDOF 0
ENDMDL
MODEL 5
REMARK VINA RESULT:      -7.9      2.968      7.130
REMARK  Name = NuBBE_1066
REMARK  0 active torsions:
REMARK  status: ('A' for Active; 'I' for Inactive)
REMARK                            x       y       z     vdW  Elec       q    Type
REMARK                         _______ _______ _______ _____ _____    ______ ____
ROOT
ATOM      1  O   LIG A   1      -6.770   4.576 132.723  0.00  0.00    -0.267 OA
ATOM      2  C   LIG A   1      -7.687   4.118 132.092  0.00  0.00    +0.262 A 
ATOM      3  C   LIG A   1      -7.867   2.665 131.990  0.00  0.00    +0.065 A 
ATOM      4  C   LIG A   1      -6.875   1.894 132.521  0.00  0.00    +0.015 A 
ATOM      5  C   LIG A   1      -6.953   0.513 132.390  0.00  0.00    +0.001 A 
ATOM      6  C   LIG A   1      -8.206  -0.021 132.367  0.00  0.00    +0.002 A 
ATOM      7  C   LIG A   1      -9.162   0.719 131.656  0.00  0.00    +0.028 A 
ATOM      8  C   LIG A   1      -9.027   2.135 131.469  0.00  0.00    +0.079 A 
ATOM      9  N   LIG A   1      -9.970   3.018 130.811  0.00  0.00    -0.227 NA
ATOM     10  C   LIG A   1      -9.739   4.297 130.809  0.00  0.00    +0.161 A 
ATOM     11  N   LIG A   1      -8.630   4.885 131.428  0.00  0.00    -0.291 N 
ATOM     12  C   LIG A   1      -8.461   6.346 131.623  0.00  0.00    +0.131 C 
ATOM     13  C   LIG A   1      -8.926   7.186 130.430  0.00  0.00    +0.059 C 
ATOM     14  C   LIG A   1     -10.241   6.665 129.995  0.00  0.00    -0.010 A 
ATOM     15  C   LIG A   1     -10.592   5.328 130.165  0.00  0.00    +0.087 A 
ATOM     16  N   LIG A   1     -11.853   5.208 129.627  0.00  0.00    -0.351 N 
ATOM     17  H   LIG A   1     -12.381   4.346 129.598  0.00  0.00    +0.166 HD
ATOM     18  C   LIG A   1     -12.325   6.443 129.189  0.00  0.00    +0.047 A 
ATOM     19  C   LIG A   1     -11.319   7.379 129.416  0.00  0.00    +0.004 A 
ATOM     20  C   LIG A   1     -11.531   8.733 129.071  0.00  0.00    +0.010 A 
ATOM     21  C   LIG A   1     -12.747   9.110 128.493  0.00  0.00    +0.001 A 
ATOM     22  C   LIG A   1     -13.737   8.158 128.270  0.00  0.00    +0.002 A 
ATOM     23  C   LIG A   1     -13.550   6.817 128.613  0.00  0.00    +0.026 A 
ENDROOT
TORSDOF 0
ENDMDL
MODEL 6
REMARK VINA RESULT:      -7.8      8.745     10.531
REMARK  Name = NuBBE_1066
REMARK  0 active torsions:
REMARK  status: ('A' for Active; 'I' for Inactive)
REMARK                            x       y       z     vdW  Elec       q    Type
REMARK                         _______ _______ _______ _____ _____    ______ ____
ROOT
ATOM      1  O   LIG A   1      -5.534   4.562 124.820  0.00  0.00    -0.267 OA
ATOM      2  C   LIG A   1      -5.392   3.546 125.449  0.00  0.00    +0.262 A 
ATOM      3  C   LIG A   1      -4.498   3.510 126.613  0.00  0.00    +0.065 A 
ATOM      4  C   LIG A   1      -3.753   4.631 126.837  0.00  0.00    +0.015 A 
ATOM      5  C   LIG A   1      -2.835   4.631 127.880  0.00  0.00    +0.001 A 
ATOM      6  C   LIG A   1      -3.155   3.872 128.966  0.00  0.00    +0.002 A 
ATOM      7  C   LIG A   1      -3.762   2.641 128.680  0.00  0.00    +0.028 A 
ATOM      8  C   LIG A   1      -4.500   2.431 127.468  0.00  0.00    +0.079 A 
ATOM      9  N   LIG A   1      -5.222   1.233 127.087  0.00  0.00    -0.227 NA
ATOM     10  C   LIG A   1      -5.919   1.239 125.991  0.00  0.00    +0.161 A 
ATOM     11  N   LIG A   1      -6.035   2.356 125.153  0.00  0.00    -0.291 N 
ATOM     12  C   LIG A   1      -6.990   2.454 124.023  0.00  0.00    +0.131 C 
ATOM     13  C   LIG A   1      -7.136   1.157 123.222  0.00  0.00    +0.059 C 
ATOM     14  C   LIG A   1      -7.274   0.043 124.186  0.00  0.00    -0.010 A 
ATOM     15  C   LIG A   1      -6.695   0.094 125.452  0.00  0.00    +0.087 A 
ATOM     16  N   LIG A   1      -7.006  -1.107 126.047  0.00  0.00    -0.351 N 
ATOM     17  H   LIG A   1      -6.720  -1.373 126.980  0.00  0.00    +0.166 HD
ATOM     18  C   LIG A   1      -7.819  -1.876 125.218  0.00  0.00    +0.047 A 
ATOM     19  C   LIG A   1      -8.003  -1.163 124.035  0.00  0.00    +0.004 A 
ATOM     20  C   LIG A   1      -8.802  -1.708 123.005  0.00  0.00    +0.010 A 
ATOM     21  C   LIG A   1      -9.388  -2.964 123.185  0.00  0.00    +0.001 A 
ATOM     22  C   LIG A   1      -9.189  -3.662 124.372  0.00  0.00    +0.002 A 
ATOM     23  C   LIG A   1      -8.409  -3.137 125.406  0.00  0.00    +0.026 A 
ENDROOT
TORSDOF 0
ENDMDL
MODEL 7
REMARK VINA RESULT:      -7.8      1.849      1.849
REMARK  Name = NuBBE_1066
REMARK  0 active torsions:
REMARK  status: ('A' for Active; 'I' for Inactive)
REMARK                            x       y       z     vdW  Elec       q    Type
REMARK                         _______ _______ _______ _____ _____    ______ ____
ROOT
ATOM      1  O   LIG A   1     -12.302   6.477 131.854  0.00  0.00    -0.267 OA
ATOM      2  C   LIG A   1     -11.538   6.289 130.943  0.00  0.00    +0.262 A 
ATOM      3  C   LIG A   1     -11.916   6.643 129.570  0.00  0.00    +0.065 A 
ATOM      4  C   LIG A   1     -13.204   7.052 129.384  0.00  0.00    +0.015 A 
ATOM      5  C   LIG A   1     -13.641   7.330 128.095  0.00  0.00    +0.001 A 
ATOM      6  C   LIG A   1     -12.706   7.817 127.232  0.00  0.00    +0.002 A 
ATOM      7  C   LIG A   1     -11.432   7.240 127.338  0.00  0.00    +0.028 A 
ATOM      8  C   LIG A   1     -10.978   6.644 128.561  0.00  0.00    +0.079 A 
ATOM      9  N   LIG A   1      -9.669   6.074 128.816  0.00  0.00    -0.227 NA
ATOM     10  C   LIG A   1      -9.386   5.657 130.014  0.00  0.00    +0.161 A 
ATOM     11  N   LIG A   1     -10.273   5.744 131.094  0.00  0.00    -0.291 N 
ATOM     12  C   LIG A   1      -9.898   5.477 132.503  0.00  0.00    +0.131 C 
ATOM     13  C   LIG A   1      -8.948   4.289 132.675  0.00  0.00    +0.059 C 
ATOM     14  C   LIG A   1      -7.881   4.412 131.658  0.00  0.00    -0.010 A 
ATOM     15  C   LIG A   1      -8.106   5.033 130.432  0.00  0.00    +0.087 A 
ATOM     16  N   LIG A   1      -6.916   4.938 129.747  0.00  0.00    -0.351 N 
ATOM     17  H   LIG A   1      -6.764   5.298 128.814  0.00  0.00    +0.166 HD
ATOM     18  C   LIG A   1      -5.937   4.337 130.535  0.00  0.00    +0.047 A 
ATOM     19  C   LIG A   1      -6.528   3.999 131.750  0.00  0.00    +0.004 A 
ATOM     20  C   LIG A   1      -5.756   3.376 132.756  0.00  0.00    +0.010 A 
ATOM     21  C   LIG A   1      -4.409   3.095 132.510  0.00  0.00    +0.001 A 
ATOM     22  C   LIG A   1      -3.838   3.437 131.287  0.00  0.00    +0.002 A 
ATOM     23  C   LIG A   1      -4.583   4.062 130.284  0.00  0.00    +0.026 A 
ENDROOT
TORSDOF 0
ENDMDL
MODEL 8
REMARK VINA RESULT:      -7.7      2.195      7.167
REMARK  Name = NuBBE_1066
REMARK  0 active torsions:
REMARK  status: ('A' for Active; 'I' for Inactive)
REMARK                            x       y       z     vdW  Elec       q    Type
REMARK                         _______ _______ _______ _____ _____    ______ ____
ROOT
ATOM      1  O   LIG A   1      -4.650   4.205 134.233  0.00  0.00    -0.267 OA
ATOM      2  C   LIG A   1      -4.816   5.037 133.380  0.00  0.00    +0.262 A 
ATOM      3  C   LIG A   1      -3.666   5.717 132.771  0.00  0.00    +0.065 A 
ATOM      4  C   LIG A   1      -2.446   5.455 133.324  0.00  0.00    +0.015 A 
ATOM      5  C   LIG A   1      -1.330   6.125 132.839  0.00  0.00    +0.001 A 
ATOM      6  C   LIG A   1      -1.352   6.458 131.518  0.00  0.00    +0.002 A 
ATOM      7  C   LIG A   1      -2.592   6.894 131.029  0.00  0.00    +0.028 A 
ATOM      8  C   LIG A   1      -3.825   6.497 131.647  0.00  0.00    +0.079 A 
ATOM      9  N   LIG A   1      -5.165   6.827 131.203  0.00  0.00    -0.227 NA
ATOM     10  C   LIG A   1      -6.180   6.307 131.825  0.00  0.00    +0.161 A 
ATOM     11  N   LIG A   1      -6.057   5.419 132.901  0.00  0.00    -0.291 N 
ATOM     12  C   LIG A   1      -7.187   4.652 133.480  0.00  0.00    +0.131 C 
ATOM     13  C   LIG A   1      -8.489   5.451 133.581  0.00  0.00    +0.059 C 
ATOM     14  C   LIG A   1      -8.685   6.160 132.298  0.00  0.00    -0.010 A 
ATOM     15  C   LIG A   1      -7.609   6.559 131.510  0.00  0.00    +0.087 A 
ATOM     16  N   LIG A   1      -8.164   7.201 130.426  0.00  0.00    -0.351 N 
ATOM     17  H   LIG A   1      -7.631   7.610 129.670  0.00  0.00    +0.166 HD
ATOM     18  C   LIG A   1      -9.555   7.154 130.481  0.00  0.00    +0.047 A 
ATOM     19  C   LIG A   1      -9.904   6.496 131.658  0.00  0.00    +0.004 A 
ATOM     20  C   LIG A   1     -11.268   6.296 131.971  0.00  0.00    +0.010 A 
ATOM     21  C   LIG A   1     -12.248   6.775 131.098  0.00  0.00    +0.001 A 
ATOM     22  C   LIG A   1     -11.878   7.433 129.929  0.00  0.00    +0.002 A 
ATOM     23  C   LIG A   1     -10.536   7.633 129.597  0.00  0.00    +0.026 A 
ENDROOT
TORSDOF 0
ENDMDL
MODEL 9
REMARK VINA RESULT:      -7.6      8.528      9.054
REMARK  Name = NuBBE_1066
REMARK  0 active torsions:
REMARK  status: ('A' for Active; 'I' for Inactive)
REMARK                            x       y       z     vdW  Elec       q    Type
REMARK                         _______ _______ _______ _____ _____    ______ ____
ROOT
ATOM      1  O   LIG A   1      -9.021   1.379 122.849  0.00  0.00    -0.267 OA
ATOM      2  C   LIG A   1      -8.247   0.874 123.620  0.00  0.00    +0.262 A 
ATOM      3  C   LIG A   1      -8.221  -0.582 123.801  0.00  0.00    +0.065 A 
ATOM      4  C   LIG A   1      -9.199  -1.288 123.165  0.00  0.00    +0.015 A 
ATOM      5  C   LIG A   1      -9.271  -2.662 123.357  0.00  0.00    +0.001 A 
ATOM      6  C   LIG A   1      -8.089  -3.303 123.578  0.00  0.00    +0.002 A 
ATOM      7  C   LIG A   1      -7.174  -2.615 124.389  0.00  0.00    +0.028 A 
ATOM      8  C   LIG A   1      -7.199  -1.185 124.502  0.00  0.00    +0.079 A 
ATOM      9  N   LIG A   1      -6.276  -0.357 125.252  0.00  0.00    -0.227 NA
ATOM     10  C   LIG A   1      -6.383   0.936 125.174  0.00  0.00    +0.161 A 
ATOM     11  N   LIG A   1      -7.336   1.587 124.381  0.00  0.00    -0.291 N 
ATOM     12  C   LIG A   1      -7.338   3.045 124.110  0.00  0.00    +0.131 C 
ATOM     13  C   LIG A   1      -6.964   3.901 125.323  0.00  0.00    +0.059 C 
ATOM     14  C   LIG A   1      -5.777   3.289 125.960  0.00  0.00    -0.010 A 
ATOM     15  C   LIG A   1      -5.534   1.919 125.892  0.00  0.00    +0.087 A 
ATOM     16  N   LIG A   1      -4.376   1.715 126.608  0.00  0.00    -0.351 N 
ATOM     17  H   LIG A   1      -3.941   0.812 126.744  0.00  0.00    +0.166 HD
ATOM     18  C   LIG A   1      -3.854   2.924 127.061  0.00  0.00    +0.047 A 
ATOM     19  C   LIG A   1      -4.726   3.933 126.659  0.00  0.00    +0.004 A 
ATOM     20  C   LIG A   1      -4.436   5.278 126.979  0.00  0.00    +0.010 A 
ATOM     21  C   LIG A   1      -3.282   5.576 127.709  0.00  0.00    +0.001 A 
ATOM     22  C   LIG A   1      -2.426   4.552 128.105  0.00  0.00    +0.002 A 
ATOM     23  C   LIG A   1      -2.690   3.217 127.791  0.00  0.00    +0.026 A 
ENDROOT
TORSDOF 0
ENDMDL
