MODEL 1
REMARK VINA RESULT:      -9.2      0.000      0.000
REMARK  Name = NuBBE_87
REMARK  10 active torsions:
REMARK  status: ('A' for Active; 'I' for Inactive)
REMARK    1  A    between atoms: C_3  and  O_4
REMARK    2  A    between atoms: C_5  and  C_6
REMARK    3  A    between atoms: C_11  and  C_27
REMARK    4  A    between atoms: C_14  and  C_15
REMARK    5  A    between atoms: C_19  and  C_20
REMARK    6  A    between atoms: C_19  and  C_21
REMARK    7  A    between atoms: C_21  and  O_22
REMARK    8  A    between atoms: O_22  and  C_23
REMARK    9  A    between atoms: C_28  and  C_29
REMARK   10  A    between atoms: C_32  and  C_33
REMARK                            x       y       z     vdW  Elec       q    Type
REMARK                         _______ _______ _______ _____ _____    ______ ____
ROOT
ATOM      1  O   LIG A   1      -7.909   0.300 123.245  0.00  0.00    -0.284 OA
ATOM      2  C   LIG A   1      -7.365   1.043 124.058  0.00  0.00    +0.221 C 
ATOM      3  C   LIG A   1      -6.757   2.322 123.602  0.00  0.00    +0.167 C 
ATOM      4  C   LIG A   1      -6.115   3.124 124.470  0.00  0.00    +0.002 C 
ATOM      5  C   LIG A   1      -5.567   4.458 124.028  0.00  0.00    +0.048 C 
ATOM      6  C   LIG A   1      -6.001   2.717 125.890  0.00  0.00    -0.014 C 
ATOM      7  C   LIG A   1      -5.279   3.445 126.760  0.00  0.00    +0.008 C 
ATOM      8  C   LIG A   1      -5.310   3.253 128.186  0.00  0.00    +0.001 C 
ATOM      9  C   LIG A   1      -6.001   2.260 128.779  0.00  0.00    -0.053 C 
ATOM     10  C   LIG A   1      -6.403   2.292 130.301  0.00  0.00    -0.004 C 
ATOM     11  C   LIG A   1      -5.779   3.542 131.047  0.00  0.00    +0.012 C 
ATOM     12  C   LIG A   1      -6.512   3.937 132.326  0.00  0.00    +0.008 C 
ATOM     13  C   LIG A   1      -7.954   4.423 132.039  0.00  0.00    -0.029 C 
ATOM     14  C   LIG A   1      -8.812   4.090 133.288  0.00  0.00    +0.011 C 
ATOM     15  C   LIG A   1      -8.465   3.840 130.677  0.00  0.00    +0.003 C 
ATOM     16  C   LIG A   1      -9.944   4.218 130.444  0.00  0.00    +0.022 C 
ATOM     17  C   LIG A   1     -10.190   5.755 130.488  0.00  0.00    +0.065 C 
ATOM     18  C   LIG A   1     -11.696   5.998 130.751  0.00  0.00    +0.023 C 
ATOM     19  C   LIG A   1      -9.401   6.495 131.603  0.00  0.00    +0.018 C 
ATOM     20  C   LIG A   1      -7.985   5.964 131.866  0.00  0.00    +0.008 C 
ATOM     21  C   LIG A   1      -5.775   1.059 131.005  0.00  0.00    +0.016 C 
ATOM     22  C   LIG A   1      -8.025   2.340 130.414  0.00  0.00    -0.020 C 
ATOM     23  C   LIG A   1      -8.577   1.404 131.521  0.00  0.00    +0.012 C 
ATOM     24  C   LIG A   1      -8.682   1.847 129.082  0.00  0.00    +0.009 C 
ATOM     25  C   LIG A   1      -7.934   0.669 128.463  0.00  0.00    +0.016 C 
ATOM     26  C   LIG A   1      -6.561   1.113 127.892  0.00  0.00    +0.015 C 
ATOM     27  C   LIG A   1      -5.572  -0.083 127.906  0.00  0.00    +0.021 C 
ATOM     28  C   LIG A   1      -6.690   1.511 126.389  0.00  0.00    -0.026 C 
ATOM     29  C   LIG A   1      -7.311   0.716 125.493  0.00  0.00    +0.059 C 
ENDROOT
BRANCH   3  30
ATOM     30  O   LIG A   1      -6.903   2.633 122.261  0.00  0.00    -0.503 OA
ATOM     31  H   LIG A   1      -6.504   1.874 121.783  0.00  0.00    +0.292 HD
ENDBRANCH   3  30
BRANCH  17  32
ATOM     32  C   LIG A   1      -9.801   6.403 129.139  0.00  0.00    +0.313 C 
ATOM     33  O   LIG A   1      -9.474   5.778 128.144  0.00  0.00    -0.250 OA
BRANCH  32  34
ATOM     34  O   LIG A   1      -9.808   7.763 129.227  0.00  0.00    -0.468 OA
ATOM     35  C   LIG A   1     -10.493   8.469 128.191  0.00  0.00    +0.280 C 
ENDBRANCH  32  34
ENDBRANCH  17  32
TORSDOF 3
ENDMDL
MODEL 2
REMARK VINA RESULT:      -9.0      3.675      6.471
REMARK  Name = NuBBE_87
REMARK  10 active torsions:
REMARK  status: ('A' for Active; 'I' for Inactive)
REMARK    1  A    between atoms: C_3  and  O_4
REMARK    2  A    between atoms: C_5  and  C_6
REMARK    3  A    between atoms: C_11  and  C_27
REMARK    4  A    between atoms: C_14  and  C_15
REMARK    5  A    between atoms: C_19  and  C_20
REMARK    6  A    between atoms: C_19  and  C_21
REMARK    7  A    between atoms: C_21  and  O_22
REMARK    8  A    between atoms: O_22  and  C_23
REMARK    9  A    between atoms: C_28  and  C_29
REMARK   10  A    between atoms: C_32  and  C_33
REMARK                            x       y       z     vdW  Elec       q    Type
REMARK                         _______ _______ _______ _____ _____    ______ ____
ROOT
ATOM      1  O   LIG A   1     -13.131   7.703 131.846  0.00  0.00    -0.284 OA
ATOM      2  C   LIG A   1     -12.254   7.275 131.101  0.00  0.00    +0.221 C 
ATOM      3  C   LIG A   1     -11.939   7.993 129.837  0.00  0.00    +0.167 C 
ATOM      4  C   LIG A   1     -11.015   7.511 128.987  0.00  0.00    +0.002 C 
ATOM      5  C   LIG A   1     -10.636   8.277 127.743  0.00  0.00    +0.048 C 
ATOM      6  C   LIG A   1     -10.320   6.244 129.309  0.00  0.00    -0.014 C 
ATOM      7  C   LIG A   1      -9.466   5.683 128.433  0.00  0.00    +0.008 C 
ATOM      8  C   LIG A   1      -8.583   4.595 128.759  0.00  0.00    +0.001 C 
ATOM      9  C   LIG A   1      -8.592   3.973 129.954  0.00  0.00    -0.053 C 
ATOM     10  C   LIG A   1      -7.381   3.111 130.475  0.00  0.00    -0.004 C 
ATOM     11  C   LIG A   1      -6.249   2.963 129.379  0.00  0.00    +0.012 C 
ATOM     12  C   LIG A   1      -4.872   2.623 129.942  0.00  0.00    +0.008 C 
ATOM     13  C   LIG A   1      -4.313   3.764 130.827  0.00  0.00    -0.029 C 
ATOM     14  C   LIG A   1      -3.387   3.112 131.888  0.00  0.00    +0.011 C 
ATOM     15  C   LIG A   1      -5.482   4.647 131.382  0.00  0.00    +0.003 C 
ATOM     16  C   LIG A   1      -4.941   5.709 132.364  0.00  0.00    +0.022 C 
ATOM     17  C   LIG A   1      -3.846   6.616 131.733  0.00  0.00    +0.065 C 
ATOM     18  C   LIG A   1      -3.037   7.271 132.879  0.00  0.00    +0.023 C 
ATOM     19  C   LIG A   1      -2.834   5.858 130.828  0.00  0.00    +0.018 C 
ATOM     20  C   LIG A   1      -3.432   4.724 129.986  0.00  0.00    +0.008 C 
ATOM     21  C   LIG A   1      -7.878   1.663 130.728  0.00  0.00    +0.016 C 
ATOM     22  C   LIG A   1      -6.767   3.822 131.804  0.00  0.00    -0.020 C 
ATOM     23  C   LIG A   1      -6.424   2.804 132.923  0.00  0.00    +0.012 C 
ATOM     24  C   LIG A   1      -7.812   4.801 132.434  0.00  0.00    +0.009 C 
ATOM     25  C   LIG A   1      -9.236   4.253 132.377  0.00  0.00    +0.016 C 
ATOM     26  C   LIG A   1      -9.776   4.245 130.922  0.00  0.00    +0.015 C 
ATOM     27  C   LIG A   1     -10.843   3.129 130.762  0.00  0.00    +0.021 C 
ATOM     28  C   LIG A   1     -10.532   5.573 130.606  0.00  0.00    -0.026 C 
ATOM     29  C   LIG A   1     -11.477   6.068 131.431  0.00  0.00    +0.059 C 
ENDROOT
BRANCH   3  30
ATOM     30  O   LIG A   1     -12.631   9.169 129.604  0.00  0.00    -0.503 OA
ATOM     31  H   LIG A   1     -11.949   9.873 129.646  0.00  0.00    +0.292 HD
ENDBRANCH   3  30
BRANCH  17  32
ATOM     32  C   LIG A   1      -4.493   7.726 130.872  0.00  0.00    +0.313 C 
ATOM     33  O   LIG A   1      -5.596   7.643 130.358  0.00  0.00    -0.250 OA
BRANCH  32  34
ATOM     34  O   LIG A   1      -3.645   8.781 130.712  0.00  0.00    -0.468 OA
ATOM     35  C   LIG A   1      -3.780   9.535 129.505  0.00  0.00    +0.280 C 
ENDBRANCH  32  34
ENDBRANCH  17  32
TORSDOF 3
ENDMDL
MODEL 3
REMARK VINA RESULT:      -9.0      4.163      7.287
REMARK  Name = NuBBE_87
REMARK  10 active torsions:
REMARK  status: ('A' for Active; 'I' for Inactive)
REMARK    1  A    between atoms: C_3  and  O_4
REMARK    2  A    between atoms: C_5  and  C_6
REMARK    3  A    between atoms: C_11  and  C_27
REMARK    4  A    between atoms: C_14  and  C_15
REMARK    5  A    between atoms: C_19  and  C_20
REMARK    6  A    between atoms: C_19  and  C_21
REMARK    7  A    between atoms: C_21  and  O_22
REMARK    8  A    between atoms: O_22  and  C_23
REMARK    9  A    between atoms: C_28  and  C_29
REMARK   10  A    between atoms: C_32  and  C_33
REMARK                            x       y       z     vdW  Elec       q    Type
REMARK                         _______ _______ _______ _____ _____    ______ ____
ROOT
ATOM      1  O   LIG A   1      -5.167  -5.206 131.114  0.00  0.00    -0.284 OA
ATOM      2  C   LIG A   1      -5.732  -4.126 130.968  0.00  0.00    +0.221 C 
ATOM      3  C   LIG A   1      -5.952  -3.240 132.142  0.00  0.00    +0.167 C 
ATOM      4  C   LIG A   1      -6.613  -2.076 132.008  0.00  0.00    +0.002 C 
ATOM      5  C   LIG A   1      -6.768  -1.137 133.179  0.00  0.00    +0.048 C 
ATOM      6  C   LIG A   1      -7.139  -1.685 130.680  0.00  0.00    -0.014 C 
ATOM      7  C   LIG A   1      -7.890  -0.579 130.533  0.00  0.00    +0.008 C 
ATOM      8  C   LIG A   1      -8.238  -0.009 129.258  0.00  0.00    +0.001 C 
ATOM      9  C   LIG A   1      -7.916  -0.584 128.084  0.00  0.00    -0.053 C 
ATOM     10  C   LIG A   1      -7.889   0.211 126.725  0.00  0.00    -0.004 C 
ATOM     11  C   LIG A   1      -8.416   1.694 126.901  0.00  0.00    +0.012 C 
ATOM     12  C   LIG A   1      -7.946   2.658 125.816  0.00  0.00    +0.008 C 
ATOM     13  C   LIG A   1      -6.411   2.859 125.846  0.00  0.00    -0.029 C 
ATOM     14  C   LIG A   1      -5.957   3.179 124.398  0.00  0.00    +0.011 C 
ATOM     15  C   LIG A   1      -5.715   1.632 126.531  0.00  0.00    +0.003 C 
ATOM     16  C   LIG A   1      -4.178   1.768 126.454  0.00  0.00    +0.022 C 
ATOM     17  C   LIG A   1      -3.654   3.093 127.081  0.00  0.00    +0.065 C 
ATOM     18  C   LIG A   1      -2.236   3.366 126.523  0.00  0.00    +0.023 C 
ATOM     19  C   LIG A   1      -4.526   4.338 126.759  0.00  0.00    +0.018 C 
ATOM     20  C   LIG A   1      -6.039   4.086 126.719  0.00  0.00    +0.008 C 
ATOM     21  C   LIG A   1      -8.895  -0.451 125.745  0.00  0.00    +0.016 C 
ATOM     22  C   LIG A   1      -6.363   0.235 126.161  0.00  0.00    -0.020 C 
ATOM     23  C   LIG A   1      -6.285  -0.019 124.633  0.00  0.00    +0.012 C 
ATOM     24  C   LIG A   1      -5.518  -0.905 126.820  0.00  0.00    +0.009 C 
ATOM     25  C   LIG A   1      -6.313  -2.197 126.991  0.00  0.00    +0.016 C 
ATOM     26  C   LIG A   1      -7.396  -2.049 128.092  0.00  0.00    +0.015 C 
ATOM     27  C   LIG A   1      -8.574  -3.018 127.807  0.00  0.00    +0.021 C 
ATOM     28  C   LIG A   1      -6.838  -2.491 129.480  0.00  0.00    -0.026 C 
ATOM     29  C   LIG A   1      -6.190  -3.662 129.646  0.00  0.00    +0.059 C 
ENDROOT
BRANCH   3  30
ATOM     30  O   LIG A   1      -5.433  -3.673 133.350  0.00  0.00    -0.503 OA
ATOM     31  H   LIG A   1      -6.194  -3.654 133.970  0.00  0.00    +0.292 HD
ENDBRANCH   3  30
BRANCH  17  32
ATOM     32  C   LIG A   1      -3.577   2.968 128.621  0.00  0.00    +0.313 C 
ATOM     33  O   LIG A   1      -3.835   1.952 129.243  0.00  0.00    -0.250 OA
BRANCH  32  34
ATOM     34  O   LIG A   1      -3.245   4.159 129.193  0.00  0.00    -0.468 OA
ATOM     35  C   LIG A   1      -3.450   4.273 130.603  0.00  0.00    +0.280 C 
ENDBRANCH  32  34
ENDBRANCH  17  32
TORSDOF 3
ENDMDL
MODEL 4
REMARK VINA RESULT:      -8.9      1.970      3.264
REMARK  Name = NuBBE_87
REMARK  10 active torsions:
REMARK  status: ('A' for Active; 'I' for Inactive)
REMARK    1  A    between atoms: C_3  and  O_4
REMARK    2  A    between atoms: C_5  and  C_6
REMARK    3  A    between atoms: C_11  and  C_27
REMARK    4  A    between atoms: C_14  and  C_15
REMARK    5  A    between atoms: C_19  and  C_20
REMARK    6  A    between atoms: C_19  and  C_21
REMARK    7  A    between atoms: C_21  and  O_22
REMARK    8  A    between atoms: O_22  and  C_23
REMARK    9  A    between atoms: C_28  and  C_29
REMARK   10  A    between atoms: C_32  and  C_33
REMARK                            x       y       z     vdW  Elec       q    Type
REMARK                         _______ _______ _______ _____ _____    ______ ____
ROOT
ATOM      1  O   LIG A   1      -5.696  -1.160 125.035  0.00  0.00    -0.284 OA
ATOM      2  C   LIG A   1      -5.779   0.051 125.222  0.00  0.00    +0.221 C 
ATOM      3  C   LIG A   1      -6.797   0.846 124.485  0.00  0.00    +0.167 C 
ATOM      4  C   LIG A   1      -6.870   2.181 124.642  0.00  0.00    +0.002 C 
ATOM      5  C   LIG A   1      -7.950   2.981 123.958  0.00  0.00    +0.048 C 
ATOM      6  C   LIG A   1      -5.914   2.861 125.546  0.00  0.00    -0.014 C 
ATOM      7  C   LIG A   1      -5.894   4.202 125.647  0.00  0.00    +0.008 C 
ATOM      8  C   LIG A   1      -5.170   4.919 126.662  0.00  0.00    +0.001 C 
ATOM      9  C   LIG A   1      -4.366   4.314 127.558  0.00  0.00    -0.053 C 
ATOM     10  C   LIG A   1      -3.931   4.996 128.909  0.00  0.00    -0.004 C 
ATOM     11  C   LIG A   1      -4.432   6.495 129.000  0.00  0.00    +0.012 C 
ATOM     12  C   LIG A   1      -4.523   7.040 130.422  0.00  0.00    +0.008 C 
ATOM     13  C   LIG A   1      -5.591   6.295 131.259  0.00  0.00    -0.029 C 
ATOM     14  C   LIG A   1      -5.134   6.345 132.741  0.00  0.00    +0.011 C 
ATOM     15  C   LIG A   1      -5.850   4.867 130.666  0.00  0.00    +0.003 C 
ATOM     16  C   LIG A   1      -6.821   4.073 131.567  0.00  0.00    +0.022 C 
ATOM     17  C   LIG A   1      -8.175   4.807 131.793  0.00  0.00    +0.065 C 
ATOM     18  C   LIG A   1      -8.843   4.214 133.057  0.00  0.00    +0.023 C 
ATOM     19  C   LIG A   1      -8.040   6.338 132.016  0.00  0.00    +0.018 C 
ATOM     20  C   LIG A   1      -6.955   7.029 131.180  0.00  0.00    +0.008 C 
ATOM     21  C   LIG A   1      -2.382   5.096 128.936  0.00  0.00    +0.016 C 
ATOM     22  C   LIG A   1      -4.541   4.138 130.150  0.00  0.00    -0.020 C 
ATOM     23  C   LIG A   1      -3.525   3.949 131.306  0.00  0.00    +0.012 C 
ATOM     24  C   LIG A   1      -4.919   2.693 129.684  0.00  0.00    +0.009 C 
ATOM     25  C   LIG A   1      -3.904   2.112 128.701  0.00  0.00    +0.016 C 
ATOM     26  C   LIG A   1      -3.983   2.826 127.325  0.00  0.00    +0.015 C 
ATOM     27  C   LIG A   1      -2.606   2.751 126.613  0.00  0.00    +0.021 C 
ATOM     28  C   LIG A   1      -4.971   2.083 126.373  0.00  0.00    -0.026 C 
ATOM     29  C   LIG A   1      -4.907   0.749 126.182  0.00  0.00    +0.059 C 
ENDROOT
BRANCH   3  30
ATOM     30  O   LIG A   1      -7.653   0.141 123.657  0.00  0.00    -0.503 OA
ATOM     31  H   LIG A   1      -7.371  -0.795 123.743  0.00  0.00    +0.292 HD
ENDBRANCH   3  30
BRANCH  17  32
ATOM     32  C   LIG A   1      -9.112   4.597 130.580  0.00  0.00    +0.313 C 
ATOM     33  O   LIG A   1      -8.980   3.710 129.754  0.00  0.00    -0.250 OA
BRANCH  32  34
ATOM     34  O   LIG A   1     -10.063   5.570 130.521  0.00  0.00    -0.468 OA
ATOM     35  C   LIG A   1     -11.418   5.136 130.375  0.00  0.00    +0.280 C 
ENDBRANCH  32  34
ENDBRANCH  17  32
TORSDOF 3
ENDMDL
MODEL 5
REMARK VINA RESULT:      -8.8      3.168      7.636
REMARK  Name = NuBBE_87
REMARK  10 active torsions:
REMARK  status: ('A' for Active; 'I' for Inactive)
REMARK    1  A    between atoms: C_3  and  O_4
REMARK    2  A    between atoms: C_5  and  C_6
REMARK    3  A    between atoms: C_11  and  C_27
REMARK    4  A    between atoms: C_14  and  C_15
REMARK    5  A    between atoms: C_19  and  C_20
REMARK    6  A    between atoms: C_19  and  C_21
REMARK    7  A    between atoms: C_21  and  O_22
REMARK    8  A    between atoms: O_22  and  C_23
REMARK    9  A    between atoms: C_28  and  C_29
REMARK   10  A    between atoms: C_32  and  C_33
REMARK                            x       y       z     vdW  Elec       q    Type
REMARK                         _______ _______ _______ _____ _____    ______ ____
ROOT
ATOM      1  O   LIG A   1      -4.663   2.999 133.941  0.00  0.00    -0.284 OA
ATOM      2  C   LIG A   1      -5.576   2.359 133.426  0.00  0.00    +0.221 C 
ATOM      3  C   LIG A   1      -6.969   2.876 133.483  0.00  0.00    +0.167 C 
ATOM      4  C   LIG A   1      -7.987   2.164 132.966  0.00  0.00    +0.002 C 
ATOM      5  C   LIG A   1      -9.389   2.720 132.951  0.00  0.00    +0.048 C 
ATOM      6  C   LIG A   1      -7.714   0.844 132.351  0.00  0.00    -0.014 C 
ATOM      7  C   LIG A   1      -8.720   0.064 131.918  0.00  0.00    +0.008 C 
ATOM      8  C   LIG A   1      -8.532  -1.110 131.106  0.00  0.00    +0.001 C 
ATOM      9  C   LIG A   1      -7.317  -1.588 130.776  0.00  0.00    -0.053 C 
ATOM     10  C   LIG A   1      -7.088  -2.570 129.566  0.00  0.00    -0.004 C 
ATOM     11  C   LIG A   1      -8.454  -3.014 128.902  0.00  0.00    +0.012 C 
ATOM     12  C   LIG A   1      -8.321  -3.506 127.463  0.00  0.00    +0.008 C 
ATOM     13  C   LIG A   1      -7.853  -2.379 126.509  0.00  0.00    -0.029 C 
ATOM     14  C   LIG A   1      -7.061  -3.050 125.356  0.00  0.00    +0.011 C 
ATOM     15  C   LIG A   1      -7.094  -1.266 127.310  0.00  0.00    +0.003 C 
ATOM     16  C   LIG A   1      -6.518  -0.204 126.350  0.00  0.00    +0.022 C 
ATOM     17  C   LIG A   1      -7.603   0.444 125.441  0.00  0.00    +0.065 C 
ATOM     18  C   LIG A   1      -6.897   1.083 124.220  0.00  0.00    +0.023 C 
ATOM     19  C   LIG A   1      -8.657  -0.558 124.893  0.00  0.00    +0.018 C 
ATOM     20  C   LIG A   1      -9.073  -1.668 125.867  0.00  0.00    +0.008 C 
ATOM     21  C   LIG A   1      -6.466  -3.885 130.107  0.00  0.00    +0.016 C 
ATOM     22  C   LIG A   1      -6.157  -1.826 128.458  0.00  0.00    -0.020 C 
ATOM     23  C   LIG A   1      -5.065  -2.757 127.870  0.00  0.00    +0.012 C 
ATOM     24  C   LIG A   1      -5.383  -0.631 129.106  0.00  0.00    +0.009 C 
ATOM     25  C   LIG A   1      -4.891  -0.948 130.516  0.00  0.00    +0.016 C 
ATOM     26  C   LIG A   1      -6.072  -1.028 131.519  0.00  0.00    +0.015 C 
ATOM     27  C   LIG A   1      -5.703  -1.971 132.695  0.00  0.00    +0.021 C 
ATOM     28  C   LIG A   1      -6.330   0.360 132.182  0.00  0.00    -0.026 C 
ATOM     29  C   LIG A   1      -5.331   1.086 132.725  0.00  0.00    +0.059 C 
ENDROOT
BRANCH   3  30
ATOM     30  O   LIG A   1      -7.146   4.114 134.075  0.00  0.00    -0.503 OA
ATOM     31  H   LIG A   1      -7.183   3.928 135.038  0.00  0.00    +0.292 HD
ENDBRANCH   3  30
BRANCH  17  32
ATOM     32  C   LIG A   1      -8.370   1.543 126.214  0.00  0.00    +0.313 C 
ATOM     33  O   LIG A   1      -9.453   1.991 125.879  0.00  0.00    -0.250 OA
BRANCH  32  34
ATOM     34  O   LIG A   1      -7.647   1.988 127.279  0.00  0.00    -0.468 OA
ATOM     35  C   LIG A   1      -8.333   2.074 128.530  0.00  0.00    +0.280 C 
ENDBRANCH  32  34
ENDBRANCH  17  32
TORSDOF 3
ENDMDL
MODEL 6
REMARK VINA RESULT:      -8.7      2.673      7.164
REMARK  Name = NuBBE_87
REMARK  10 active torsions:
REMARK  status: ('A' for Active; 'I' for Inactive)
REMARK    1  A    between atoms: C_3  and  O_4
REMARK    2  A    between atoms: C_5  and  C_6
REMARK    3  A    between atoms: C_11  and  C_27
REMARK    4  A    between atoms: C_14  and  C_15
REMARK    5  A    between atoms: C_19  and  C_20
REMARK    6  A    between atoms: C_19  and  C_21
REMARK    7  A    between atoms: C_21  and  O_22
REMARK    8  A    between atoms: O_22  and  C_23
REMARK    9  A    between atoms: C_28  and  C_29
REMARK   10  A    between atoms: C_32  and  C_33
REMARK                            x       y       z     vdW  Elec       q    Type
REMARK                         _______ _______ _______ _____ _____    ______ ____
ROOT
ATOM      1  O   LIG A   1      -6.855   7.154 130.723  0.00  0.00    -0.284 OA
ATOM      2  C   LIG A   1      -7.476   6.107 130.878  0.00  0.00    +0.221 C 
ATOM      3  C   LIG A   1      -8.902   6.021 130.462  0.00  0.00    +0.167 C 
ATOM      4  C   LIG A   1      -9.611   4.897 130.670  0.00  0.00    +0.002 C 
ATOM      5  C   LIG A   1     -11.032   4.778 130.177  0.00  0.00    +0.048 C 
ATOM      6  C   LIG A   1      -8.966   3.742 131.336  0.00  0.00    -0.014 C 
ATOM      7  C   LIG A   1      -9.674   2.642 131.649  0.00  0.00    +0.008 C 
ATOM      8  C   LIG A   1      -9.083   1.402 132.076  0.00  0.00    +0.001 C 
ATOM      9  C   LIG A   1      -7.761   1.253 132.289  0.00  0.00    -0.053 C 
ATOM     10  C   LIG A   1      -7.057  -0.156 132.320  0.00  0.00    -0.004 C 
ATOM     11  C   LIG A   1      -8.103  -1.339 132.215  0.00  0.00    +0.012 C 
ATOM     12  C   LIG A   1      -7.512  -2.655 131.718  0.00  0.00    +0.008 C 
ATOM     13  C   LIG A   1      -7.006  -2.546 130.259  0.00  0.00    -0.029 C 
ATOM     14  C   LIG A   1      -5.835  -3.551 130.100  0.00  0.00    +0.011 C 
ATOM     15  C   LIG A   1      -6.686  -1.053 129.903  0.00  0.00    +0.003 C 
ATOM     16  C   LIG A   1      -6.063  -0.953 128.494  0.00  0.00    +0.022 C 
ATOM     17  C   LIG A   1      -6.962  -1.580 127.388  0.00  0.00    +0.065 C 
ATOM     18  C   LIG A   1      -6.075  -1.884 126.156  0.00  0.00    +0.023 C 
ATOM     19  C   LIG A   1      -7.647  -2.911 127.803  0.00  0.00    +0.018 C 
ATOM     20  C   LIG A   1      -8.113  -2.980 129.263  0.00  0.00    +0.008 C 
ATOM     21  C   LIG A   1      -6.388  -0.343 133.708  0.00  0.00    +0.016 C 
ATOM     22  C   LIG A   1      -6.005  -0.243 131.082  0.00  0.00    -0.020 C 
ATOM     23  C   LIG A   1      -4.655  -0.891 131.487  0.00  0.00    +0.012 C 
ATOM     24  C   LIG A   1      -5.644   1.190 130.568  0.00  0.00    +0.009 C 
ATOM     25  C   LIG A   1      -5.497   2.199 131.704  0.00  0.00    +0.016 C 
ATOM     26  C   LIG A   1      -6.870   2.525 132.347  0.00  0.00    +0.015 C 
ATOM     27  C   LIG A   1      -6.672   2.951 133.826  0.00  0.00    +0.021 C 
ATOM     28  C   LIG A   1      -7.526   3.761 131.656  0.00  0.00    -0.026 C 
ATOM     29  C   LIG A   1      -6.843   4.907 131.454  0.00  0.00    +0.059 C 
ENDROOT
BRANCH   3  30
ATOM     30  O   LIG A   1      -9.435   7.141 129.848  0.00  0.00    -0.503 OA
ATOM     31  H   LIG A   1      -9.326   6.976 128.887  0.00  0.00    +0.292 HD
ENDBRANCH   3  30
BRANCH  17  32
ATOM     32  C   LIG A   1      -8.080  -0.594 126.976  0.00  0.00    +0.313 C 
ATOM     33  O   LIG A   1      -8.263   0.494 127.496  0.00  0.00    -0.250 OA
BRANCH  32  34
ATOM     34  O   LIG A   1      -8.871  -1.127 126.003  0.00  0.00    -0.468 OA
ATOM     35  C   LIG A   1      -9.030  -0.355 124.811  0.00  0.00    +0.280 C 
ENDBRANCH  32  34
ENDBRANCH  17  32
TORSDOF 3
ENDMDL
MODEL 7
REMARK VINA RESULT:      -8.7      2.109      3.688
REMARK  Name = NuBBE_87
REMARK  10 active torsions:
REMARK  status: ('A' for Active; 'I' for Inactive)
REMARK    1  A    between atoms: C_3  and  O_4
REMARK    2  A    between atoms: C_5  and  C_6
REMARK    3  A    between atoms: C_11  and  C_27
REMARK    4  A    between atoms: C_14  and  C_15
REMARK    5  A    between atoms: C_19  and  C_20
REMARK    6  A    between atoms: C_19  and  C_21
REMARK    7  A    between atoms: C_21  and  O_22
REMARK    8  A    between atoms: O_22  and  C_23
REMARK    9  A    between atoms: C_28  and  C_29
REMARK   10  A    between atoms: C_32  and  C_33
REMARK                            x       y       z     vdW  Elec       q    Type
REMARK                         _______ _______ _______ _____ _____    ______ ____
ROOT
ATOM      1  O   LIG A   1     -10.133  -0.629 122.596  0.00  0.00    -0.284 OA
ATOM      2  C   LIG A   1      -9.225  -0.178 123.289  0.00  0.00    +0.221 C 
ATOM      3  C   LIG A   1      -8.748   1.214 123.073  0.00  0.00    +0.167 C 
ATOM      4  C   LIG A   1      -7.722   1.706 123.791  0.00  0.00    +0.002 C 
ATOM      5  C   LIG A   1      -7.287   3.142 123.631  0.00  0.00    +0.048 C 
ATOM      6  C   LIG A   1      -7.054   0.844 124.793  0.00  0.00    -0.014 C 
ATOM      7  C   LIG A   1      -5.963   1.272 125.454  0.00  0.00    +0.008 C 
ATOM      8  C   LIG A   1      -5.402   0.600 126.596  0.00  0.00    +0.001 C 
ATOM      9  C   LIG A   1      -5.868  -0.576 127.059  0.00  0.00    -0.053 C 
ATOM     10  C   LIG A   1      -5.578  -1.093 128.518  0.00  0.00    -0.004 C 
ATOM     11  C   LIG A   1      -4.578  -0.141 129.291  0.00  0.00    +0.012 C 
ATOM     12  C   LIG A   1      -4.653  -0.254 130.811  0.00  0.00    +0.008 C 
ATOM     13  C   LIG A   1      -6.026   0.212 131.357  0.00  0.00    -0.029 C 
ATOM     14  C   LIG A   1      -6.297  -0.582 132.662  0.00  0.00    +0.011 C 
ATOM     15  C   LIG A   1      -7.122   0.102 130.242  0.00  0.00    +0.003 C 
ATOM     16  C   LIG A   1      -8.514   0.446 130.815  0.00  0.00    +0.022 C 
ATOM     17  C   LIG A   1      -8.567   1.856 131.473  0.00  0.00    +0.065 C 
ATOM     18  C   LIG A   1      -9.786   1.902 132.426  0.00  0.00    +0.023 C 
ATOM     19  C   LIG A   1      -7.310   2.215 132.313  0.00  0.00    +0.018 C 
ATOM     20  C   LIG A   1      -5.977   1.714 131.742  0.00  0.00    +0.008 C 
ATOM     21  C   LIG A   1      -4.834  -2.452 128.422  0.00  0.00    +0.016 C 
ATOM     22  C   LIG A   1      -6.985  -1.187 129.331  0.00  0.00    -0.020 C 
ATOM     23  C   LIG A   1      -7.101  -2.478 130.181  0.00  0.00    +0.012 C 
ATOM     24  C   LIG A   1      -8.190  -1.231 128.334  0.00  0.00    +0.009 C 
ATOM     25  C   LIG A   1      -7.897  -2.077 127.097  0.00  0.00    +0.016 C 
ATOM     26  C   LIG A   1      -6.862  -1.381 126.174  0.00  0.00    +0.015 C 
ATOM     27  C   LIG A   1      -6.083  -2.446 125.358  0.00  0.00    +0.021 C 
ATOM     28  C   LIG A   1      -7.579  -0.499 125.105  0.00  0.00    -0.026 C 
ATOM     29  C   LIG A   1      -8.597  -0.975 124.358  0.00  0.00    +0.059 C 
ENDROOT
BRANCH   3  30
ATOM     30  O   LIG A   1      -9.420   1.957 122.118  0.00  0.00    -0.503 OA
ATOM     31  H   LIG A   1      -8.712   2.403 121.605  0.00  0.00    +0.292 HD
ENDBRANCH   3  30
BRANCH  17  32
ATOM     32  C   LIG A   1      -8.728   2.951 130.392  0.00  0.00    +0.313 C 
ATOM     33  O   LIG A   1      -9.154   2.750 129.267  0.00  0.00    -0.250 OA
BRANCH  32  34
ATOM     34  O   LIG A   1      -8.273   4.154 130.841  0.00  0.00    -0.468 OA
ATOM     35  C   LIG A   1      -9.128   5.281 130.636  0.00  0.00    +0.280 C 
ENDBRANCH  32  34
ENDBRANCH  17  32
TORSDOF 3
ENDMDL
MODEL 8
REMARK VINA RESULT:      -8.5      1.877      2.834
REMARK  Name = NuBBE_87
REMARK  10 active torsions:
REMARK  status: ('A' for Active; 'I' for Inactive)
REMARK    1  A    between atoms: C_3  and  O_4
REMARK    2  A    between atoms: C_5  and  C_6
REMARK    3  A    between atoms: C_11  and  C_27
REMARK    4  A    between atoms: C_14  and  C_15
REMARK    5  A    between atoms: C_19  and  C_20
REMARK    6  A    between atoms: C_19  and  C_21
REMARK    7  A    between atoms: C_21  and  O_22
REMARK    8  A    between atoms: O_22  and  C_23
REMARK    9  A    between atoms: C_28  and  C_29
REMARK   10  A    between atoms: C_32  and  C_33
REMARK                            x       y       z     vdW  Elec       q    Type
REMARK                         _______ _______ _______ _____ _____    ______ ____
ROOT
ATOM      1  O   LIG A   1      -9.858  -2.830 125.228  0.00  0.00    -0.284 OA
ATOM      2  C   LIG A   1      -9.019  -1.960 125.445  0.00  0.00    +0.221 C 
ATOM      3  C   LIG A   1      -8.818  -0.863 124.460  0.00  0.00    +0.167 C 
ATOM      4  C   LIG A   1      -7.871   0.072 124.659  0.00  0.00    +0.002 C 
ATOM      5  C   LIG A   1      -7.717   1.230 123.705  0.00  0.00    +0.048 C 
ATOM      6  C   LIG A   1      -7.011  -0.007 125.863  0.00  0.00    -0.014 C 
ATOM      7  C   LIG A   1      -5.990   0.851 126.039  0.00  0.00    +0.008 C 
ATOM      8  C   LIG A   1      -5.264   0.991 127.273  0.00  0.00    +0.001 C 
ATOM      9  C   LIG A   1      -5.484   0.209 128.348  0.00  0.00    -0.053 C 
ATOM     10  C   LIG A   1      -5.038   0.615 129.803  0.00  0.00    -0.004 C 
ATOM     11  C   LIG A   1      -4.198   1.957 129.807  0.00  0.00    +0.012 C 
ATOM     12  C   LIG A   1      -4.184   2.682 131.150  0.00  0.00    +0.008 C 
ATOM     13  C   LIG A   1      -5.594   3.185 131.549  0.00  0.00    -0.029 C 
ATOM     14  C   LIG A   1      -5.655   3.204 133.099  0.00  0.00    +0.011 C 
ATOM     15  C   LIG A   1      -6.699   2.342 130.825  0.00  0.00    +0.003 C 
ATOM     16  C   LIG A   1      -8.104   2.756 131.314  0.00  0.00    +0.022 C 
ATOM     17  C   LIG A   1      -8.388   4.275 131.125  0.00  0.00    +0.065 C 
ATOM     18  C   LIG A   1      -9.551   4.672 132.066  0.00  0.00    +0.023 C 
ATOM     19  C   LIG A   1      -7.183   5.195 131.465  0.00  0.00    +0.018 C 
ATOM     20  C   LIG A   1      -5.807   4.645 131.069  0.00  0.00    +0.008 C 
ATOM     21  C   LIG A   1      -4.060  -0.464 130.340  0.00  0.00    +0.016 C 
ATOM     22  C   LIG A   1      -6.366   0.796 130.726  0.00  0.00    -0.020 C 
ATOM     23  C   LIG A   1      -6.203   0.177 132.138  0.00  0.00    +0.012 C 
ATOM     24  C   LIG A   1      -7.585   0.057 130.082  0.00  0.00    +0.009 C 
ATOM     25  C   LIG A   1      -7.195  -1.279 129.454  0.00  0.00    +0.016 C 
ATOM     26  C   LIG A   1      -6.349  -1.070 128.171  0.00  0.00    +0.015 C 
ATOM     27  C   LIG A   1      -5.423  -2.295 127.944  0.00  0.00    +0.021 C 
ATOM     28  C   LIG A   1      -7.263  -1.018 126.908  0.00  0.00    -0.026 C 
ATOM     29  C   LIG A   1      -8.207  -1.953 126.674  0.00  0.00    +0.059 C 
ENDROOT
BRANCH   3  30
ATOM     30  O   LIG A   1      -9.658  -0.857 123.360  0.00  0.00    -0.503 OA
ATOM     31  H   LIG A   1      -9.112  -1.213 122.627  0.00  0.00    +0.292 HD
ENDBRANCH   3  30
BRANCH  17  32
ATOM     32  C   LIG A   1      -8.797   4.570 129.663  0.00  0.00    +0.313 C 
ATOM     33  O   LIG A   1      -9.046   3.713 128.831  0.00  0.00    -0.250 OA
BRANCH  32  34
ATOM     34  O   LIG A   1      -8.781   5.909 129.410  0.00  0.00    -0.468 OA
ATOM     35  C   LIG A   1     -10.008   6.493 128.966  0.00  0.00    +0.280 C 
ENDBRANCH  32  34
ENDBRANCH  17  32
TORSDOF 3
ENDMDL
MODEL 9
REMARK VINA RESULT:      -8.5      4.009      7.309
REMARK  Name = NuBBE_87
REMARK  10 active torsions:
REMARK  status: ('A' for Active; 'I' for Inactive)
REMARK    1  A    between atoms: C_3  and  O_4
REMARK    2  A    between atoms: C_5  and  C_6
REMARK    3  A    between atoms: C_11  and  C_27
REMARK    4  A    between atoms: C_14  and  C_15
REMARK    5  A    between atoms: C_19  and  C_20
REMARK    6  A    between atoms: C_19  and  C_21
REMARK    7  A    between atoms: C_21  and  O_22
REMARK    8  A    between atoms: O_22  and  C_23
REMARK    9  A    between atoms: C_28  and  C_29
REMARK   10  A    between atoms: C_32  and  C_33
REMARK                            x       y       z     vdW  Elec       q    Type
REMARK                         _______ _______ _______ _____ _____    ______ ____
ROOT
ATOM      1  O   LIG A   1      -9.439   4.589 129.223  0.00  0.00    -0.284 OA
ATOM      2  C   LIG A   1      -8.408   3.963 129.456  0.00  0.00    +0.221 C 
ATOM      3  C   LIG A   1      -7.382   4.539 130.366  0.00  0.00    +0.167 C 
ATOM      4  C   LIG A   1      -6.226   3.888 130.594  0.00  0.00    +0.002 C 
ATOM      5  C   LIG A   1      -5.217   4.429 131.577  0.00  0.00    +0.048 C 
ATOM      6  C   LIG A   1      -5.971   2.596 129.917  0.00  0.00    -0.014 C 
ATOM      7  C   LIG A   1      -4.786   1.972 130.045  0.00  0.00    +0.008 C 
ATOM      8  C   LIG A   1      -4.542   0.619 129.619  0.00  0.00    +0.001 C 
ATOM      9  C   LIG A   1      -5.459  -0.123 128.969  0.00  0.00    -0.053 C 
ATOM     10  C   LIG A   1      -5.384  -1.694 128.892  0.00  0.00    -0.004 C 
ATOM     11  C   LIG A   1      -4.051  -2.252 129.539  0.00  0.00    +0.012 C 
ATOM     12  C   LIG A   1      -4.129  -3.711 129.976  0.00  0.00    +0.008 C 
ATOM     13  C   LIG A   1      -5.151  -3.917 131.122  0.00  0.00    -0.029 C 
ATOM     14  C   LIG A   1      -5.706  -5.360 130.993  0.00  0.00    +0.011 C 
ATOM     15  C   LIG A   1      -6.215  -2.766 131.116  0.00  0.00    +0.003 C 
ATOM     16  C   LIG A   1      -7.306  -3.031 132.176  0.00  0.00    +0.022 C 
ATOM     17  C   LIG A   1      -6.728  -3.211 133.610  0.00  0.00    +0.065 C 
ATOM     18  C   LIG A   1      -7.782  -3.948 134.470  0.00  0.00    +0.023 C 
ATOM     19  C   LIG A   1      -5.418  -4.045 133.669  0.00  0.00    +0.018 C 
ATOM     20  C   LIG A   1      -4.448  -3.823 132.502  0.00  0.00    +0.008 C 
ATOM     21  C   LIG A   1      -5.304  -2.113 127.399  0.00  0.00    +0.016 C 
ATOM     22  C   LIG A   1      -6.671  -2.319 129.666  0.00  0.00    -0.020 C 
ATOM     23  C   LIG A   1      -7.313  -3.506 128.902  0.00  0.00    +0.012 C 
ATOM     24  C   LIG A   1      -7.803  -1.247 129.801  0.00  0.00    +0.009 C 
ATOM     25  C   LIG A   1      -7.935  -0.376 128.554  0.00  0.00    +0.016 C 
ATOM     26  C   LIG A   1      -6.725   0.584 128.408  0.00  0.00    +0.015 C 
ATOM     27  C   LIG A   1      -6.504   0.931 126.912  0.00  0.00    +0.021 C 
ATOM     28  C   LIG A   1      -7.017   1.951 129.100  0.00  0.00    -0.026 C 
ATOM     29  C   LIG A   1      -8.159   2.633 128.873  0.00  0.00    +0.059 C 
ENDROOT
BRANCH   3  30
ATOM     30  O   LIG A   1      -7.690   5.750 130.960  0.00  0.00    -0.503 OA
ATOM     31  H   LIG A   1      -8.636   5.901 130.744  0.00  0.00    +0.292 HD
ENDBRANCH   3  30
BRANCH  17  32
ATOM     32  C   LIG A   1      -6.427  -1.834 134.248  0.00  0.00    +0.313 C 
ATOM     33  O   LIG A   1      -5.657  -1.659 135.177  0.00  0.00    -0.250 OA
BRANCH  32  34
ATOM     34  O   LIG A   1      -7.183  -0.853 133.678  0.00  0.00    -0.468 OA
ATOM     35  C   LIG A   1      -6.495   0.329 133.265  0.00  0.00    +0.280 C 
ENDBRANCH  32  34
ENDBRANCH  17  32
TORSDOF 3
ENDMDL
