MODEL 1
REMARK VINA RESULT:      -8.8      0.000      0.000
REMARK  Name = NuBBE_674
REMARK  15 active torsions:
REMARK  status: ('A' for Active; 'I' for Inactive)
REMARK    1  A    between atoms: C_3  and  C_4
REMARK    2  A    between atoms: C_4  and  C_5
REMARK    3  A    between atoms: C_6  and  O_16
REMARK    4  A    between atoms: C_7  and  C_8
REMARK    5  A    between atoms: C_10  and  C_11
REMARK    6  A    between atoms: C_11  and  C_12
REMARK    7  A    between atoms: C_14  and  O_15
REMARK    8  A    between atoms: C_19  and  C_43
REMARK    9  A    between atoms: C_21  and  O_36
REMARK   10  A    between atoms: C_28  and  C_29
REMARK   11  A    between atoms: C_29  and  O_30
REMARK   12  A    between atoms: O_36  and  C_37
REMARK   13  A    between atoms: C_37  and  C_38
REMARK   14  A    between atoms: C_38  and  C_39
REMARK   15  A    between atoms: C_40  and  C_41
REMARK                            x       y       z     vdW  Elec       q    Type
REMARK                         _______ _______ _______ _____ _____    ______ ____
ROOT
ATOM      1  O   LIG A   1      -8.338   0.371 130.315  0.00  0.00    -0.288 OA
ATOM      2  C   LIG A   1      -8.160   1.248 129.479  0.00  0.00    +0.206 C 
ATOM      3  C   LIG A   1      -7.460   0.997 128.209  0.00  0.00    +0.045 C 
ATOM      4  C   LIG A   1      -7.560   2.209 127.659  0.00  0.00    +0.134 C 
ATOM      5  O   LIG A   1      -8.428   3.109 128.271  0.00  0.00    -0.477 OA
ATOM      6  C   LIG A   1      -8.419   2.738 129.645  0.00  0.00    +0.173 C 
ATOM      7  C   LIG A   1      -7.235   3.423 130.383  0.00  0.00    +0.101 C 
ATOM      8  C   LIG A   1      -6.734   4.846 129.910  0.00  0.00    +0.192 C 
ATOM      9  C   LIG A   1      -5.258   4.842 129.377  0.00  0.00    +0.111 C 
ATOM     10  C   LIG A   1      -4.997   4.503 127.901  0.00  0.00    +0.211 C 
ATOM     11  C   LIG A   1      -5.425   3.116 127.545  0.00  0.00    +0.027 C 
ATOM     12  C   LIG A   1      -6.578   2.919 126.866  0.00  0.00    +0.019 C 
ATOM     13  O   LIG A   1      -3.567   4.616 127.767  0.00  0.00    -0.453 OA
ATOM     14  C   LIG A   1      -3.168   5.646 128.572  0.00  0.00    +0.336 C 
ATOM     15  O   LIG A   1      -2.030   6.099 128.665  0.00  0.00    -0.245 OA
ATOM     16  C   LIG A   1      -4.371   6.052 129.350  0.00  0.00    +0.040 C 
ATOM     17  C   LIG A   1      -4.528   7.328 129.738  0.00  0.00    +0.020 C 
ATOM     18  C   LIG A   1      -9.787   3.030 130.234  0.00  0.00    +0.064 C 
ENDROOT
BRANCH   3  19
ATOM     19  C   LIG A   1      -6.559  -0.165 128.011  0.00  0.00    +0.085 C 
BRANCH  19  20
ATOM     20  C   LIG A   1      -7.283  -1.334 127.382  0.00  0.00    +0.041 A 
ATOM     21  C   LIG A   1      -7.932  -2.309 128.157  0.00  0.00    +0.127 A 
ATOM     22  C   LIG A   1      -8.661  -3.346 127.563  0.00  0.00    -0.008 A 
ATOM     23  C   LIG A   1      -9.390  -4.383 128.374  0.00  0.00    +0.048 C 
ATOM     24  C   LIG A   1      -8.732  -3.415 126.162  0.00  0.00    +0.021 A 
ATOM     25  C   LIG A   1      -8.075  -2.475 125.360  0.00  0.00    +0.059 A 
ATOM     26  C   LIG A   1      -7.361  -1.435 125.981  0.00  0.00    +0.134 A 
BRANCH  25  27
ATOM     27  C   LIG A   1      -8.133  -2.553 123.868  0.00  0.00    +0.164 C 
ATOM     28  C   LIG A   1      -9.391  -3.018 123.184  0.00  0.00    +0.091 C 
ATOM     29  O   LIG A   1      -7.147  -2.205 123.215  0.00  0.00    -0.292 OA
ENDBRANCH  25  27
BRANCH  26  30
ATOM     30  O   LIG A   1      -6.712  -0.465 125.253  0.00  0.00    -0.506 OA
ATOM     31  H   LIG A   1      -7.374  -0.017 124.677  0.00  0.00    +0.292 HD
ENDBRANCH  26  30
BRANCH  21  32
ATOM     32  O   LIG A   1      -7.863  -2.286 129.524  0.00  0.00    -0.506 OA
ATOM     33  H   LIG A   1      -7.825  -3.205 129.863  0.00  0.00    +0.292 HD
ENDBRANCH  21  32
ENDBRANCH  19  20
ENDBRANCH   3  19
BRANCH  12  34
ATOM     34  C   LIG A   1      -7.113   3.852 125.797  0.00  0.00    +0.194 C 
BRANCH  34  35
ATOM     35  O   LIG A   1      -8.500   3.631 125.569  0.00  0.00    -0.390 OA
ATOM     36  H   LIG A   1      -8.987   4.184 126.204  0.00  0.00    +0.210 HD
ENDBRANCH  34  35
ENDBRANCH  12  34
BRANCH   8  37
ATOM     37  O   LIG A   1      -6.702   5.581 131.169  0.00  0.00    -0.457 OA
BRANCH  37  38
ATOM     38  C   LIG A   1      -7.695   6.475 131.383  0.00  0.00    +0.335 C 
ATOM     39  O   LIG A   1      -7.955   7.423 130.658  0.00  0.00    -0.245 OA
BRANCH  38  40
ATOM     40  C   LIG A   1      -8.588   6.030 132.499  0.00  0.00    +0.029 C 
ATOM     41  C   LIG A   1      -7.828   5.618 133.733  0.00  0.00    +0.051 C 
ATOM     42  C   LIG A   1      -9.937   6.050 132.490  0.00  0.00    -0.020 C 
ATOM     43  C   LIG A   1     -10.847   6.416 131.360  0.00  0.00    +0.035 C 
ENDBRANCH  38  40
ENDBRANCH  37  38
ENDBRANCH   8  37
TORSDOF 10
ENDMDL
MODEL 2
REMARK VINA RESULT:      -8.6      2.538      8.523
REMARK  Name = NuBBE_674
REMARK  15 active torsions:
REMARK  status: ('A' for Active; 'I' for Inactive)
REMARK    1  A    between atoms: C_3  and  C_4
REMARK    2  A    between atoms: C_4  and  C_5
REMARK    3  A    between atoms: C_6  and  O_16
REMARK    4  A    between atoms: C_7  and  C_8
REMARK    5  A    between atoms: C_10  and  C_11
REMARK    6  A    between atoms: C_11  and  C_12
REMARK    7  A    between atoms: C_14  and  O_15
REMARK    8  A    between atoms: C_19  and  C_43
REMARK    9  A    between atoms: C_21  and  O_36
REMARK   10  A    between atoms: C_28  and  C_29
REMARK   11  A    between atoms: C_29  and  O_30
REMARK   12  A    between atoms: O_36  and  C_37
REMARK   13  A    between atoms: C_37  and  C_38
REMARK   14  A    between atoms: C_38  and  C_39
REMARK   15  A    between atoms: C_40  and  C_41
REMARK                            x       y       z     vdW  Elec       q    Type
REMARK                         _______ _______ _______ _____ _____    ______ ____
ROOT
ATOM      1  O   LIG A   1      -7.590   3.552 126.350  0.00  0.00    -0.288 OA
ATOM      2  C   LIG A   1      -7.804   2.676 127.180  0.00  0.00    +0.206 C 
ATOM      3  C   LIG A   1      -7.788   2.940 128.628  0.00  0.00    +0.045 C 
ATOM      4  C   LIG A   1      -8.104   1.724 129.077  0.00  0.00    +0.134 C 
ATOM      5  O   LIG A   1      -8.562   0.805 128.138  0.00  0.00    -0.477 OA
ATOM      6  C   LIG A   1      -7.918   1.181 126.925  0.00  0.00    +0.173 C 
ATOM      7  C   LIG A   1      -6.510   0.529 126.835  0.00  0.00    +0.101 C 
ATOM      8  C   LIG A   1      -6.256  -0.883 127.500  0.00  0.00    +0.192 C 
ATOM      9  C   LIG A   1      -5.202  -0.842 128.663  0.00  0.00    +0.111 C 
ATOM     10  C   LIG A   1      -5.672  -0.502 130.086  0.00  0.00    +0.211 C 
ATOM     11  C   LIG A   1      -6.251   0.872 130.187  0.00  0.00    +0.027 C 
ATOM     12  C   LIG A   1      -7.592   1.037 130.245  0.00  0.00    +0.019 C 
ATOM     13  O   LIG A   1      -4.469  -0.579 130.875  0.00  0.00    -0.453 OA
ATOM     14  C   LIG A   1      -3.715  -1.596 130.360  0.00  0.00    +0.336 C 
ATOM     15  O   LIG A   1      -2.655  -2.018 130.816  0.00  0.00    -0.245 OA
ATOM     16  C   LIG A   1      -4.402  -2.030 129.113  0.00  0.00    +0.040 C 
ATOM     17  C   LIG A   1      -4.328  -3.308 128.708  0.00  0.00    +0.020 C 
ATOM     18  C   LIG A   1      -8.843   0.856 125.766  0.00  0.00    +0.064 C 
ENDROOT
BRANCH   3  19
ATOM     19  C   LIG A   1      -7.113   4.125 129.215  0.00  0.00    +0.085 C 
BRANCH  19  20
ATOM     20  C   LIG A   1      -7.980   4.808 130.247  0.00  0.00    +0.041 A 
ATOM     21  C   LIG A   1      -7.724   4.696 131.624  0.00  0.00    +0.127 A 
ATOM     22  C   LIG A   1      -8.491   5.391 132.567  0.00  0.00    -0.008 A 
ATOM     23  C   LIG A   1      -8.215   5.311 134.043  0.00  0.00    +0.048 C 
ATOM     24  C   LIG A   1      -9.545   6.207 132.123  0.00  0.00    +0.021 A 
ATOM     25  C   LIG A   1      -9.844   6.319 130.760  0.00  0.00    +0.059 A 
ATOM     26  C   LIG A   1      -9.050   5.622 129.832  0.00  0.00    +0.134 A 
BRANCH  25  27
ATOM     27  C   LIG A   1     -10.975   7.172 130.282  0.00  0.00    +0.164 C 
ATOM     28  C   LIG A   1     -12.332   7.055 130.923  0.00  0.00    +0.091 C 
ATOM     29  O   LIG A   1     -10.767   7.986 129.380  0.00  0.00    -0.292 OA
ENDBRANCH  25  27
BRANCH  26  30
ATOM     30  O   LIG A   1      -9.275   5.707 128.477  0.00  0.00    -0.506 OA
ATOM     31  H   LIG A   1      -9.379   4.792 128.125  0.00  0.00    +0.292 HD
ENDBRANCH  26  30
BRANCH  21  32
ATOM     32  O   LIG A   1      -6.721   3.891 132.092  0.00  0.00    -0.506 OA
ATOM     33  H   LIG A   1      -6.379   3.337 131.358  0.00  0.00    +0.292 HD
ENDBRANCH  21  32
ENDBRANCH  19  20
ENDBRANCH   3  19
BRANCH  12  34
ATOM     34  C   LIG A   1      -8.542   0.087 130.946  0.00  0.00    +0.194 C 
BRANCH  34  35
ATOM     35  O   LIG A   1      -9.423   0.789 131.817  0.00  0.00    -0.390 OA
ATOM     36  H   LIG A   1     -10.102   1.208 131.260  0.00  0.00    +0.210 HD
ENDBRANCH  34  35
ENDBRANCH  12  34
BRANCH   8  37
ATOM     37  O   LIG A   1      -5.619  -1.612 126.409  0.00  0.00    -0.457 OA
BRANCH  37  38
ATOM     38  C   LIG A   1      -6.427  -2.342 125.606  0.00  0.00    +0.335 C 
ATOM     39  O   LIG A   1      -7.464  -2.884 125.958  0.00  0.00    -0.245 OA
BRANCH  38  40
ATOM     40  C   LIG A   1      -6.014  -2.217 124.172  0.00  0.00    +0.029 C 
ATOM     41  C   LIG A   1      -6.592  -1.001 123.497  0.00  0.00    +0.051 C 
ATOM     42  C   LIG A   1      -5.155  -3.030 123.522  0.00  0.00    -0.020 C 
ATOM     43  C   LIG A   1      -4.501  -4.277 124.028  0.00  0.00    +0.035 C 
ENDBRANCH  38  40
ENDBRANCH  37  38
ENDBRANCH   8  37
TORSDOF 10
ENDMDL
MODEL 3
REMARK VINA RESULT:      -8.4      2.581      5.657
REMARK  Name = NuBBE_674
REMARK  15 active torsions:
REMARK  status: ('A' for Active; 'I' for Inactive)
REMARK    1  A    between atoms: C_3  and  C_4
REMARK    2  A    between atoms: C_4  and  C_5
REMARK    3  A    between atoms: C_6  and  O_16
REMARK    4  A    between atoms: C_7  and  C_8
REMARK    5  A    between atoms: C_10  and  C_11
REMARK    6  A    between atoms: C_11  and  C_12
REMARK    7  A    between atoms: C_14  and  O_15
REMARK    8  A    between atoms: C_19  and  C_43
REMARK    9  A    between atoms: C_21  and  O_36
REMARK   10  A    between atoms: C_28  and  C_29
REMARK   11  A    between atoms: C_29  and  O_30
REMARK   12  A    between atoms: O_36  and  C_37
REMARK   13  A    between atoms: C_37  and  C_38
REMARK   14  A    between atoms: C_38  and  C_39
REMARK   15  A    between atoms: C_40  and  C_41
REMARK                            x       y       z     vdW  Elec       q    Type
REMARK                         _______ _______ _______ _____ _____    ______ ____
ROOT
ATOM      1  O   LIG A   1      -4.797   5.067 126.512  0.00  0.00    -0.288 OA
ATOM      2  C   LIG A   1      -5.410   4.370 127.311  0.00  0.00    +0.206 C 
ATOM      3  C   LIG A   1      -6.751   3.835 127.025  0.00  0.00    +0.045 C 
ATOM      4  C   LIG A   1      -6.955   3.140 128.145  0.00  0.00    +0.134 C 
ATOM      5  O   LIG A   1      -5.855   2.948 128.976  0.00  0.00    -0.477 OA
ATOM      6  C   LIG A   1      -5.037   4.093 128.759  0.00  0.00    +0.173 C 
ATOM      7  C   LIG A   1      -5.490   5.263 129.677  0.00  0.00    +0.101 C 
ATOM      8  C   LIG A   1      -6.111   4.950 131.096  0.00  0.00    +0.192 C 
ATOM      9  C   LIG A   1      -7.604   5.416 131.240  0.00  0.00    +0.111 C 
ATOM     10  C   LIG A   1      -8.729   4.473 130.784  0.00  0.00    +0.211 C 
ATOM     11  C   LIG A   1      -8.670   4.173 129.321  0.00  0.00    +0.027 C 
ATOM     12  C   LIG A   1      -8.184   2.985 128.894  0.00  0.00    +0.019 C 
ATOM     13  O   LIG A   1      -9.934   5.204 131.080  0.00  0.00    -0.453 OA
ATOM     14  C   LIG A   1      -9.710   5.899 132.235  0.00  0.00    +0.336 C 
ATOM     15  O   LIG A   1     -10.532   6.575 132.848  0.00  0.00    -0.245 OA
ATOM     16  C   LIG A   1      -8.267   5.720 132.551  0.00  0.00    +0.040 C 
ATOM     17  C   LIG A   1      -7.848   5.714 133.828  0.00  0.00    +0.020 C 
ATOM     18  C   LIG A   1      -3.584   3.687 128.921  0.00  0.00    +0.064 C 
ENDROOT
BRANCH   3  19
ATOM     19  C   LIG A   1      -7.636   4.416 125.983  0.00  0.00    +0.085 C 
BRANCH  19  20
ATOM     20  C   LIG A   1      -7.587   3.619 124.700  0.00  0.00    +0.041 A 
ATOM     21  C   LIG A   1      -6.676   3.917 123.674  0.00  0.00    +0.127 A 
ATOM     22  C   LIG A   1      -6.591   3.127 122.522  0.00  0.00    -0.008 A 
ATOM     23  C   LIG A   1      -5.602   3.410 121.424  0.00  0.00    +0.048 C 
ATOM     24  C   LIG A   1      -7.446   2.020 122.388  0.00  0.00    +0.021 A 
ATOM     25  C   LIG A   1      -8.384   1.710 123.379  0.00  0.00    +0.059 A 
ATOM     26  C   LIG A   1      -8.439   2.511 124.534  0.00  0.00    +0.134 A 
BRANCH  25  27
ATOM     27  C   LIG A   1      -9.308   0.544 123.236  0.00  0.00    +0.164 C 
ATOM     28  C   LIG A   1      -8.754  -0.854 123.171  0.00  0.00    +0.091 C 
ATOM     29  O   LIG A   1     -10.523   0.747 123.200  0.00  0.00    -0.292 OA
ENDBRANCH  25  27
BRANCH  26  30
ATOM     30  O   LIG A   1      -9.321   2.249 125.557  0.00  0.00    -0.506 OA
ATOM     31  H   LIG A   1      -8.847   2.373 126.412  0.00  0.00    +0.292 HD
ENDBRANCH  26  30
BRANCH  21  32
ATOM     32  O   LIG A   1      -5.846   5.002 123.761  0.00  0.00    -0.506 OA
ATOM     33  H   LIG A   1      -5.656   5.338 122.859  0.00  0.00    +0.292 HD
ENDBRANCH  21  32
ENDBRANCH  19  20
ENDBRANCH   3  19
BRANCH  12  34
ATOM     34  C   LIG A   1      -8.374   1.670 129.625  0.00  0.00    +0.194 C 
BRANCH  34  35
ATOM     35  O   LIG A   1      -7.757   0.597 128.921  0.00  0.00    -0.390 OA
ATOM     36  H   LIG A   1      -8.347   0.362 128.184  0.00  0.00    +0.210 HD
ENDBRANCH  34  35
ENDBRANCH  12  34
BRANCH   8  37
ATOM     37  O   LIG A   1      -5.334   5.831 131.959  0.00  0.00    -0.457 OA
BRANCH  37  38
ATOM     38  C   LIG A   1      -4.251   5.295 132.567  0.00  0.00    +0.335 C 
ATOM     39  O   LIG A   1      -3.994   4.102 132.621  0.00  0.00    -0.245 OA
BRANCH  38  40
ATOM     40  C   LIG A   1      -3.279   6.360 132.972  0.00  0.00    +0.029 C 
ATOM     41  C   LIG A   1      -3.494   6.849 134.380  0.00  0.00    +0.051 C 
ATOM     42  C   LIG A   1      -2.249   6.815 132.229  0.00  0.00    -0.020 C 
ATOM     43  C   LIG A   1      -1.895   6.453 130.821  0.00  0.00    +0.035 C 
ENDBRANCH  38  40
ENDBRANCH  37  38
ENDBRANCH   8  37
TORSDOF 10
ENDMDL
MODEL 4
REMARK VINA RESULT:      -8.3      2.504      9.037
REMARK  Name = NuBBE_674
REMARK  15 active torsions:
REMARK  status: ('A' for Active; 'I' for Inactive)
REMARK    1  A    between atoms: C_3  and  C_4
REMARK    2  A    between atoms: C_4  and  C_5
REMARK    3  A    between atoms: C_6  and  O_16
REMARK    4  A    between atoms: C_7  and  C_8
REMARK    5  A    between atoms: C_10  and  C_11
REMARK    6  A    between atoms: C_11  and  C_12
REMARK    7  A    between atoms: C_14  and  O_15
REMARK    8  A    between atoms: C_19  and  C_43
REMARK    9  A    between atoms: C_21  and  O_36
REMARK   10  A    between atoms: C_28  and  C_29
REMARK   11  A    between atoms: C_29  and  O_30
REMARK   12  A    between atoms: O_36  and  C_37
REMARK   13  A    between atoms: C_37  and  C_38
REMARK   14  A    between atoms: C_38  and  C_39
REMARK   15  A    between atoms: C_40  and  C_41
REMARK                            x       y       z     vdW  Elec       q    Type
REMARK                         _______ _______ _______ _____ _____    ______ ____
ROOT
ATOM      1  O   LIG A   1      -4.535   2.488 125.919  0.00  0.00    -0.288 OA
ATOM      2  C   LIG A   1      -5.357   2.188 126.778  0.00  0.00    +0.206 C 
ATOM      3  C   LIG A   1      -5.068   2.294 128.217  0.00  0.00    +0.045 C 
ATOM      4  C   LIG A   1      -6.246   1.905 128.707  0.00  0.00    +0.134 C 
ATOM      5  O   LIG A   1      -7.304   1.815 127.808  0.00  0.00    -0.477 OA
ATOM      6  C   LIG A   1      -6.691   1.490 126.564  0.00  0.00    +0.173 C 
ATOM      7  C   LIG A   1      -6.494  -0.047 126.443  0.00  0.00    +0.101 C 
ATOM      8  C   LIG A   1      -7.524  -1.026 127.134  0.00  0.00    +0.192 C 
ATOM      9  C   LIG A   1      -6.883  -1.912 128.260  0.00  0.00    +0.111 C 
ATOM     10  C   LIG A   1      -6.790  -1.355 129.689  0.00  0.00    +0.211 C 
ATOM     11  C   LIG A   1      -5.934  -0.133 129.775  0.00  0.00    +0.027 C 
ATOM     12  C   LIG A   1      -6.508   1.088 129.874  0.00  0.00    +0.019 C 
ATOM     13  O   LIG A   1      -6.183  -2.425 130.439  0.00  0.00    -0.453 OA
ATOM     14  C   LIG A   1      -6.659  -3.598 129.925  0.00  0.00    +0.336 C 
ATOM     15  O   LIG A   1      -6.433  -4.726 130.356  0.00  0.00    -0.245 OA
ATOM     16  C   LIG A   1      -7.441  -3.230 128.713  0.00  0.00    +0.040 C 
ATOM     17  C   LIG A   1      -8.498  -3.970 128.338  0.00  0.00    +0.020 C 
ATOM     18  C   LIG A   1      -7.504   2.115 125.445  0.00  0.00    +0.064 C 
ENDROOT
BRANCH   3  19
ATOM     19  C   LIG A   1      -3.684   2.348 128.751  0.00  0.00    +0.085 C 
BRANCH  19  20
ATOM     20  C   LIG A   1      -3.350   3.716 129.300  0.00  0.00    +0.041 A 
ATOM     21  C   LIG A   1      -2.923   4.766 128.470  0.00  0.00    +0.127 A 
ATOM     22  C   LIG A   1      -2.687   6.048 128.980  0.00  0.00    -0.008 A 
ATOM     23  C   LIG A   1      -2.260   7.195 128.104  0.00  0.00    +0.048 C 
ATOM     24  C   LIG A   1      -2.869   6.282 130.353  0.00  0.00    +0.021 A 
ATOM     25  C   LIG A   1      -3.268   5.252 131.212  0.00  0.00    +0.059 A 
ATOM     26  C   LIG A   1      -3.513   3.976 130.673  0.00  0.00    +0.134 A 
BRANCH  25  27
ATOM     27  C   LIG A   1      -3.448   5.490 132.677  0.00  0.00    +0.164 C 
ATOM     28  C   LIG A   1      -4.552   6.388 133.166  0.00  0.00    +0.091 C 
ATOM     29  O   LIG A   1      -2.697   4.918 133.470  0.00  0.00    -0.292 OA
ENDBRANCH  25  27
BRANCH  26  30
ATOM     30  O   LIG A   1      -3.928   2.925 131.458  0.00  0.00    -0.506 OA
ATOM     31  H   LIG A   1      -3.660   3.110 132.388  0.00  0.00    +0.292 HD
ENDBRANCH  26  30
BRANCH  21  32
ATOM     32  O   LIG A   1      -2.712   4.567 127.133  0.00  0.00    -0.506 OA
ATOM     33  H   LIG A   1      -1.749   4.602 126.947  0.00  0.00    +0.292 HD
ENDBRANCH  21  32
ENDBRANCH  19  20
ENDBRANCH   3  19
BRANCH  12  34
ATOM     34  C   LIG A   1      -7.790   1.373 130.630  0.00  0.00    +0.194 C 
BRANCH  34  35
ATOM     35  O   LIG A   1      -8.264   2.688 130.362  0.00  0.00    -0.390 OA
ATOM     36  H   LIG A   1      -8.084   2.872 129.424  0.00  0.00    +0.210 HD
ENDBRANCH  34  35
ENDBRANCH  12  34
BRANCH   8  37
ATOM     37  O   LIG A   1      -7.843  -1.938 126.042  0.00  0.00    -0.457 OA
BRANCH  37  38
ATOM     38  C   LIG A   1      -8.846  -1.571 125.211  0.00  0.00    +0.335 C 
ATOM     39  O   LIG A   1      -9.688  -0.721 125.457  0.00  0.00    -0.245 OA
BRANCH  38  40
ATOM     40  C   LIG A   1      -8.666  -2.175 123.852  0.00  0.00    +0.029 C 
ATOM     41  C   LIG A   1      -9.597  -3.329 123.592  0.00  0.00    +0.051 C 
ATOM     42  C   LIG A   1      -7.833  -1.725 122.891  0.00  0.00    -0.020 C 
ATOM     43  C   LIG A   1      -6.840  -0.609 122.978  0.00  0.00    +0.035 C 
ENDBRANCH  38  40
ENDBRANCH  37  38
ENDBRANCH   8  37
TORSDOF 10
ENDMDL
MODEL 5
REMARK VINA RESULT:      -8.3      2.494      8.357
REMARK  Name = NuBBE_674
REMARK  15 active torsions:
REMARK  status: ('A' for Active; 'I' for Inactive)
REMARK    1  A    between atoms: C_3  and  C_4
REMARK    2  A    between atoms: C_4  and  C_5
REMARK    3  A    between atoms: C_6  and  O_16
REMARK    4  A    between atoms: C_7  and  C_8
REMARK    5  A    between atoms: C_10  and  C_11
REMARK    6  A    between atoms: C_11  and  C_12
REMARK    7  A    between atoms: C_14  and  O_15
REMARK    8  A    between atoms: C_19  and  C_43
REMARK    9  A    between atoms: C_21  and  O_36
REMARK   10  A    between atoms: C_28  and  C_29
REMARK   11  A    between atoms: C_29  and  O_30
REMARK   12  A    between atoms: O_36  and  C_37
REMARK   13  A    between atoms: C_37  and  C_38
REMARK   14  A    between atoms: C_38  and  C_39
REMARK   15  A    between atoms: C_40  and  C_41
REMARK                            x       y       z     vdW  Elec       q    Type
REMARK                         _______ _______ _______ _____ _____    ______ ____
ROOT
ATOM      1  O   LIG A   1      -7.451   0.340 131.041  0.00  0.00    -0.288 OA
ATOM      2  C   LIG A   1      -6.807   0.447 130.005  0.00  0.00    +0.206 C 
ATOM      3  C   LIG A   1      -6.098   1.684 129.641  0.00  0.00    +0.045 C 
ATOM      4  C   LIG A   1      -5.543   1.291 128.493  0.00  0.00    +0.134 C 
ATOM      5  O   LIG A   1      -5.584  -0.071 128.207  0.00  0.00    -0.477 OA
ATOM      6  C   LIG A   1      -6.771  -0.535 128.844  0.00  0.00    +0.173 C 
ATOM      7  C   LIG A   1      -7.999  -0.331 127.913  0.00  0.00    +0.101 C 
ATOM      8  C   LIG A   1      -7.817  -0.417 126.345  0.00  0.00    +0.192 C 
ATOM      9  C   LIG A   1      -8.135   0.932 125.607  0.00  0.00    +0.111 C 
ATOM     10  C   LIG A   1      -7.024   1.983 125.457  0.00  0.00    +0.211 C 
ATOM     11  C   LIG A   1      -6.536   2.495 126.774  0.00  0.00    +0.027 C 
ATOM     12  C   LIG A   1      -5.360   2.054 127.276  0.00  0.00    +0.019 C 
ATOM     13  O   LIG A   1      -7.654   3.052 124.726  0.00  0.00    -0.453 OA
ATOM     14  C   LIG A   1      -8.519   2.476 123.838  0.00  0.00    +0.336 C 
ATOM     15  O   LIG A   1      -9.180   3.061 122.984  0.00  0.00    -0.245 OA
ATOM     16  C   LIG A   1      -8.541   1.024 124.165  0.00  0.00    +0.040 C 
ATOM     17  C   LIG A   1      -8.753   0.116 123.199  0.00  0.00    +0.020 C 
ATOM     18  C   LIG A   1      -6.549  -1.966 129.297  0.00  0.00    +0.064 C 
ENDROOT
BRANCH   3  19
ATOM     19  C   LIG A   1      -6.434   3.002 130.238  0.00  0.00    +0.085 C 
BRANCH  19  20
ATOM     20  C   LIG A   1      -5.194   3.816 130.528  0.00  0.00    +0.041 A 
ATOM     21  C   LIG A   1      -4.307   3.476 131.562  0.00  0.00    +0.127 A 
ATOM     22  C   LIG A   1      -3.125   4.195 131.775  0.00  0.00    -0.008 A 
ATOM     23  C   LIG A   1      -2.145   3.830 132.856  0.00  0.00    +0.048 C 
ATOM     24  C   LIG A   1      -2.830   5.287 130.940  0.00  0.00    +0.021 A 
ATOM     25  C   LIG A   1      -3.704   5.668 129.917  0.00  0.00    +0.059 A 
ATOM     26  C   LIG A   1      -4.878   4.921 129.715  0.00  0.00    +0.134 A 
BRANCH  25  27
ATOM     27  C   LIG A   1      -3.405   6.838 129.036  0.00  0.00    +0.164 C 
ATOM     28  C   LIG A   1      -2.171   6.838 128.174  0.00  0.00    +0.091 C 
ATOM     29  O   LIG A   1      -4.196   7.783 129.011  0.00  0.00    -0.292 OA
ENDBRANCH  25  27
BRANCH  26  30
ATOM     30  O   LIG A   1      -5.771   5.227 128.713  0.00  0.00    -0.506 OA
ATOM     31  H   LIG A   1      -5.258   5.425 127.895  0.00  0.00    +0.292 HD
ENDBRANCH  26  30
BRANCH  21  32
ATOM     32  O   LIG A   1      -4.575   2.435 132.409  0.00  0.00    -0.506 OA
ATOM     33  H   LIG A   1      -5.123   2.757 133.157  0.00  0.00    +0.292 HD
ENDBRANCH  21  32
ENDBRANCH  19  20
ENDBRANCH   3  19
BRANCH  12  34
ATOM     34  C   LIG A   1      -4.144   1.715 126.437  0.00  0.00    +0.194 C 
BRANCH  34  35
ATOM     35  O   LIG A   1      -3.005   2.459 126.858  0.00  0.00    -0.390 OA
ATOM     36  H   LIG A   1      -2.258   1.837 126.905  0.00  0.00    +0.210 HD
ENDBRANCH  34  35
ENDBRANCH  12  34
BRANCH   8  37
ATOM     37  O   LIG A   1      -8.885  -1.336 125.974  0.00  0.00    -0.457 OA
BRANCH  37  38
ATOM     38  C   LIG A   1      -8.580  -2.654 125.951  0.00  0.00    +0.335 C 
ATOM     39  O   LIG A   1      -8.740  -3.429 126.882  0.00  0.00    -0.245 OA
BRANCH  38  40
ATOM     40  C   LIG A   1      -8.232  -3.101 124.565  0.00  0.00    +0.029 C 
ATOM     41  C   LIG A   1      -9.443  -3.416 123.726  0.00  0.00    +0.051 C 
ATOM     42  C   LIG A   1      -6.990  -3.158 124.040  0.00  0.00    -0.020 C 
ATOM     43  C   LIG A   1      -5.685  -2.894 124.723  0.00  0.00    +0.035 C 
ENDBRANCH  38  40
ENDBRANCH  37  38
ENDBRANCH   8  37
TORSDOF 10
ENDMDL
MODEL 6
REMARK VINA RESULT:      -8.2      2.836      5.709
REMARK  Name = NuBBE_674
REMARK  15 active torsions:
REMARK  status: ('A' for Active; 'I' for Inactive)
REMARK    1  A    between atoms: C_3  and  C_4
REMARK    2  A    between atoms: C_4  and  C_5
REMARK    3  A    between atoms: C_6  and  O_16
REMARK    4  A    between atoms: C_7  and  C_8
REMARK    5  A    between atoms: C_10  and  C_11
REMARK    6  A    between atoms: C_11  and  C_12
REMARK    7  A    between atoms: C_14  and  O_15
REMARK    8  A    between atoms: C_19  and  C_43
REMARK    9  A    between atoms: C_21  and  O_36
REMARK   10  A    between atoms: C_28  and  C_29
REMARK   11  A    between atoms: C_29  and  O_30
REMARK   12  A    between atoms: O_36  and  C_37
REMARK   13  A    between atoms: C_37  and  C_38
REMARK   14  A    between atoms: C_38  and  C_39
REMARK   15  A    between atoms: C_40  and  C_41
REMARK                            x       y       z     vdW  Elec       q    Type
REMARK                         _______ _______ _______ _____ _____    ______ ____
ROOT
ATOM      1  O   LIG A   1      -4.880   5.161 126.802  0.00  0.00    -0.288 OA
ATOM      2  C   LIG A   1      -5.511   4.460 127.584  0.00  0.00    +0.206 C 
ATOM      3  C   LIG A   1      -6.837   3.912 127.258  0.00  0.00    +0.045 C 
ATOM      4  C   LIG A   1      -7.070   3.218 128.374  0.00  0.00    +0.134 C 
ATOM      5  O   LIG A   1      -5.995   3.039 129.240  0.00  0.00    -0.477 OA
ATOM      6  C   LIG A   1      -5.181   4.191 129.045  0.00  0.00    +0.173 C 
ATOM      7  C   LIG A   1      -5.673   5.359 129.943  0.00  0.00    +0.101 C 
ATOM      8  C   LIG A   1      -6.336   5.046 131.344  0.00  0.00    +0.192 C 
ATOM      9  C   LIG A   1      -7.836   5.498 131.439  0.00  0.00    +0.111 C 
ATOM     10  C   LIG A   1      -8.937   4.543 130.952  0.00  0.00    +0.211 C 
ATOM     11  C   LIG A   1      -8.830   4.239 129.493  0.00  0.00    +0.027 C 
ATOM     12  C   LIG A   1      -8.321   3.054 129.085  0.00  0.00    +0.019 C 
ATOM     13  O   LIG A   1     -10.158   5.264 131.208  0.00  0.00    -0.453 OA
ATOM     14  C   LIG A   1      -9.976   5.964 132.367  0.00  0.00    +0.336 C 
ATOM     15  O   LIG A   1     -10.824   6.635 132.952  0.00  0.00    -0.245 OA
ATOM     16  C   LIG A   1      -8.542   5.800 132.729  0.00  0.00    +0.040 C 
ATOM     17  C   LIG A   1      -8.164   5.802 134.017  0.00  0.00    +0.020 C 
ATOM     18  C   LIG A   1      -3.730   3.799 129.252  0.00  0.00    +0.064 C 
ENDROOT
BRANCH   3  19
ATOM     19  C   LIG A   1      -7.695   4.481 126.188  0.00  0.00    +0.085 C 
BRANCH  19  20
ATOM     20  C   LIG A   1      -7.596   3.682 124.909  0.00  0.00    +0.041 A 
ATOM     21  C   LIG A   1      -8.364   2.526 124.695  0.00  0.00    +0.127 A 
ATOM     22  C   LIG A   1      -8.318   1.835 123.478  0.00  0.00    -0.008 A 
ATOM     23  C   LIG A   1      -9.155   0.613 123.215  0.00  0.00    +0.048 C 
ATOM     24  C   LIG A   1      -7.476   2.305 122.457  0.00  0.00    +0.021 A 
ATOM     25  C   LIG A   1      -6.677   3.439 122.647  0.00  0.00    +0.059 A 
ATOM     26  C   LIG A   1      -6.753   4.123 123.873  0.00  0.00    +0.134 A 
BRANCH  25  27
ATOM     27  C   LIG A   1      -5.766   3.935 121.570  0.00  0.00    +0.164 C 
ATOM     28  C   LIG A   1      -6.249   4.009 120.147  0.00  0.00    +0.091 C 
ATOM     29  O   LIG A   1      -4.630   4.305 121.875  0.00  0.00    -0.292 OA
ENDBRANCH  25  27
BRANCH  26  30
ATOM     30  O   LIG A   1      -6.012   5.257 124.118  0.00  0.00    -0.506 OA
ATOM     31  H   LIG A   1      -5.120   4.980 124.430  0.00  0.00    +0.292 HD
ENDBRANCH  26  30
BRANCH  21  32
ATOM     32  O   LIG A   1      -9.177   2.026 125.676  0.00  0.00    -0.506 OA
ATOM     33  H   LIG A   1      -8.797   1.189 126.018  0.00  0.00    +0.292 HD
ENDBRANCH  21  32
ENDBRANCH  19  20
ENDBRANCH   3  19
BRANCH  12  34
ATOM     34  C   LIG A   1      -8.521   1.740 129.814  0.00  0.00    +0.194 C 
BRANCH  34  35
ATOM     35  O   LIG A   1      -7.941   0.658 129.093  0.00  0.00    -0.390 OA
ATOM     36  H   LIG A   1      -7.312   1.042 128.457  0.00  0.00    +0.210 HD
ENDBRANCH  34  35
ENDBRANCH  12  34
BRANCH   8  37
ATOM     37  O   LIG A   1      -5.593   5.937 132.227  0.00  0.00    -0.457 OA
BRANCH  37  38
ATOM     38  C   LIG A   1      -4.490   5.429 132.825  0.00  0.00    +0.335 C 
ATOM     39  O   LIG A   1      -4.208   4.242 132.887  0.00  0.00    -0.245 OA
BRANCH  38  40
ATOM     40  C   LIG A   1      -3.535   6.518 133.205  0.00  0.00    +0.029 C 
ATOM     41  C   LIG A   1      -3.662   6.936 134.646  0.00  0.00    +0.051 C 
ATOM     42  C   LIG A   1      -2.585   7.051 132.409  0.00  0.00    -0.020 C 
ATOM     43  C   LIG A   1      -2.326   6.766 130.963  0.00  0.00    +0.035 C 
ENDBRANCH  38  40
ENDBRANCH  37  38
ENDBRANCH   8  37
TORSDOF 10
ENDMDL
MODEL 7
REMARK VINA RESULT:      -8.0      2.117      8.245
REMARK  Name = NuBBE_674
REMARK  15 active torsions:
REMARK  status: ('A' for Active; 'I' for Inactive)
REMARK    1  A    between atoms: C_3  and  C_4
REMARK    2  A    between atoms: C_4  and  C_5
REMARK    3  A    between atoms: C_6  and  O_16
REMARK    4  A    between atoms: C_7  and  C_8
REMARK    5  A    between atoms: C_10  and  C_11
REMARK    6  A    between atoms: C_11  and  C_12
REMARK    7  A    between atoms: C_14  and  O_15
REMARK    8  A    between atoms: C_19  and  C_43
REMARK    9  A    between atoms: C_21  and  O_36
REMARK   10  A    between atoms: C_28  and  C_29
REMARK   11  A    between atoms: C_29  and  O_30
REMARK   12  A    between atoms: O_36  and  C_37
REMARK   13  A    between atoms: C_37  and  C_38
REMARK   14  A    between atoms: C_38  and  C_39
REMARK   15  A    between atoms: C_40  and  C_41
REMARK                            x       y       z     vdW  Elec       q    Type
REMARK                         _______ _______ _______ _____ _____    ______ ____
ROOT
ATOM      1  O   LIG A   1      -8.783  -0.607 131.317  0.00  0.00    -0.288 OA
ATOM      2  C   LIG A   1      -8.064   0.100 130.620  0.00  0.00    +0.206 C 
ATOM      3  C   LIG A   1      -8.182   1.566 130.599  0.00  0.00    +0.045 C 
ATOM      4  C   LIG A   1      -7.193   1.855 129.751  0.00  0.00    +0.134 C 
ATOM      5  O   LIG A   1      -6.314   0.823 129.433  0.00  0.00    -0.477 OA
ATOM      6  C   LIG A   1      -7.098  -0.361 129.539  0.00  0.00    +0.173 C 
ATOM      7  C   LIG A   1      -7.852  -0.631 128.207  0.00  0.00    +0.101 C 
ATOM      8  C   LIG A   1      -7.200  -0.194 126.835  0.00  0.00    +0.192 C 
ATOM      9  C   LIG A   1      -8.032   0.896 126.069  0.00  0.00    +0.111 C 
ATOM     10  C   LIG A   1      -7.804   2.379 126.398  0.00  0.00    +0.211 C 
ATOM     11  C   LIG A   1      -8.144   2.713 127.814  0.00  0.00    +0.027 C 
ATOM     12  C   LIG A   1      -7.159   2.877 128.726  0.00  0.00    +0.019 C 
ATOM     13  O   LIG A   1      -8.700   3.073 125.509  0.00  0.00    -0.453 OA
ATOM     14  C   LIG A   1      -8.726   2.370 124.337  0.00  0.00    +0.336 C 
ATOM     15  O   LIG A   1      -9.315   2.695 123.308  0.00  0.00    -0.245 OA
ATOM     16  C   LIG A   1      -7.961   1.119 124.587  0.00  0.00    +0.040 C 
ATOM     17  C   LIG A   1      -7.280   0.530 123.590  0.00  0.00    +0.020 C 
ATOM     18  C   LIG A   1      -6.202  -1.495 130.002  0.00  0.00    +0.064 C 
ENDROOT
BRANCH   3  19
ATOM     19  C   LIG A   1      -9.404   2.276 131.054  0.00  0.00    +0.085 C 
BRANCH  19  20
ATOM     20  C   LIG A   1      -9.107   3.703 131.453  0.00  0.00    +0.041 A 
ATOM     21  C   LIG A   1      -8.265   4.011 132.534  0.00  0.00    +0.127 A 
ATOM     22  C   LIG A   1      -7.939   5.336 132.849  0.00  0.00    -0.008 A 
ATOM     23  C   LIG A   1      -7.014   5.688 133.982  0.00  0.00    +0.048 C 
ATOM     24  C   LIG A   1      -8.478   6.375 132.072  0.00  0.00    +0.021 A 
ATOM     25  C   LIG A   1      -9.341   6.104 131.005  0.00  0.00    +0.059 A 
ATOM     26  C   LIG A   1      -9.642   4.764 130.700  0.00  0.00    +0.134 A 
BRANCH  25  27
ATOM     27  C   LIG A   1      -9.932   7.206 130.185  0.00  0.00    +0.164 C 
ATOM     28  C   LIG A   1     -11.396   7.533 130.303  0.00  0.00    +0.091 C 
ATOM     29  O   LIG A   1      -9.195   7.853 129.438  0.00  0.00    -0.292 OA
ENDBRANCH  25  27
BRANCH  26  30
ATOM     30  O   LIG A   1     -10.465   4.426 129.651  0.00  0.00    -0.506 OA
ATOM     31  H   LIG A   1      -9.989   4.623 128.810  0.00  0.00    +0.292 HD
ENDBRANCH  26  30
BRANCH  21  32
ATOM     32  O   LIG A   1      -7.742   3.025 133.326  0.00  0.00    -0.506 OA
ATOM     33  H   LIG A   1      -8.015   2.150 132.977  0.00  0.00    +0.292 HD
ENDBRANCH  21  32
ENDBRANCH  19  20
ENDBRANCH   3  19
BRANCH  12  34
ATOM     34  C   LIG A   1      -5.806   3.491 128.423  0.00  0.00    +0.194 C 
BRANCH  34  35
ATOM     35  O   LIG A   1      -5.942   4.827 127.950  0.00  0.00    -0.390 OA
ATOM     36  H   LIG A   1      -5.375   4.911 127.163  0.00  0.00    +0.210 HD
ENDBRANCH  34  35
ENDBRANCH  12  34
BRANCH   8  37
ATOM     37  O   LIG A   1      -7.322  -1.415 126.048  0.00  0.00    -0.457 OA
BRANCH  37  38
ATOM     38  C   LIG A   1      -6.193  -2.134 125.853  0.00  0.00    +0.335 C 
ATOM     39  O   LIG A   1      -5.309  -2.294 126.682  0.00  0.00    -0.245 OA
BRANCH  38  40
ATOM     40  C   LIG A   1      -6.261  -2.906 124.571  0.00  0.00    +0.029 C 
ATOM     41  C   LIG A   1      -4.946  -2.949 123.839  0.00  0.00    +0.051 C 
ATOM     42  C   LIG A   1      -7.335  -3.579 124.109  0.00  0.00    -0.020 C 
ATOM     43  C   LIG A   1      -8.711  -3.637 124.695  0.00  0.00    +0.035 C 
ENDBRANCH  38  40
ENDBRANCH  37  38
ENDBRANCH   8  37
TORSDOF 10
ENDMDL
MODEL 8
REMARK VINA RESULT:      -7.9      2.075      8.491
REMARK  Name = NuBBE_674
REMARK  15 active torsions:
REMARK  status: ('A' for Active; 'I' for Inactive)
REMARK    1  A    between atoms: C_3  and  C_4
REMARK    2  A    between atoms: C_4  and  C_5
REMARK    3  A    between atoms: C_6  and  O_16
REMARK    4  A    between atoms: C_7  and  C_8
REMARK    5  A    between atoms: C_10  and  C_11
REMARK    6  A    between atoms: C_11  and  C_12
REMARK    7  A    between atoms: C_14  and  O_15
REMARK    8  A    between atoms: C_19  and  C_43
REMARK    9  A    between atoms: C_21  and  O_36
REMARK   10  A    between atoms: C_28  and  C_29
REMARK   11  A    between atoms: C_29  and  O_30
REMARK   12  A    between atoms: O_36  and  C_37
REMARK   13  A    between atoms: C_37  and  C_38
REMARK   14  A    between atoms: C_38  and  C_39
REMARK   15  A    between atoms: C_40  and  C_41
REMARK                            x       y       z     vdW  Elec       q    Type
REMARK                         _______ _______ _______ _____ _____    ______ ____
ROOT
ATOM      1  O   LIG A   1      -8.069   1.847 130.866  0.00  0.00    -0.288 OA
ATOM      2  C   LIG A   1      -7.296   1.869 129.916  0.00  0.00    +0.206 C 
ATOM      3  C   LIG A   1      -6.649   3.106 129.453  0.00  0.00    +0.045 C 
ATOM      4  C   LIG A   1      -5.907   2.610 128.461  0.00  0.00    +0.134 C 
ATOM      5  O   LIG A   1      -5.794   1.225 128.392  0.00  0.00    -0.477 OA
ATOM      6  C   LIG A   1      -7.015   0.737 128.939  0.00  0.00    +0.173 C 
ATOM      7  C   LIG A   1      -8.112   0.673 127.840  0.00  0.00    +0.101 C 
ATOM      8  C   LIG A   1      -7.705   0.379 126.341  0.00  0.00    +0.192 C 
ATOM      9  C   LIG A   1      -8.027   1.565 125.364  0.00  0.00    +0.111 C 
ATOM     10  C   LIG A   1      -6.999   2.693 125.191  0.00  0.00    +0.211 C 
ATOM     11  C   LIG A   1      -6.746   3.440 126.461  0.00  0.00    +0.027 C 
ATOM     12  C   LIG A   1      -5.620   3.203 127.171  0.00  0.00    +0.019 C 
ATOM     13  O   LIG A   1      -7.608   3.573 124.226  0.00  0.00    -0.453 OA
ATOM     14  C   LIG A   1      -8.288   2.786 123.339  0.00  0.00    +0.336 C 
ATOM     15  O   LIG A   1      -8.869   3.168 122.326  0.00  0.00    -0.245 OA
ATOM     16  C   LIG A   1      -8.234   1.403 123.886  0.00  0.00    +0.040 C 
ATOM     17  C   LIG A   1      -8.230   0.346 123.058  0.00  0.00    +0.020 C 
ATOM     18  C   LIG A   1      -6.739  -0.582 129.637  0.00  0.00    +0.064 C 
ENDROOT
BRANCH   3  19
ATOM     19  C   LIG A   1      -7.175   4.454 129.786  0.00  0.00    +0.085 C 
BRANCH  19  20
ATOM     20  C   LIG A   1      -6.387   5.102 130.901  0.00  0.00    +0.041 A 
ATOM     21  C   LIG A   1      -6.737   4.936 132.251  0.00  0.00    +0.127 A 
ATOM     22  C   LIG A   1      -5.957   5.480 133.279  0.00  0.00    -0.008 A 
ATOM     23  C   LIG A   1      -6.295   5.288 134.732  0.00  0.00    +0.048 C 
ATOM     24  C   LIG A   1      -4.808   6.218 132.947  0.00  0.00    +0.021 A 
ATOM     25  C   LIG A   1      -4.446   6.425 131.611  0.00  0.00    +0.059 A 
ATOM     26  C   LIG A   1      -5.238   5.855 130.598  0.00  0.00    +0.134 A 
BRANCH  25  27
ATOM     27  C   LIG A   1      -3.234   7.222 131.251  0.00  0.00    +0.164 C 
ATOM     28  C   LIG A   1      -2.814   8.386 132.108  0.00  0.00    +0.091 C 
ATOM     29  O   LIG A   1      -2.576   6.893 130.261  0.00  0.00    -0.292 OA
ENDBRANCH  25  27
BRANCH  26  30
ATOM     30  O   LIG A   1      -4.926   6.000 129.266  0.00  0.00    -0.506 OA
ATOM     31  H   LIG A   1      -3.996   5.705 129.133  0.00  0.00    +0.292 HD
ENDBRANCH  26  30
BRANCH  21  32
ATOM     32  O   LIG A   1      -7.862   4.244 132.609  0.00  0.00    -0.506 OA
ATOM     33  H   LIG A   1      -8.622   4.862 132.656  0.00  0.00    +0.292 HD
ENDBRANCH  21  32
ENDBRANCH  19  20
ENDBRANCH   3  19
BRANCH  12  34
ATOM     34  C   LIG A   1      -4.273   2.874 126.557  0.00  0.00    +0.194 C 
BRANCH  34  35
ATOM     35  O   LIG A   1      -4.138   1.475 126.330  0.00  0.00    -0.390 OA
ATOM     36  H   LIG A   1      -5.029   1.088 126.395  0.00  0.00    +0.210 HD
ENDBRANCH  34  35
ENDBRANCH  12  34
BRANCH   8  37
ATOM     37  O   LIG A   1      -8.629  -0.691 125.989  0.00  0.00    -0.457 OA
BRANCH  37  38
ATOM     38  C   LIG A   1      -8.238  -1.956 126.270  0.00  0.00    +0.335 C 
ATOM     39  O   LIG A   1      -8.603  -2.606 127.238  0.00  0.00    -0.245 OA
BRANCH  38  40
ATOM     40  C   LIG A   1      -7.479  -2.551 125.124  0.00  0.00    +0.029 C 
ATOM     41  C   LIG A   1      -5.986  -2.493 125.313  0.00  0.00    +0.051 C 
ATOM     42  C   LIG A   1      -8.019  -3.161 124.048  0.00  0.00    -0.020 C 
ATOM     43  C   LIG A   1      -9.467  -3.300 123.696  0.00  0.00    +0.035 C 
ENDBRANCH  38  40
ENDBRANCH  37  38
ENDBRANCH   8  37
TORSDOF 10
ENDMDL
MODEL 9
REMARK VINA RESULT:      -7.9      1.960      9.022
REMARK  Name = NuBBE_674
REMARK  15 active torsions:
REMARK  status: ('A' for Active; 'I' for Inactive)
REMARK    1  A    between atoms: C_3  and  C_4
REMARK    2  A    between atoms: C_4  and  C_5
REMARK    3  A    between atoms: C_6  and  O_16
REMARK    4  A    between atoms: C_7  and  C_8
REMARK    5  A    between atoms: C_10  and  C_11
REMARK    6  A    between atoms: C_11  and  C_12
REMARK    7  A    between atoms: C_14  and  O_15
REMARK    8  A    between atoms: C_19  and  C_43
REMARK    9  A    between atoms: C_21  and  O_36
REMARK   10  A    between atoms: C_28  and  C_29
REMARK   11  A    between atoms: C_29  and  O_30
REMARK   12  A    between atoms: O_36  and  C_37
REMARK   13  A    between atoms: C_37  and  C_38
REMARK   14  A    between atoms: C_38  and  C_39
REMARK   15  A    between atoms: C_40  and  C_41
REMARK                            x       y       z     vdW  Elec       q    Type
REMARK                         _______ _______ _______ _____ _____    ______ ____
ROOT
ATOM      1  O   LIG A   1      -3.596   3.572 125.842  0.00  0.00    -0.288 OA
ATOM      2  C   LIG A   1      -4.663   3.328 126.391  0.00  0.00    +0.206 C 
ATOM      3  C   LIG A   1      -4.883   3.560 127.828  0.00  0.00    +0.045 C 
ATOM      4  C   LIG A   1      -6.161   3.188 127.918  0.00  0.00    +0.134 C 
ATOM      5  O   LIG A   1      -6.849   3.000 126.724  0.00  0.00    -0.477 OA
ATOM      6  C   LIG A   1      -5.850   2.585 125.796  0.00  0.00    +0.173 C 
ATOM      7  C   LIG A   1      -5.637   1.049 125.882  0.00  0.00    +0.101 C 
ATOM      8  C   LIG A   1      -6.849   0.108 126.262  0.00  0.00    +0.192 C 
ATOM      9  C   LIG A   1      -6.638  -0.667 127.611  0.00  0.00    +0.111 C 
ATOM     10  C   LIG A   1      -7.034   0.010 128.932  0.00  0.00    +0.211 C 
ATOM     11  C   LIG A   1      -6.249   1.253 129.200  0.00  0.00    +0.027 C 
ATOM     12  C   LIG A   1      -6.812   2.465 128.992  0.00  0.00    +0.019 C 
ATOM     13  O   LIG A   1      -6.729  -0.980 129.933  0.00  0.00    -0.453 OA
ATOM     14  C   LIG A   1      -7.011  -2.202 129.389  0.00  0.00    +0.336 C 
ATOM     15  O   LIG A   1      -6.954  -3.285 129.967  0.00  0.00    -0.245 OA
ATOM     16  C   LIG A   1      -7.329  -1.954 127.957  0.00  0.00    +0.040 C 
ATOM     17  C   LIG A   1      -8.200  -2.745 127.309  0.00  0.00    +0.020 C 
ATOM     18  C   LIG A   1      -6.227   3.097 124.418  0.00  0.00    +0.064 C 
ENDROOT
BRANCH   3  19
ATOM     19  C   LIG A   1      -3.764   3.688 128.795  0.00  0.00    +0.085 C 
BRANCH  19  20
ATOM     20  C   LIG A   1      -3.972   4.850 129.739  0.00  0.00    +0.041 A 
ATOM     21  C   LIG A   1      -3.850   6.183 129.314  0.00  0.00    +0.127 A 
ATOM     22  C   LIG A   1      -4.116   7.251 130.179  0.00  0.00    -0.008 A 
ATOM     23  C   LIG A   1      -4.023   8.686 129.737  0.00  0.00    +0.048 C 
ATOM     24  C   LIG A   1      -4.500   6.979 131.503  0.00  0.00    +0.021 A 
ATOM     25  C   LIG A   1      -4.605   5.662 131.966  0.00  0.00    +0.059 A 
ATOM     26  C   LIG A   1      -4.346   4.607 131.074  0.00  0.00    +0.134 A 
BRANCH  25  27
ATOM     27  C   LIG A   1      -4.997   5.366 133.378  0.00  0.00    +0.164 C 
ATOM     28  C   LIG A   1      -6.391   5.674 133.856  0.00  0.00    +0.091 C 
ATOM     29  O   LIG A   1      -4.170   4.843 134.129  0.00  0.00    -0.292 OA
ENDBRANCH  25  27
BRANCH  26  30
ATOM     30  O   LIG A   1      -4.453   3.290 131.457  0.00  0.00    -0.506 OA
ATOM     31  H   LIG A   1      -3.600   2.840 131.253  0.00  0.00    +0.292 HD
ENDBRANCH  26  30
BRANCH  21  32
ATOM     32  O   LIG A   1      -3.455   6.484 128.039  0.00  0.00    -0.506 OA
ATOM     33  H   LIG A   1      -2.915   5.746 127.684  0.00  0.00    +0.292 HD
ENDBRANCH  21  32
ENDBRANCH  19  20
ENDBRANCH   3  19
BRANCH  12  34
ATOM     34  C   LIG A   1      -8.273   2.784 129.238  0.00  0.00    +0.194 C 
BRANCH  34  35
ATOM     35  O   LIG A   1      -8.640   4.019 128.630  0.00  0.00    -0.390 OA
ATOM     36  H   LIG A   1      -9.302   3.815 127.947  0.00  0.00    +0.210 HD
ENDBRANCH  34  35
ENDBRANCH  12  34
BRANCH   8  37
ATOM     37  O   LIG A   1      -6.784  -0.898 125.209  0.00  0.00    -0.457 OA
BRANCH  37  38
ATOM     38  C   LIG A   1      -7.735  -0.842 124.248  0.00  0.00    +0.335 C 
ATOM     39  O   LIG A   1      -8.543   0.063 124.110  0.00  0.00    -0.245 OA
BRANCH  38  40
ATOM     40  C   LIG A   1      -7.531  -1.919 123.227  0.00  0.00    +0.029 C 
ATOM     41  C   LIG A   1      -6.239  -1.773 122.467  0.00  0.00    +0.051 C 
ATOM     42  C   LIG A   1      -8.342  -2.978 123.021  0.00  0.00    -0.020 C 
ATOM     43  C   LIG A   1      -9.657  -3.274 123.671  0.00  0.00    +0.035 C 
ENDBRANCH  38  40
ENDBRANCH  37  38
ENDBRANCH   8  37
TORSDOF 10
ENDMDL
