MODEL 1
REMARK VINA RESULT:      -8.0      0.000      0.000
REMARK  Name = NuBBE_2356
REMARK  9 active torsions:
REMARK  status: ('A' for Active; 'I' for Inactive)
REMARK    1  A    between atoms: C_1  and  C_2
REMARK    2  A    between atoms: C_2  and  C_3
REMARK    3  A    between atoms: C_2  and  C_4
REMARK    4  A    between atoms: C_5  and  O_6
REMARK    5  A    between atoms: C_7  and  C_8
REMARK    6  A    between atoms: C_16  and  C_17
REMARK    7  A    between atoms: C_21  and  C_22
REMARK    8  A    between atoms: C_21  and  C_25
REMARK    9  A    between atoms: C_22  and  O_23
REMARK                            x       y       z     vdW  Elec       q    Type
REMARK                         _______ _______ _______ _____ _____    ______ ____
ROOT
ATOM      1  C   LIG A   1      -6.669  -2.375 129.511  0.00  0.00    +0.000 A 
ATOM      2  C   LIG A   1      -5.398  -2.881 129.850  0.00  0.00    +0.123 A 
ATOM      3  C   LIG A   1      -4.375  -3.008 128.914  0.00  0.00    -0.009 A 
ATOM      4  C   LIG A   1      -3.000  -3.497 129.275  0.00  0.00    +0.048 C 
ATOM      5  C   LIG A   1      -4.645  -2.684 127.583  0.00  0.00    +0.011 A 
ATOM      6  C   LIG A   1      -5.916  -2.248 127.155  0.00  0.00    -0.037 A 
ATOM      7  C   LIG A   1      -6.938  -2.112 128.129  0.00  0.00    -0.037 A 
ATOM      8  C   LIG A   1      -8.301  -1.641 127.675  0.00  0.00    +0.036 C 
ATOM      9  C   LIG A   1      -8.603  -2.109 126.260  0.00  0.00    +0.010 C 
ATOM     10  C   LIG A   1      -7.597  -1.504 125.269  0.00  0.00    +0.016 C 
ATOM     11  C   LIG A   1      -6.111  -1.856 125.661  0.00  0.00    -0.003 C 
ATOM     12  C   LIG A   1      -5.234  -0.588 125.457  0.00  0.00    +0.016 C 
ATOM     13  C   LIG A   1      -5.612  -3.003 124.747  0.00  0.00    +0.012 C 
ATOM     14  C   LIG A   1      -5.676  -2.704 123.250  0.00  0.00    +0.002 C 
ATOM     15  C   LIG A   1      -6.793  -1.756 122.833  0.00  0.00    +0.018 C 
ATOM     16  C   LIG A   1      -8.021  -1.798 123.762  0.00  0.00    +0.068 C 
ATOM     17  C   LIG A   1      -8.748  -3.152 123.571  0.00  0.00    +0.023 C 
ENDROOT
BRANCH   1  19
ATOM     18  C   LIG A   1      -7.644  -3.072 131.741  0.00  0.00    +0.012 C 
ATOM     19  C   LIG A   1      -7.727  -2.077 130.581  0.00  0.00    +0.017 C 
ATOM     20  C   LIG A   1      -7.742  -0.637 131.120  0.00  0.00    +0.012 C 
ENDBRANCH   1  19
BRANCH   2  21
ATOM     21  O   LIG A   1      -5.113  -3.297 131.120  0.00  0.00    -0.506 OA
ATOM     22  H   LIG A   1      -4.869  -4.237 131.044  0.00  0.00    +0.292 HD
ENDBRANCH   2  21
BRANCH  16  23
ATOM     23  C   LIG A   1      -8.988  -0.710 123.288  0.00  0.00    +0.311 C 
ATOM     24  O   LIG A   1     -10.059  -0.867 122.708  0.00  0.00    -0.250 OA
BRANCH  23  25
ATOM     25  O   LIG A   1      -8.566   0.546 123.573  0.00  0.00    -0.480 OA
ATOM     26  H   LIG A   1      -7.765   0.654 123.011  0.00  0.00    +0.295 HD
ENDBRANCH  23  25
ENDBRANCH  16  23
TORSDOF 4
ENDMDL
MODEL 2
REMARK VINA RESULT:      -7.8      3.453      6.368
REMARK  Name = NuBBE_2356
REMARK  9 active torsions:
REMARK  status: ('A' for Active; 'I' for Inactive)
REMARK    1  A    between atoms: C_1  and  C_2
REMARK    2  A    between atoms: C_2  and  C_3
REMARK    3  A    between atoms: C_2  and  C_4
REMARK    4  A    between atoms: C_5  and  O_6
REMARK    5  A    between atoms: C_7  and  C_8
REMARK    6  A    between atoms: C_16  and  C_17
REMARK    7  A    between atoms: C_21  and  C_22
REMARK    8  A    between atoms: C_21  and  C_25
REMARK    9  A    between atoms: C_22  and  O_23
REMARK                            x       y       z     vdW  Elec       q    Type
REMARK                         _______ _______ _______ _____ _____    ______ ____
ROOT
ATOM      1  C   LIG A   1      -5.967   3.118 124.605  0.00  0.00    +0.000 A 
ATOM      2  C   LIG A   1      -5.830   3.695 123.327  0.00  0.00    +0.123 A 
ATOM      3  C   LIG A   1      -6.408   3.132 122.191  0.00  0.00    -0.009 A 
ATOM      4  C   LIG A   1      -6.312   3.765 120.832  0.00  0.00    +0.048 C 
ATOM      5  C   LIG A   1      -7.088   1.920 122.322  0.00  0.00    +0.011 A 
ATOM      6  C   LIG A   1      -7.197   1.243 123.555  0.00  0.00    -0.037 A 
ATOM      7  C   LIG A   1      -6.613   1.843 124.699  0.00  0.00    -0.037 A 
ATOM      8  C   LIG A   1      -6.731   1.124 126.023  0.00  0.00    +0.036 C 
ATOM      9  C   LIG A   1      -6.745  -0.385 125.831  0.00  0.00    +0.010 C 
ATOM     10  C   LIG A   1      -7.972  -0.810 125.011  0.00  0.00    +0.016 C 
ATOM     11  C   LIG A   1      -8.021  -0.076 123.616  0.00  0.00    -0.003 C 
ATOM     12  C   LIG A   1      -9.490   0.351 123.335  0.00  0.00    +0.016 C 
ATOM     13  C   LIG A   1      -7.532  -1.055 122.520  0.00  0.00    +0.012 C 
ATOM     14  C   LIG A   1      -8.320  -2.360 122.426  0.00  0.00    +0.002 C 
ATOM     15  C   LIG A   1      -8.920  -2.842 123.740  0.00  0.00    +0.018 C 
ATOM     16  C   LIG A   1      -8.129  -2.395 124.984  0.00  0.00    +0.068 C 
ATOM     17  C   LIG A   1      -6.782  -3.157 125.022  0.00  0.00    +0.023 C 
ENDROOT
BRANCH   1  19
ATOM     18  C   LIG A   1      -3.962   3.691 126.042  0.00  0.00    +0.012 C 
ATOM     19  C   LIG A   1      -5.476   3.837 125.868  0.00  0.00    +0.017 C 
ATOM     20  C   LIG A   1      -5.881   5.315 125.992  0.00  0.00    +0.012 C 
ENDBRANCH   1  19
BRANCH   2  21
ATOM     21  O   LIG A   1      -5.097   4.832 123.133  0.00  0.00    -0.506 OA
ATOM     22  H   LIG A   1      -4.416   4.831 123.829  0.00  0.00    +0.292 HD
ENDBRANCH   2  21
BRANCH  16  23
ATOM     23  C   LIG A   1      -8.923  -2.845 126.213  0.00  0.00    +0.311 C 
ATOM     24  O   LIG A   1      -8.486  -3.074 127.337  0.00  0.00    -0.250 OA
BRANCH  23  25
ATOM     25  O   LIG A   1     -10.251  -2.982 125.977  0.00  0.00    -0.480 OA
ATOM     26  H   LIG A   1     -10.670  -2.532 126.746  0.00  0.00    +0.295 HD
ENDBRANCH  23  25
ENDBRANCH  16  23
TORSDOF 4
ENDMDL
MODEL 3
REMARK VINA RESULT:      -7.8      2.489      4.226
REMARK  Name = NuBBE_2356
REMARK  9 active torsions:
REMARK  status: ('A' for Active; 'I' for Inactive)
REMARK    1  A    between atoms: C_1  and  C_2
REMARK    2  A    between atoms: C_2  and  C_3
REMARK    3  A    between atoms: C_2  and  C_4
REMARK    4  A    between atoms: C_5  and  O_6
REMARK    5  A    between atoms: C_7  and  C_8
REMARK    6  A    between atoms: C_16  and  C_17
REMARK    7  A    between atoms: C_21  and  C_22
REMARK    8  A    between atoms: C_21  and  C_25
REMARK    9  A    between atoms: C_22  and  O_23
REMARK                            x       y       z     vdW  Elec       q    Type
REMARK                         _______ _______ _______ _____ _____    ______ ____
ROOT
ATOM      1  C   LIG A   1      -6.214  -1.765 127.911  0.00  0.00    +0.000 A 
ATOM      2  C   LIG A   1      -7.165  -2.749 128.250  0.00  0.00    +0.123 A 
ATOM      3  C   LIG A   1      -8.354  -2.909 127.541  0.00  0.00    -0.009 A 
ATOM      4  C   LIG A   1      -9.350  -3.987 127.861  0.00  0.00    +0.048 C 
ATOM      5  C   LIG A   1      -8.636  -2.018 126.504  0.00  0.00    +0.011 A 
ATOM      6  C   LIG A   1      -7.770  -0.959 126.161  0.00  0.00    -0.037 A 
ATOM      7  C   LIG A   1      -6.559  -0.825 126.886  0.00  0.00    -0.037 A 
ATOM      8  C   LIG A   1      -5.626   0.305 126.519  0.00  0.00    +0.036 C 
ATOM      9  C   LIG A   1      -6.398   1.518 126.022  0.00  0.00    +0.010 C 
ATOM     10  C   LIG A   1      -7.169   1.175 124.739  0.00  0.00    +0.016 C 
ATOM     11  C   LIG A   1      -8.141  -0.048 124.954  0.00  0.00    -0.003 C 
ATOM     12  C   LIG A   1      -8.053  -0.973 123.707  0.00  0.00    +0.016 C 
ATOM     13  C   LIG A   1      -9.585   0.486 125.121  0.00  0.00    +0.012 C 
ATOM     14  C   LIG A   1     -10.096   1.330 123.956  0.00  0.00    +0.002 C 
ATOM     15  C   LIG A   1      -9.020   2.109 123.209  0.00  0.00    +0.018 C 
ATOM     16  C   LIG A   1      -7.804   2.477 124.079  0.00  0.00    +0.068 C 
ATOM     17  C   LIG A   1      -8.231   3.553 125.108  0.00  0.00    +0.023 C 
ENDROOT
BRANCH   1  19
ATOM     18  C   LIG A   1      -4.903  -0.994 129.936  0.00  0.00    +0.012 C 
ATOM     19  C   LIG A   1      -4.837  -1.712 128.586  0.00  0.00    +0.017 C 
ATOM     20  C   LIG A   1      -4.121  -3.064 128.741  0.00  0.00    +0.012 C 
ENDBRANCH   1  19
BRANCH   2  21
ATOM     21  O   LIG A   1      -6.976  -3.586 129.313  0.00  0.00    -0.506 OA
ATOM     22  H   LIG A   1      -6.266  -3.183 129.846  0.00  0.00    +0.292 HD
ENDBRANCH   2  21
BRANCH  16  23
ATOM     23  C   LIG A   1      -6.770   3.134 123.161  0.00  0.00    +0.311 C 
ATOM     24  O   LIG A   1      -6.307   2.681 122.118  0.00  0.00    -0.250 OA
BRANCH  23  25
ATOM     25  O   LIG A   1      -6.362   4.352 123.594  0.00  0.00    -0.480 OA
ATOM     26  H   LIG A   1      -7.135   4.687 124.104  0.00  0.00    +0.295 HD
ENDBRANCH  23  25
ENDBRANCH  16  23
TORSDOF 4
ENDMDL
MODEL 4
REMARK VINA RESULT:      -7.6      3.398      5.946
REMARK  Name = NuBBE_2356
REMARK  9 active torsions:
REMARK  status: ('A' for Active; 'I' for Inactive)
REMARK    1  A    between atoms: C_1  and  C_2
REMARK    2  A    between atoms: C_2  and  C_3
REMARK    3  A    between atoms: C_2  and  C_4
REMARK    4  A    between atoms: C_5  and  O_6
REMARK    5  A    between atoms: C_7  and  C_8
REMARK    6  A    between atoms: C_16  and  C_17
REMARK    7  A    between atoms: C_21  and  C_22
REMARK    8  A    between atoms: C_21  and  C_25
REMARK    9  A    between atoms: C_22  and  O_23
REMARK                            x       y       z     vdW  Elec       q    Type
REMARK                         _______ _______ _______ _____ _____    ______ ____
ROOT
ATOM      1  C   LIG A   1      -8.223  -1.698 124.915  0.00  0.00    +0.000 A 
ATOM      2  C   LIG A   1      -8.215  -2.659 125.946  0.00  0.00    +0.123 A 
ATOM      3  C   LIG A   1      -8.007  -2.315 127.280  0.00  0.00    -0.009 A 
ATOM      4  C   LIG A   1      -8.047  -3.323 128.394  0.00  0.00    +0.048 C 
ATOM      5  C   LIG A   1      -7.733  -0.982 127.590  0.00  0.00    +0.011 A 
ATOM      6  C   LIG A   1      -7.646   0.021 126.601  0.00  0.00    -0.037 A 
ATOM      7  C   LIG A   1      -7.876  -0.350 125.252  0.00  0.00    -0.037 A 
ATOM      8  C   LIG A   1      -7.788   0.721 124.190  0.00  0.00    +0.036 C 
ATOM      9  C   LIG A   1      -6.766   1.785 124.563  0.00  0.00    +0.010 C 
ATOM     10  C   LIG A   1      -7.188   2.504 125.853  0.00  0.00    +0.016 C 
ATOM     11  C   LIG A   1      -7.390   1.491 127.044  0.00  0.00    -0.003 C 
ATOM     12  C   LIG A   1      -8.667   1.904 127.831  0.00  0.00    +0.016 C 
ATOM     13  C   LIG A   1      -6.150   1.554 127.969  0.00  0.00    +0.012 C 
ATOM     14  C   LIG A   1      -5.842   2.938 128.537  0.00  0.00    +0.002 C 
ATOM     15  C   LIG A   1      -6.255   4.103 127.646  0.00  0.00    +0.018 C 
ATOM     16  C   LIG A   1      -6.258   3.764 126.144  0.00  0.00    +0.068 C 
ATOM     17  C   LIG A   1      -4.795   3.583 125.668  0.00  0.00    +0.023 C 
ENDROOT
BRANCH   1  19
ATOM     18  C   LIG A   1      -7.396  -2.330 122.606  0.00  0.00    +0.012 C 
ATOM     19  C   LIG A   1      -8.625  -2.064 123.480  0.00  0.00    +0.017 C 
ATOM     20  C   LIG A   1      -9.629  -3.220 123.344  0.00  0.00    +0.012 C 
ENDBRANCH   1  19
BRANCH   2  21
ATOM     21  O   LIG A   1      -8.388  -3.989 125.683  0.00  0.00    -0.506 OA
ATOM     22  H   LIG A   1      -8.066  -4.124 124.773  0.00  0.00    +0.292 HD
ENDBRANCH   2  21
BRANCH  16  23
ATOM     23  C   LIG A   1      -6.813   4.983 125.403  0.00  0.00    +0.311 C 
ATOM     24  O   LIG A   1      -6.189   5.970 125.024  0.00  0.00    -0.250 OA
BRANCH  23  25
ATOM     25  O   LIG A   1      -8.144   4.907 125.161  0.00  0.00    -0.480 OA
ATOM     26  H   LIG A   1      -8.352   3.956 125.310  0.00  0.00    +0.295 HD
ENDBRANCH  23  25
ENDBRANCH  16  23
TORSDOF 4
ENDMDL
MODEL 5
REMARK VINA RESULT:      -7.6      3.749      5.619
REMARK  Name = NuBBE_2356
REMARK  9 active torsions:
REMARK  status: ('A' for Active; 'I' for Inactive)
REMARK    1  A    between atoms: C_1  and  C_2
REMARK    2  A    between atoms: C_2  and  C_3
REMARK    3  A    between atoms: C_2  and  C_4
REMARK    4  A    between atoms: C_5  and  O_6
REMARK    5  A    between atoms: C_7  and  C_8
REMARK    6  A    between atoms: C_16  and  C_17
REMARK    7  A    between atoms: C_21  and  C_22
REMARK    8  A    between atoms: C_21  and  C_25
REMARK    9  A    between atoms: C_22  and  O_23
REMARK                            x       y       z     vdW  Elec       q    Type
REMARK                         _______ _______ _______ _____ _____    ______ ____
ROOT
ATOM      1  C   LIG A   1      -5.437   2.565 126.692  0.00  0.00    +0.000 A 
ATOM      2  C   LIG A   1      -6.128   3.786 126.550  0.00  0.00    +0.123 A 
ATOM      3  C   LIG A   1      -7.387   3.862 125.958  0.00  0.00    -0.009 A 
ATOM      4  C   LIG A   1      -8.155   5.149 125.848  0.00  0.00    +0.048 C 
ATOM      5  C   LIG A   1      -7.947   2.697 125.431  0.00  0.00    +0.011 A 
ATOM      6  C   LIG A   1      -7.279   1.455 125.464  0.00  0.00    -0.037 A 
ATOM      7  C   LIG A   1      -6.005   1.399 126.084  0.00  0.00    -0.037 A 
ATOM      8  C   LIG A   1      -5.287   0.070 126.126  0.00  0.00    +0.036 C 
ATOM      9  C   LIG A   1      -5.620  -0.774 124.905  0.00  0.00    +0.010 C 
ATOM     10  C   LIG A   1      -7.119  -1.106 124.874  0.00  0.00    +0.016 C 
ATOM     11  C   LIG A   1      -8.004   0.199 124.900  0.00  0.00    -0.003 C 
ATOM     12  C   LIG A   1      -9.205  -0.040 125.858  0.00  0.00    +0.016 C 
ATOM     13  C   LIG A   1      -8.514   0.484 123.465  0.00  0.00    +0.012 C 
ATOM     14  C   LIG A   1      -9.316  -0.651 122.832  0.00  0.00    +0.002 C 
ATOM     15  C   LIG A   1      -8.925  -2.049 123.295  0.00  0.00    +0.018 C 
ATOM     16  C   LIG A   1      -7.453  -2.167 123.734  0.00  0.00    +0.068 C 
ATOM     17  C   LIG A   1      -6.546  -2.048 122.485  0.00  0.00    +0.023 C 
ENDROOT
BRANCH   1  19
ATOM     18  C   LIG A   1      -2.963   3.102 126.744  0.00  0.00    +0.012 C 
ATOM     19  C   LIG A   1      -4.135   2.468 127.498  0.00  0.00    +0.017 C 
ATOM     20  C   LIG A   1      -4.199   3.016 128.933  0.00  0.00    +0.012 C 
ENDBRANCH   1  19
BRANCH   2  21
ATOM     21  O   LIG A   1      -5.582   4.966 126.969  0.00  0.00    -0.506 OA
ATOM     22  H   LIG A   1      -4.621   4.875 126.840  0.00  0.00    +0.292 HD
ENDBRANCH   2  21
BRANCH  16  23
ATOM     23  C   LIG A   1      -7.256  -3.581 124.286  0.00  0.00    +0.311 C 
ATOM     24  O   LIG A   1      -8.083  -4.273 124.873  0.00  0.00    -0.250 OA
BRANCH  23  25
ATOM     25  O   LIG A   1      -6.012  -4.076 124.068  0.00  0.00    -0.480 OA
ATOM     26  H   LIG A   1      -5.486  -3.280 123.825  0.00  0.00    +0.295 HD
ENDBRANCH  23  25
ENDBRANCH  16  23
TORSDOF 4
ENDMDL
MODEL 6
REMARK VINA RESULT:      -7.5      3.279      3.886
REMARK  Name = NuBBE_2356
REMARK  9 active torsions:
REMARK  status: ('A' for Active; 'I' for Inactive)
REMARK    1  A    between atoms: C_1  and  C_2
REMARK    2  A    between atoms: C_2  and  C_3
REMARK    3  A    between atoms: C_2  and  C_4
REMARK    4  A    between atoms: C_5  and  O_6
REMARK    5  A    between atoms: C_7  and  C_8
REMARK    6  A    between atoms: C_16  and  C_17
REMARK    7  A    between atoms: C_21  and  C_22
REMARK    8  A    between atoms: C_21  and  C_25
REMARK    9  A    between atoms: C_22  and  O_23
REMARK                            x       y       z     vdW  Elec       q    Type
REMARK                         _______ _______ _______ _____ _____    ______ ____
ROOT
ATOM      1  C   LIG A   1      -7.127   2.211 127.899  0.00  0.00    +0.000 A 
ATOM      2  C   LIG A   1      -5.797   2.659 128.039  0.00  0.00    +0.123 A 
ATOM      3  C   LIG A   1      -4.791   2.289 127.150  0.00  0.00    -0.009 A 
ATOM      4  C   LIG A   1      -3.382   2.801 127.260  0.00  0.00    +0.048 C 
ATOM      5  C   LIG A   1      -5.102   1.391 126.128  0.00  0.00    +0.011 A 
ATOM      6  C   LIG A   1      -6.391   0.839 125.974  0.00  0.00    -0.037 A 
ATOM      7  C   LIG A   1      -7.403   1.242 126.882  0.00  0.00    -0.037 A 
ATOM      8  C   LIG A   1      -8.786   0.656 126.718  0.00  0.00    +0.036 C 
ATOM      9  C   LIG A   1      -8.723  -0.761 126.170  0.00  0.00    +0.010 C 
ATOM     10  C   LIG A   1      -8.095  -0.767 124.768  0.00  0.00    +0.016 C 
ATOM     11  C   LIG A   1      -6.661  -0.112 124.771  0.00  0.00    -0.003 C 
ATOM     12  C   LIG A   1      -6.526   0.785 123.508  0.00  0.00    +0.016 C 
ATOM     13  C   LIG A   1      -5.598  -1.239 124.742  0.00  0.00    +0.012 C 
ATOM     14  C   LIG A   1      -5.709  -2.194 123.556  0.00  0.00    +0.002 C 
ATOM     15  C   LIG A   1      -7.121  -2.392 123.021  0.00  0.00    +0.018 C 
ATOM     16  C   LIG A   1      -8.219  -2.200 124.084  0.00  0.00    +0.068 C 
ATOM     17  C   LIG A   1      -8.157  -3.378 125.088  0.00  0.00    +0.023 C 
ENDROOT
BRANCH   1  19
ATOM     18  C   LIG A   1      -8.267   2.099 130.157  0.00  0.00    +0.012 C 
ATOM     19  C   LIG A   1      -8.257   2.763 128.778  0.00  0.00    +0.017 C 
ATOM     20  C   LIG A   1      -8.297   4.293 128.927  0.00  0.00    +0.012 C 
ENDBRANCH   1  19
BRANCH   2  21
ATOM     21  O   LIG A   1      -5.423   3.467 129.077  0.00  0.00    -0.506 OA
ATOM     22  H   LIG A   1      -5.000   2.881 129.730  0.00  0.00    +0.292 HD
ENDBRANCH   2  21
BRANCH  16  23
ATOM     23  C   LIG A   1      -9.568  -2.304 123.369  0.00  0.00    +0.311 C 
ATOM     24  O   LIG A   1     -10.158  -1.415 122.760  0.00  0.00    -0.250 OA
BRANCH  23  25
ATOM     25  O   LIG A   1     -10.124  -3.538 123.443  0.00  0.00    -0.480 OA
ATOM     26  H   LIG A   1      -9.618  -3.976 124.164  0.00  0.00    +0.295 HD
ENDBRANCH  23  25
ENDBRANCH  16  23
TORSDOF 4
ENDMDL
MODEL 7
REMARK VINA RESULT:      -7.5      8.206     11.051
REMARK  Name = NuBBE_2356
REMARK  9 active torsions:
REMARK  status: ('A' for Active; 'I' for Inactive)
REMARK    1  A    between atoms: C_1  and  C_2
REMARK    2  A    between atoms: C_2  and  C_3
REMARK    3  A    between atoms: C_2  and  C_4
REMARK    4  A    between atoms: C_5  and  O_6
REMARK    5  A    between atoms: C_7  and  C_8
REMARK    6  A    between atoms: C_16  and  C_17
REMARK    7  A    between atoms: C_21  and  C_22
REMARK    8  A    between atoms: C_21  and  C_25
REMARK    9  A    between atoms: C_22  and  O_23
REMARK                            x       y       z     vdW  Elec       q    Type
REMARK                         _______ _______ _______ _____ _____    ______ ____
ROOT
ATOM      1  C   LIG A   1      -3.253   3.708 128.621  0.00  0.00    +0.000 A 
ATOM      2  C   LIG A   1      -3.890   2.496 128.958  0.00  0.00    +0.123 A 
ATOM      3  C   LIG A   1      -4.421   2.262 130.224  0.00  0.00    -0.009 A 
ATOM      4  C   LIG A   1      -5.147   0.995 130.578  0.00  0.00    +0.048 C 
ATOM      5  C   LIG A   1      -4.254   3.239 131.207  0.00  0.00    +0.011 A 
ATOM      6  C   LIG A   1      -3.558   4.442 130.967  0.00  0.00    -0.037 A 
ATOM      7  C   LIG A   1      -3.039   4.664 129.666  0.00  0.00    -0.037 A 
ATOM      8  C   LIG A   1      -2.296   5.953 129.402  0.00  0.00    +0.036 C 
ATOM      9  C   LIG A   1      -1.564   6.432 130.647  0.00  0.00    +0.010 C 
ATOM     10  C   LIG A   1      -2.564   6.745 131.770  0.00  0.00    +0.016 C 
ATOM     11  C   LIG A   1      -3.468   5.498 132.107  0.00  0.00    -0.003 C 
ATOM     12  C   LIG A   1      -4.928   5.990 132.318  0.00  0.00    +0.016 C 
ATOM     13  C   LIG A   1      -2.938   4.832 133.401  0.00  0.00    +0.012 C 
ATOM     14  C   LIG A   1      -2.881   5.751 134.619  0.00  0.00    +0.002 C 
ATOM     15  C   LIG A   1      -2.641   7.222 134.302  0.00  0.00    +0.018 C 
ATOM     16  C   LIG A   1      -1.847   7.454 133.003  0.00  0.00    +0.068 C 
ATOM     17  C   LIG A   1      -0.384   6.997 133.221  0.00  0.00    +0.023 C 
ENDROOT
BRANCH   1  19
ATOM     18  C   LIG A   1      -1.692   3.104 126.721  0.00  0.00    +0.012 C 
ATOM     19  C   LIG A   1      -2.830   4.020 127.180  0.00  0.00    +0.017 C 
ATOM     20  C   LIG A   1      -3.961   4.019 126.140  0.00  0.00    +0.012 C 
ENDBRANCH   1  19
BRANCH   2  21
ATOM     21  O   LIG A   1      -3.998   1.474 128.057  0.00  0.00    -0.506 OA
ATOM     22  H   LIG A   1      -3.186   0.945 128.156  0.00  0.00    +0.292 HD
ENDBRANCH   2  21
BRANCH  16  23
ATOM     23  C   LIG A   1      -1.803   8.965 132.760  0.00  0.00    +0.311 C 
ATOM     24  O   LIG A   1      -2.635   9.648 132.169  0.00  0.00    -0.250 OA
BRANCH  23  25
ATOM     25  O   LIG A   1      -0.705   9.563 133.284  0.00  0.00    -0.480 OA
ATOM     26  H   LIG A   1      -0.626   9.158 134.178  0.00  0.00    +0.295 HD
ENDBRANCH  23  25
ENDBRANCH  16  23
TORSDOF 4
ENDMDL
MODEL 8
REMARK VINA RESULT:      -7.4      3.225      4.963
REMARK  Name = NuBBE_2356
REMARK  9 active torsions:
REMARK  status: ('A' for Active; 'I' for Inactive)
REMARK    1  A    between atoms: C_1  and  C_2
REMARK    2  A    between atoms: C_2  and  C_3
REMARK    3  A    between atoms: C_2  and  C_4
REMARK    4  A    between atoms: C_5  and  O_6
REMARK    5  A    between atoms: C_7  and  C_8
REMARK    6  A    between atoms: C_16  and  C_17
REMARK    7  A    between atoms: C_21  and  C_22
REMARK    8  A    between atoms: C_21  and  C_25
REMARK    9  A    between atoms: C_22  and  O_23
REMARK                            x       y       z     vdW  Elec       q    Type
REMARK                         _______ _______ _______ _____ _____    ______ ____
ROOT
ATOM      1  C   LIG A   1      -4.336   2.004 127.592  0.00  0.00    +0.000 A 
ATOM      2  C   LIG A   1      -4.140   2.259 128.964  0.00  0.00    +0.123 A 
ATOM      3  C   LIG A   1      -4.551   1.367 129.952  0.00  0.00    -0.009 A 
ATOM      4  C   LIG A   1      -4.301   1.605 131.415  0.00  0.00    +0.048 C 
ATOM      5  C   LIG A   1      -5.238   0.216 129.566  0.00  0.00    +0.011 A 
ATOM      6  C   LIG A   1      -5.542  -0.067 128.218  0.00  0.00    -0.037 A 
ATOM      7  C   LIG A   1      -5.100   0.848 127.228  0.00  0.00    -0.037 A 
ATOM      8  C   LIG A   1      -5.419   0.547 125.782  0.00  0.00    +0.036 C 
ATOM      9  C   LIG A   1      -6.740  -0.195 125.652  0.00  0.00    +0.010 C 
ATOM     10  C   LIG A   1      -6.663  -1.557 126.358  0.00  0.00    +0.016 C 
ATOM     11  C   LIG A   1      -6.264  -1.403 127.875  0.00  0.00    -0.003 C 
ATOM     12  C   LIG A   1      -5.241  -2.519 128.231  0.00  0.00    +0.016 C 
ATOM     13  C   LIG A   1      -7.538  -1.550 128.744  0.00  0.00    +0.012 C 
ATOM     14  C   LIG A   1      -8.294  -2.864 128.556  0.00  0.00    +0.002 C 
ATOM     15  C   LIG A   1      -8.179  -3.477 127.167  0.00  0.00    +0.018 C 
ATOM     16  C   LIG A   1      -7.950  -2.442 126.049  0.00  0.00    +0.068 C 
ATOM     17  C   LIG A   1      -9.246  -1.616 125.859  0.00  0.00    +0.023 C 
ENDROOT
BRANCH   1  19
ATOM     18  C   LIG A   1      -4.434   4.262 126.451  0.00  0.00    +0.012 C 
ATOM     19  C   LIG A   1      -3.726   2.907 126.512  0.00  0.00    +0.017 C 
ATOM     20  C   LIG A   1      -2.204   3.108 126.595  0.00  0.00    +0.012 C 
ENDBRANCH   1  19
BRANCH   2  21
ATOM     21  O   LIG A   1      -3.553   3.415 129.397  0.00  0.00    -0.506 OA
ATOM     22  H   LIG A   1      -4.265   4.080 129.425  0.00  0.00    +0.292 HD
ENDBRANCH   2  21
BRANCH  16  23
ATOM     23  C   LIG A   1      -7.729  -3.218 124.748  0.00  0.00    +0.311 C 
ATOM     24  O   LIG A   1      -6.668  -3.657 124.315  0.00  0.00    -0.250 OA
BRANCH  23  25
ATOM     25  O   LIG A   1      -8.868  -3.419 124.041  0.00  0.00    -0.480 OA
ATOM     26  H   LIG A   1      -8.552  -3.838 123.208  0.00  0.00    +0.295 HD
ENDBRANCH  23  25
ENDBRANCH  16  23
TORSDOF 4
ENDMDL
MODEL 9
REMARK VINA RESULT:      -7.3      5.033      8.214
REMARK  Name = NuBBE_2356
REMARK  9 active torsions:
REMARK  status: ('A' for Active; 'I' for Inactive)
REMARK    1  A    between atoms: C_1  and  C_2
REMARK    2  A    between atoms: C_2  and  C_3
REMARK    3  A    between atoms: C_2  and  C_4
REMARK    4  A    between atoms: C_5  and  O_6
REMARK    5  A    between atoms: C_7  and  C_8
REMARK    6  A    between atoms: C_16  and  C_17
REMARK    7  A    between atoms: C_21  and  C_22
REMARK    8  A    between atoms: C_21  and  C_25
REMARK    9  A    between atoms: C_22  and  O_23
REMARK                            x       y       z     vdW  Elec       q    Type
REMARK                         _______ _______ _______ _____ _____    ______ ____
ROOT
ATOM      1  C   LIG A   1      -7.194   2.440 123.789  0.00  0.00    +0.000 A 
ATOM      2  C   LIG A   1      -7.894   1.239 124.028  0.00  0.00    +0.123 A 
ATOM      3  C   LIG A   1      -7.941   0.644 125.286  0.00  0.00    -0.009 A 
ATOM      4  C   LIG A   1      -8.726  -0.607 125.563  0.00  0.00    +0.048 C 
ATOM      5  C   LIG A   1      -7.214   1.226 126.326  0.00  0.00    +0.011 A 
ATOM      6  C   LIG A   1      -6.426   2.382 126.143  0.00  0.00    -0.037 A 
ATOM      7  C   LIG A   1      -6.406   2.979 124.857  0.00  0.00    -0.037 A 
ATOM      8  C   LIG A   1      -5.567   4.219 124.657  0.00  0.00    +0.036 C 
ATOM      9  C   LIG A   1      -4.335   4.202 125.550  0.00  0.00    +0.010 C 
ATOM     10  C   LIG A   1      -4.746   4.205 127.030  0.00  0.00    +0.016 C 
ATOM     11  C   LIG A   1      -5.693   2.992 127.373  0.00  0.00    -0.003 C 
ATOM     12  C   LIG A   1      -6.827   3.502 128.308  0.00  0.00    +0.016 C 
ATOM     13  C   LIG A   1      -4.864   1.898 128.089  0.00  0.00    +0.012 C 
ATOM     14  C   LIG A   1      -4.159   2.357 129.363  0.00  0.00    +0.002 C 
ATOM     15  C   LIG A   1      -3.756   3.826 129.379  0.00  0.00    +0.018 C 
ATOM     16  C   LIG A   1      -3.484   4.409 127.980  0.00  0.00    +0.068 C 
ATOM     17  C   LIG A   1      -2.177   3.791 127.425  0.00  0.00    +0.023 C 
ENDROOT
BRANCH   1  19
ATOM     18  C   LIG A   1      -6.238   2.675 121.457  0.00  0.00    +0.012 C 
ATOM     19  C   LIG A   1      -7.293   3.174 122.446  0.00  0.00    +0.017 C 
ATOM     20  C   LIG A   1      -8.682   3.167 121.786  0.00  0.00    +0.012 C 
ENDBRANCH   1  19
BRANCH   2  21
ATOM     21  O   LIG A   1      -8.546   0.583 123.022  0.00  0.00    -0.506 OA
ATOM     22  H   LIG A   1      -9.296   0.127 123.444  0.00  0.00    +0.292 HD
ENDBRANCH   2  21
BRANCH  16  23
ATOM     23  C   LIG A   1      -3.221   5.907 128.155  0.00  0.00    +0.311 C 
ATOM     24  O   LIG A   1      -4.055   6.803 128.246  0.00  0.00    -0.250 OA
BRANCH  23  25
ATOM     25  O   LIG A   1      -1.903   6.219 128.216  0.00  0.00    -0.480 OA
ATOM     26  H   LIG A   1      -1.555   5.923 127.344  0.00  0.00    +0.295 HD
ENDBRANCH  23  25
ENDBRANCH  16  23
TORSDOF 4
ENDMDL
