MODEL 1
REMARK VINA RESULT:      -7.0      0.000      0.000
REMARK  Name = NuBBE_1246
REMARK  16 active torsions:
REMARK  status: ('A' for Active; 'I' for Inactive)
REMARK    1  A    between atoms: C_3  and  O_4
REMARK    2  A    between atoms: O_4  and  C_5
REMARK    3  A    between atoms: C_6  and  C_7
REMARK    4  A    between atoms: C_7  and  C_8
REMARK    5  A    between atoms: C_8  and  C_9
REMARK    6  A    between atoms: C_9  and  C_10
REMARK    7  A    between atoms: C_10  and  C_11
REMARK    8  A    between atoms: C_11  and  C_12
REMARK    9  A    between atoms: C_12  and  C_13
REMARK   10  A    between atoms: C_13  and  C_14
REMARK   11  A    between atoms: C_14  and  C_15
REMARK   12  A    between atoms: C_15  and  C_16
REMARK   13  A    between atoms: C_16  and  C_17
REMARK   14  A    between atoms: C_17  and  C_18
REMARK   15  A    between atoms: C_17  and  O_19
REMARK   16  A    between atoms: C_17  and  C_20
REMARK                            x       y       z     vdW  Elec       q    Type
REMARK                         _______ _______ _______ _____ _____    ______ ____
ROOT
ATOM      1  C   LIG A   1      -9.944   1.574 123.564  0.00  0.00    +0.057 C 
ENDROOT
BRANCH   1   5
ATOM      2  O   LIG A   1      -5.469   3.296 124.634  0.00  0.00    -0.283 OA
ATOM      3  C   LIG A   1      -6.416   3.163 123.873  0.00  0.00    +0.231 A 
ATOM      4  C   LIG A   1      -7.709   2.480 124.268  0.00  0.00    +0.186 A 
ATOM      5  C   LIG A   1      -8.638   2.302 123.300  0.00  0.00    +0.062 A 
ATOM      6  N   LIG A   1      -8.468   2.731 121.997  0.00  0.00    -0.355 N 
ATOM      7  H   LIG A   1      -9.257   2.662 121.364  0.00  0.00    +0.166 HD
ATOM      8  C   LIG A   1      -7.350   3.461 121.594  0.00  0.00    +0.051 A 
ATOM      9  C   LIG A   1      -7.230   3.930 120.284  0.00  0.00    +0.026 A 
ATOM     10  C   LIG A   1      -6.086   4.626 119.885  0.00  0.00    +0.002 A 
ATOM     11  C   LIG A   1      -5.048   4.854 120.788  0.00  0.00    +0.001 A 
ATOM     12  C   LIG A   1      -5.154   4.384 122.096  0.00  0.00    +0.014 A 
ATOM     13  C   LIG A   1      -6.301   3.685 122.491  0.00  0.00    +0.049 A 
BRANCH   4  14
ATOM     14  O   LIG A   1      -7.938   2.024 125.563  0.00  0.00    -0.490 OA
ATOM     15  C   LIG A   1      -7.365   0.761 125.891  0.00  0.00    +0.277 C 
ENDBRANCH   4  14
ENDBRANCH   1   5
BRANCH   1  16
ATOM     16  C   LIG A   1     -10.216   0.463 122.543  0.00  0.00    +0.006 C 
BRANCH  16  17
ATOM     17  C   LIG A   1      -9.242  -0.715 122.672  0.00  0.00    +0.000 C 
BRANCH  17  18
ATOM     18  C   LIG A   1      -9.517  -1.590 123.898  0.00  0.00    +0.000 C 
BRANCH  18  19
ATOM     19  C   LIG A   1      -9.073  -3.033 123.665  0.00  0.00    -0.000 C 
BRANCH  19  20
ATOM     20  C   LIG A   1      -8.569  -3.685 124.956  0.00  0.00    -0.000 C 
BRANCH  20  21
ATOM     21  C   LIG A   1      -9.135  -3.032 126.220  0.00  0.00    -0.000 C 
BRANCH  21  22
ATOM     22  C   LIG A   1      -8.782  -3.781 127.510  0.00  0.00    +0.000 C 
BRANCH  22  23
ATOM     23  C   LIG A   1      -8.073  -2.859 128.506  0.00  0.00    +0.003 C 
BRANCH  23  24
ATOM     24  C   LIG A   1      -7.354  -3.651 129.610  0.00  0.00    +0.034 C 
BRANCH  24  25
ATOM     25  C   LIG A   1      -5.901  -3.192 129.872  0.00  0.00    +0.060 C 
ATOM     26  C   LIG A   1      -5.228  -2.657 128.603  0.00  0.00    +0.041 C 
ATOM     27  C   LIG A   1      -5.076  -4.349 130.440  0.00  0.00    +0.041 C 
BRANCH  25  28
ATOM     28  O   LIG A   1      -5.899  -2.170 130.871  0.00  0.00    -0.389 OA
ATOM     29  H   LIG A   1      -6.209  -2.555 131.709  0.00  0.00    +0.210 HD
ENDBRANCH  25  28
ENDBRANCH  24  25
ENDBRANCH  23  24
ENDBRANCH  22  23
ENDBRANCH  21  22
ENDBRANCH  20  21
ENDBRANCH  19  20
ENDBRANCH  18  19
ENDBRANCH  17  18
ENDBRANCH  16  17
ENDBRANCH   1  16
TORSDOF 13
ENDMDL
MODEL 2
REMARK VINA RESULT:      -7.0      5.827      7.928
REMARK  Name = NuBBE_1246
REMARK  16 active torsions:
REMARK  status: ('A' for Active; 'I' for Inactive)
REMARK    1  A    between atoms: C_3  and  O_4
REMARK    2  A    between atoms: O_4  and  C_5
REMARK    3  A    between atoms: C_6  and  C_7
REMARK    4  A    between atoms: C_7  and  C_8
REMARK    5  A    between atoms: C_8  and  C_9
REMARK    6  A    between atoms: C_9  and  C_10
REMARK    7  A    between atoms: C_10  and  C_11
REMARK    8  A    between atoms: C_11  and  C_12
REMARK    9  A    between atoms: C_12  and  C_13
REMARK   10  A    between atoms: C_13  and  C_14
REMARK   11  A    between atoms: C_14  and  C_15
REMARK   12  A    between atoms: C_15  and  C_16
REMARK   13  A    between atoms: C_16  and  C_17
REMARK   14  A    between atoms: C_17  and  C_18
REMARK   15  A    between atoms: C_17  and  O_19
REMARK   16  A    between atoms: C_17  and  C_20
REMARK                            x       y       z     vdW  Elec       q    Type
REMARK                         _______ _______ _______ _____ _____    ______ ____
ROOT
ATOM      1  C   LIG A   1      -9.312   3.218 132.020  0.00  0.00    +0.057 C 
ENDROOT
BRANCH   1   5
ATOM      2  O   LIG A   1      -9.353   5.972 127.952  0.00  0.00    -0.283 OA
ATOM      3  C   LIG A   1      -9.740   5.721 129.083  0.00  0.00    +0.231 A 
ATOM      4  C   LIG A   1      -9.168   4.599 129.926  0.00  0.00    +0.186 A 
ATOM      5  C   LIG A   1      -9.759   4.356 131.119  0.00  0.00    +0.062 A 
ATOM      6  N   LIG A   1     -10.826   5.090 131.602  0.00  0.00    -0.355 N 
ATOM      7  H   LIG A   1     -11.134   4.918 132.552  0.00  0.00    +0.166 HD
ATOM      8  C   LIG A   1     -11.329   6.202 130.927  0.00  0.00    +0.051 A 
ATOM      9  C   LIG A   1     -12.372   6.960 131.464  0.00  0.00    +0.026 A 
ATOM     10  C   LIG A   1     -12.892   8.048 130.758  0.00  0.00    +0.002 A 
ATOM     11  C   LIG A   1     -12.380   8.385 129.506  0.00  0.00    +0.001 A 
ATOM     12  C   LIG A   1     -11.343   7.632 128.956  0.00  0.00    +0.014 A 
ATOM     13  C   LIG A   1     -10.827   6.541 129.666  0.00  0.00    +0.049 A 
BRANCH   4  14
ATOM     14  O   LIG A   1      -8.097   3.823 129.494  0.00  0.00    -0.490 OA
ATOM     15  C   LIG A   1      -6.798   4.354 129.749  0.00  0.00    +0.277 C 
ENDBRANCH   4  14
ENDBRANCH   1   5
BRANCH   1  16
ATOM     16  C   LIG A   1     -10.088   1.921 131.758  0.00  0.00    +0.006 C 
BRANCH  16  17
ATOM     17  C   LIG A   1      -9.201   0.671 131.834  0.00  0.00    +0.000 C 
BRANCH  17  18
ATOM     18  C   LIG A   1      -8.410   0.417 130.547  0.00  0.00    +0.000 C 
BRANCH  18  19
ATOM     19  C   LIG A   1      -7.442  -0.753 130.710  0.00  0.00    -0.000 C 
BRANCH  19  20
ATOM     20  C   LIG A   1      -8.064  -2.070 130.235  0.00  0.00    -0.000 C 
BRANCH  20  21
ATOM     21  C   LIG A   1      -7.922  -2.293 128.727  0.00  0.00    -0.000 C 
BRANCH  21  22
ATOM     22  C   LIG A   1      -8.549  -3.604 128.237  0.00  0.00    +0.000 C 
BRANCH  22  23
ATOM     23  C   LIG A   1      -8.753  -3.584 126.720  0.00  0.00    +0.003 C 
BRANCH  23  24
ATOM     24  C   LIG A   1      -8.143  -2.330 126.074  0.00  0.00    +0.034 C 
BRANCH  24  25
ATOM     25  C   LIG A   1      -8.560  -2.112 124.602  0.00  0.00    +0.060 C 
ATOM     26  C   LIG A   1      -9.197  -3.366 123.991  0.00  0.00    +0.041 C 
ATOM     27  C   LIG A   1      -7.347  -1.696 123.766  0.00  0.00    +0.041 C 
BRANCH  25  28
ATOM     28  O   LIG A   1      -9.489  -1.029 124.527  0.00  0.00    -0.389 OA
ATOM     29  H   LIG A   1      -9.655  -0.826 123.591  0.00  0.00    +0.210 HD
ENDBRANCH  25  28
ENDBRANCH  24  25
ENDBRANCH  23  24
ENDBRANCH  22  23
ENDBRANCH  21  22
ENDBRANCH  20  21
ENDBRANCH  19  20
ENDBRANCH  18  19
ENDBRANCH  17  18
ENDBRANCH  16  17
ENDBRANCH   1  16
TORSDOF 13
ENDMDL
MODEL 3
REMARK VINA RESULT:      -6.9      8.514     10.444
REMARK  Name = NuBBE_1246
REMARK  16 active torsions:
REMARK  status: ('A' for Active; 'I' for Inactive)
REMARK    1  A    between atoms: C_3  and  O_4
REMARK    2  A    between atoms: O_4  and  C_5
REMARK    3  A    between atoms: C_6  and  C_7
REMARK    4  A    between atoms: C_7  and  C_8
REMARK    5  A    between atoms: C_8  and  C_9
REMARK    6  A    between atoms: C_9  and  C_10
REMARK    7  A    between atoms: C_10  and  C_11
REMARK    8  A    between atoms: C_11  and  C_12
REMARK    9  A    between atoms: C_12  and  C_13
REMARK   10  A    between atoms: C_13  and  C_14
REMARK   11  A    between atoms: C_14  and  C_15
REMARK   12  A    between atoms: C_15  and  C_16
REMARK   13  A    between atoms: C_16  and  C_17
REMARK   14  A    between atoms: C_17  and  C_18
REMARK   15  A    between atoms: C_17  and  O_19
REMARK   16  A    between atoms: C_17  and  C_20
REMARK                            x       y       z     vdW  Elec       q    Type
REMARK                         _______ _______ _______ _____ _____    ______ ____
ROOT
ATOM      1  C   LIG A   1      -7.192   6.464 131.504  0.00  0.00    +0.057 C 
ENDROOT
BRANCH   1   5
ATOM      2  O   LIG A   1     -12.028   6.237 132.338  0.00  0.00    -0.283 OA
ATOM      3  C   LIG A   1     -11.072   6.508 131.628  0.00  0.00    +0.231 A 
ATOM      4  C   LIG A   1      -9.638   6.205 132.014  0.00  0.00    +0.186 A 
ATOM      5  C   LIG A   1      -8.665   6.654 131.187  0.00  0.00    +0.062 A 
ATOM      6  N   LIG A   1      -8.921   7.343 130.016  0.00  0.00    -0.355 N 
ATOM      7  H   LIG A   1      -8.142   7.542 129.399  0.00  0.00    +0.166 HD
ATOM      8  C   LIG A   1     -10.217   7.560 129.549  0.00  0.00    +0.051 A 
ATOM      9  C   LIG A   1     -10.446   8.210 128.335  0.00  0.00    +0.026 A 
ATOM     10  C   LIG A   1     -11.750   8.456 127.899  0.00  0.00    +0.002 A 
ATOM     11  C   LIG A   1     -12.839   8.059 128.675  0.00  0.00    +0.001 A 
ATOM     12  C   LIG A   1     -12.623   7.414 129.892  0.00  0.00    +0.014 A 
ATOM     13  C   LIG A   1     -11.314   7.173 130.326  0.00  0.00    +0.049 A 
BRANCH   4  14
ATOM     14  O   LIG A   1      -9.318   5.517 133.180  0.00  0.00    -0.490 OA
ATOM     15  C   LIG A   1      -9.431   4.097 133.119  0.00  0.00    +0.277 C 
ENDBRANCH   4  14
ENDBRANCH   1   5
BRANCH   1  16
ATOM     16  C   LIG A   1      -6.686   5.064 131.136  0.00  0.00    +0.006 C 
BRANCH  16  17
ATOM     17  C   LIG A   1      -5.850   5.052 129.850  0.00  0.00    +0.000 C 
BRANCH  17  18
ATOM     18  C   LIG A   1      -4.617   4.148 129.944  0.00  0.00    +0.000 C 
BRANCH  18  19
ATOM     19  C   LIG A   1      -3.430   4.744 129.190  0.00  0.00    -0.000 C 
BRANCH  19  20
ATOM     20  C   LIG A   1      -3.720   6.172 128.719  0.00  0.00    -0.000 C 
BRANCH  20  21
ATOM     21  C   LIG A   1      -2.966   7.236 129.522  0.00  0.00    -0.000 C 
BRANCH  21  22
ATOM     22  C   LIG A   1      -3.802   7.870 130.640  0.00  0.00    +0.000 C 
BRANCH  22  23
ATOM     23  C   LIG A   1      -2.976   8.035 131.919  0.00  0.00    +0.003 C 
BRANCH  23  24
ATOM     24  C   LIG A   1      -3.050   6.789 132.815  0.00  0.00    +0.034 C 
BRANCH  24  25
ATOM     25  C   LIG A   1      -1.686   6.102 133.055  0.00  0.00    +0.060 C 
ATOM     26  C   LIG A   1      -0.533   6.863 132.392  0.00  0.00    +0.041 C 
ATOM     27  C   LIG A   1      -1.719   4.664 132.531  0.00  0.00    +0.041 C 
BRANCH  25  28
ATOM     28  O   LIG A   1      -1.443   6.010 134.461  0.00  0.00    -0.389 OA
ATOM     29  H   LIG A   1      -1.823   6.793 134.894  0.00  0.00    +0.210 HD
ENDBRANCH  25  28
ENDBRANCH  24  25
ENDBRANCH  23  24
ENDBRANCH  22  23
ENDBRANCH  21  22
ENDBRANCH  20  21
ENDBRANCH  19  20
ENDBRANCH  18  19
ENDBRANCH  17  18
ENDBRANCH  16  17
ENDBRANCH   1  16
TORSDOF 13
ENDMDL
MODEL 4
REMARK VINA RESULT:      -6.8      2.916      4.127
REMARK  Name = NuBBE_1246
REMARK  16 active torsions:
REMARK  status: ('A' for Active; 'I' for Inactive)
REMARK    1  A    between atoms: C_3  and  O_4
REMARK    2  A    between atoms: O_4  and  C_5
REMARK    3  A    between atoms: C_6  and  C_7
REMARK    4  A    between atoms: C_7  and  C_8
REMARK    5  A    between atoms: C_8  and  C_9
REMARK    6  A    between atoms: C_9  and  C_10
REMARK    7  A    between atoms: C_10  and  C_11
REMARK    8  A    between atoms: C_11  and  C_12
REMARK    9  A    between atoms: C_12  and  C_13
REMARK   10  A    between atoms: C_13  and  C_14
REMARK   11  A    between atoms: C_14  and  C_15
REMARK   12  A    between atoms: C_15  and  C_16
REMARK   13  A    between atoms: C_16  and  C_17
REMARK   14  A    between atoms: C_17  and  C_18
REMARK   15  A    between atoms: C_17  and  O_19
REMARK   16  A    between atoms: C_17  and  C_20
REMARK                            x       y       z     vdW  Elec       q    Type
REMARK                         _______ _______ _______ _____ _____    ______ ____
ROOT
ATOM      1  C   LIG A   1      -6.520   0.045 125.327  0.00  0.00    +0.057 C 
ENDROOT
BRANCH   1   5
ATOM      2  O   LIG A   1      -7.032   4.620 127.040  0.00  0.00    -0.283 OA
ATOM      3  C   LIG A   1      -6.343   3.668 126.710  0.00  0.00    +0.231 A 
ATOM      4  C   LIG A   1      -6.911   2.404 126.097  0.00  0.00    +0.186 A 
ATOM      5  C   LIG A   1      -6.053   1.381 125.877  0.00  0.00    +0.062 A 
ATOM      6  N   LIG A   1      -4.701   1.449 126.160  0.00  0.00    -0.355 N 
ATOM      7  H   LIG A   1      -4.111   0.683 125.859  0.00  0.00    +0.166 HD
ATOM      8  C   LIG A   1      -4.096   2.617 126.623  0.00  0.00    +0.051 A 
ATOM      9  C   LIG A   1      -2.719   2.675 126.849  0.00  0.00    +0.026 A 
ATOM     10  C   LIG A   1      -2.133   3.840 127.350  0.00  0.00    +0.002 A 
ATOM     11  C   LIG A   1      -2.918   4.957 127.636  0.00  0.00    +0.001 A 
ATOM     12  C   LIG A   1      -4.295   4.908 127.422  0.00  0.00    +0.014 A 
ATOM     13  C   LIG A   1      -4.877   3.738 126.922  0.00  0.00    +0.049 A 
BRANCH   4  14
ATOM     14  O   LIG A   1      -8.262   2.275 125.792  0.00  0.00    -0.490 OA
ATOM     15  C   LIG A   1      -8.697   2.919 124.597  0.00  0.00    +0.277 C 
ENDBRANCH   4  14
ENDBRANCH   1   5
BRANCH   1  16
ATOM     16  C   LIG A   1      -5.448  -1.046 125.442  0.00  0.00    +0.006 C 
BRANCH  16  17
ATOM     17  C   LIG A   1      -5.377  -1.943 124.199  0.00  0.00    +0.000 C 
BRANCH  17  18
ATOM     18  C   LIG A   1      -6.085  -3.288 124.387  0.00  0.00    +0.000 C 
BRANCH  18  19
ATOM     19  C   LIG A   1      -7.590  -3.163 124.157  0.00  0.00    -0.000 C 
BRANCH  19  20
ATOM     20  C   LIG A   1      -8.389  -3.925 125.217  0.00  0.00    -0.000 C 
BRANCH  20  21
ATOM     21  C   LIG A   1      -8.745  -3.067 126.435  0.00  0.00    -0.000 C 
BRANCH  21  22
ATOM     22  C   LIG A   1      -8.941  -3.876 127.722  0.00  0.00    +0.000 C 
BRANCH  22  23
ATOM     23  C   LIG A   1      -8.229  -3.211 128.904  0.00  0.00    +0.003 C 
BRANCH  23  24
ATOM     24  C   LIG A   1      -7.420  -1.980 128.469  0.00  0.00    +0.034 C 
BRANCH  24  25
ATOM     25  C   LIG A   1      -6.081  -1.806 129.221  0.00  0.00    +0.060 C 
ATOM     26  C   LIG A   1      -5.583  -0.357 129.184  0.00  0.00    +0.041 C 
ATOM     27  C   LIG A   1      -5.015  -2.729 128.625  0.00  0.00    +0.041 C 
BRANCH  25  28
ATOM     28  O   LIG A   1      -6.245  -2.211 130.582  0.00  0.00    -0.389 OA
ATOM     29  H   LIG A   1      -6.645  -3.098 130.596  0.00  0.00    +0.210 HD
ENDBRANCH  25  28
ENDBRANCH  24  25
ENDBRANCH  23  24
ENDBRANCH  22  23
ENDBRANCH  21  22
ENDBRANCH  20  21
ENDBRANCH  19  20
ENDBRANCH  18  19
ENDBRANCH  17  18
ENDBRANCH  16  17
ENDBRANCH   1  16
TORSDOF 13
ENDMDL
MODEL 5
REMARK VINA RESULT:      -6.8      1.637      2.435
REMARK  Name = NuBBE_1246
REMARK  16 active torsions:
REMARK  status: ('A' for Active; 'I' for Inactive)
REMARK    1  A    between atoms: C_3  and  O_4
REMARK    2  A    between atoms: O_4  and  C_5
REMARK    3  A    between atoms: C_6  and  C_7
REMARK    4  A    between atoms: C_7  and  C_8
REMARK    5  A    between atoms: C_8  and  C_9
REMARK    6  A    between atoms: C_9  and  C_10
REMARK    7  A    between atoms: C_10  and  C_11
REMARK    8  A    between atoms: C_11  and  C_12
REMARK    9  A    between atoms: C_12  and  C_13
REMARK   10  A    between atoms: C_13  and  C_14
REMARK   11  A    between atoms: C_14  and  C_15
REMARK   12  A    between atoms: C_15  and  C_16
REMARK   13  A    between atoms: C_16  and  C_17
REMARK   14  A    between atoms: C_17  and  C_18
REMARK   15  A    between atoms: C_17  and  O_19
REMARK   16  A    between atoms: C_17  and  C_20
REMARK                            x       y       z     vdW  Elec       q    Type
REMARK                         _______ _______ _______ _____ _____    ______ ____
ROOT
ATOM      1  C   LIG A   1      -8.581   2.589 124.633  0.00  0.00    +0.057 C 
ENDROOT
BRANCH   1   5
ATOM      2  O   LIG A   1      -4.801   3.964 121.812  0.00  0.00    -0.283 OA
ATOM      3  C   LIG A   1      -5.995   3.784 121.995  0.00  0.00    +0.231 A 
ATOM      4  C   LIG A   1      -6.576   3.356 123.328  0.00  0.00    +0.186 A 
ATOM      5  C   LIG A   1      -7.901   3.086 123.369  0.00  0.00    +0.062 A 
ATOM      6  N   LIG A   1      -8.735   3.206 122.273  0.00  0.00    -0.355 N 
ATOM      7  H   LIG A   1      -9.732   3.096 122.417  0.00  0.00    +0.166 HD
ATOM      8  C   LIG A   1      -8.287   3.697 121.047  0.00  0.00    +0.051 A 
ATOM      9  C   LIG A   1      -9.163   3.860 119.972  0.00  0.00    +0.026 A 
ATOM     10  C   LIG A   1      -8.691   4.317 118.739  0.00  0.00    +0.002 A 
ATOM     11  C   LIG A   1      -7.339   4.609 118.566  0.00  0.00    +0.001 A 
ATOM     12  C   LIG A   1      -6.453   4.444 119.630  0.00  0.00    +0.014 A 
ATOM     13  C   LIG A   1      -6.930   3.984 120.863  0.00  0.00    +0.049 A 
BRANCH   4  14
ATOM     14  O   LIG A   1      -5.787   3.216 124.465  0.00  0.00    -0.490 OA
ATOM     15  C   LIG A   1      -5.506   4.416 125.182  0.00  0.00    +0.277 C 
ENDBRANCH   4  14
ENDBRANCH   1   5
BRANCH   1  16
ATOM     16  C   LIG A   1      -8.849   1.079 124.602  0.00  0.00    +0.006 C 
BRANCH  16  17
ATOM     17  C   LIG A   1      -9.350   0.536 125.946  0.00  0.00    +0.000 C 
BRANCH  17  18
ATOM     18  C   LIG A   1      -8.339  -0.384 126.637  0.00  0.00    +0.000 C 
BRANCH  18  19
ATOM     19  C   LIG A   1      -8.021  -1.607 125.779  0.00  0.00    -0.000 C 
BRANCH  19  20
ATOM     20  C   LIG A   1      -7.617  -2.809 126.637  0.00  0.00    -0.000 C 
BRANCH  20  21
ATOM     21  C   LIG A   1      -8.697  -3.222 127.642  0.00  0.00    -0.000 C 
BRANCH  21  22
ATOM     22  C   LIG A   1      -8.244  -3.133 129.103  0.00  0.00    +0.000 C 
BRANCH  22  23
ATOM     23  C   LIG A   1      -6.764  -3.499 129.244  0.00  0.00    +0.003 C 
BRANCH  23  24
ATOM     24  C   LIG A   1      -5.981  -2.436 130.031  0.00  0.00    +0.034 C 
BRANCH  24  25
ATOM     25  C   LIG A   1      -4.590  -2.111 129.441  0.00  0.00    +0.060 C 
ATOM     26  C   LIG A   1      -3.759  -3.375 129.193  0.00  0.00    +0.041 C 
ATOM     27  C   LIG A   1      -3.825  -1.171 130.377  0.00  0.00    +0.041 C 
BRANCH  25  28
ATOM     28  O   LIG A   1      -4.750  -1.405 128.208  0.00  0.00    -0.389 OA
ATOM     29  H   LIG A   1      -5.475  -1.816 127.707  0.00  0.00    +0.210 HD
ENDBRANCH  25  28
ENDBRANCH  24  25
ENDBRANCH  23  24
ENDBRANCH  22  23
ENDBRANCH  21  22
ENDBRANCH  20  21
ENDBRANCH  19  20
ENDBRANCH  18  19
ENDBRANCH  17  18
ENDBRANCH  16  17
ENDBRANCH   1  16
TORSDOF 13
ENDMDL
MODEL 6
REMARK VINA RESULT:      -6.8      7.633     10.192
REMARK  Name = NuBBE_1246
REMARK  16 active torsions:
REMARK  status: ('A' for Active; 'I' for Inactive)
REMARK    1  A    between atoms: C_3  and  O_4
REMARK    2  A    between atoms: O_4  and  C_5
REMARK    3  A    between atoms: C_6  and  C_7
REMARK    4  A    between atoms: C_7  and  C_8
REMARK    5  A    between atoms: C_8  and  C_9
REMARK    6  A    between atoms: C_9  and  C_10
REMARK    7  A    between atoms: C_10  and  C_11
REMARK    8  A    between atoms: C_11  and  C_12
REMARK    9  A    between atoms: C_12  and  C_13
REMARK   10  A    between atoms: C_13  and  C_14
REMARK   11  A    between atoms: C_14  and  C_15
REMARK   12  A    between atoms: C_15  and  C_16
REMARK   13  A    between atoms: C_16  and  C_17
REMARK   14  A    between atoms: C_17  and  C_18
REMARK   15  A    between atoms: C_17  and  O_19
REMARK   16  A    between atoms: C_17  and  C_20
REMARK                            x       y       z     vdW  Elec       q    Type
REMARK                         _______ _______ _______ _____ _____    ______ ____
ROOT
ATOM      1  C   LIG A   1      -9.301   3.502 132.288  0.00  0.00    +0.057 C 
ENDROOT
BRANCH   1   5
ATOM      2  O   LIG A   1      -9.353   6.046 128.086  0.00  0.00    -0.283 OA
ATOM      3  C   LIG A   1      -9.742   5.848 129.227  0.00  0.00    +0.231 A 
ATOM      4  C   LIG A   1      -9.162   4.776 130.127  0.00  0.00    +0.186 A 
ATOM      5  C   LIG A   1      -9.755   4.588 131.329  0.00  0.00    +0.062 A 
ATOM      6  N   LIG A   1     -10.832   5.335 131.770  0.00  0.00    -0.355 N 
ATOM      7  H   LIG A   1     -11.142   5.208 132.726  0.00  0.00    +0.166 HD
ATOM      8  C   LIG A   1     -11.344   6.406 131.037  0.00  0.00    +0.051 A 
ATOM      9  C   LIG A   1     -12.397   7.179 131.532  0.00  0.00    +0.026 A 
ATOM     10  C   LIG A   1     -12.925   8.223 130.769  0.00  0.00    +0.002 A 
ATOM     11  C   LIG A   1     -12.411   8.502 129.503  0.00  0.00    +0.001 A 
ATOM     12  C   LIG A   1     -11.364   7.733 128.997  0.00  0.00    +0.014 A 
ATOM     13  C   LIG A   1     -10.841   6.685 129.763  0.00  0.00    +0.049 A 
BRANCH   4  14
ATOM     14  O   LIG A   1      -8.081   3.991 129.739  0.00  0.00    -0.490 OA
ATOM     15  C   LIG A   1      -8.391   2.855 128.935  0.00  0.00    +0.277 C 
ENDBRANCH   4  14
ENDBRANCH   1   5
BRANCH   1  16
ATOM     16  C   LIG A   1      -9.375   3.942 133.755  0.00  0.00    +0.006 C 
BRANCH  16  17
ATOM     17  C   LIG A   1      -8.017   3.882 134.465  0.00  0.00    +0.000 C 
BRANCH  17  18
ATOM     18  C   LIG A   1      -6.831   3.951 133.498  0.00  0.00    +0.000 C 
BRANCH  18  19
ATOM     19  C   LIG A   1      -5.667   4.737 134.100  0.00  0.00    -0.000 C 
BRANCH  19  20
ATOM     20  C   LIG A   1      -5.338   5.981 133.270  0.00  0.00    -0.000 C 
BRANCH  20  21
ATOM     21  C   LIG A   1      -6.338   6.231 132.137  0.00  0.00    -0.000 C 
BRANCH  21  22
ATOM     22  C   LIG A   1      -5.701   6.821 130.874  0.00  0.00    +0.000 C 
BRANCH  22  23
ATOM     23  C   LIG A   1      -5.223   5.715 129.930  0.00  0.00    +0.003 C 
BRANCH  23  24
ATOM     24  C   LIG A   1      -3.696   5.729 129.755  0.00  0.00    +0.034 C 
BRANCH  24  25
ATOM     25  C   LIG A   1      -3.230   5.835 128.285  0.00  0.00    +0.060 C 
ATOM     26  C   LIG A   1      -2.581   4.538 127.790  0.00  0.00    +0.041 C 
ATOM     27  C   LIG A   1      -2.242   6.994 128.126  0.00  0.00    +0.041 C 
BRANCH  25  28
ATOM     28  O   LIG A   1      -4.350   6.148 127.453  0.00  0.00    -0.389 OA
ATOM     29  H   LIG A   1      -5.166   5.959 127.947  0.00  0.00    +0.210 HD
ENDBRANCH  25  28
ENDBRANCH  24  25
ENDBRANCH  23  24
ENDBRANCH  22  23
ENDBRANCH  21  22
ENDBRANCH  20  21
ENDBRANCH  19  20
ENDBRANCH  18  19
ENDBRANCH  17  18
ENDBRANCH  16  17
ENDBRANCH   1  16
TORSDOF 13
ENDMDL
MODEL 7
REMARK VINA RESULT:      -6.8      3.290      8.947
REMARK  Name = NuBBE_1246
REMARK  16 active torsions:
REMARK  status: ('A' for Active; 'I' for Inactive)
REMARK    1  A    between atoms: C_3  and  O_4
REMARK    2  A    between atoms: O_4  and  C_5
REMARK    3  A    between atoms: C_6  and  C_7
REMARK    4  A    between atoms: C_7  and  C_8
REMARK    5  A    between atoms: C_8  and  C_9
REMARK    6  A    between atoms: C_9  and  C_10
REMARK    7  A    between atoms: C_10  and  C_11
REMARK    8  A    between atoms: C_11  and  C_12
REMARK    9  A    between atoms: C_12  and  C_13
REMARK   10  A    between atoms: C_13  and  C_14
REMARK   11  A    between atoms: C_14  and  C_15
REMARK   12  A    between atoms: C_15  and  C_16
REMARK   13  A    between atoms: C_16  and  C_17
REMARK   14  A    between atoms: C_17  and  C_18
REMARK   15  A    between atoms: C_17  and  O_19
REMARK   16  A    between atoms: C_17  and  C_20
REMARK                            x       y       z     vdW  Elec       q    Type
REMARK                         _______ _______ _______ _____ _____    ______ ____
ROOT
ATOM      1  C   LIG A   1      -7.840  -1.963 128.167  0.00  0.00    +0.057 C 
ENDROOT
BRANCH   1   5
ATOM      2  O   LIG A   1      -7.809  -1.243 133.026  0.00  0.00    -0.283 OA
ATOM      3  C   LIG A   1      -7.455  -1.852 132.028  0.00  0.00    +0.231 A 
ATOM      4  C   LIG A   1      -7.829  -1.430 130.622  0.00  0.00    +0.186 A 
ATOM      5  C   LIG A   1      -7.465  -2.251 129.610  0.00  0.00    +0.062 A 
ATOM      6  N   LIG A   1      -6.758  -3.424 129.800  0.00  0.00    -0.355 N 
ATOM      7  H   LIG A   1      -6.426  -3.920 128.982  0.00  0.00    +0.166 HD
ATOM      8  C   LIG A   1      -6.290  -3.815 131.055  0.00  0.00    +0.051 A 
ATOM      9  C   LIG A   1      -5.531  -4.976 131.211  0.00  0.00    +0.026 A 
ATOM     10  C   LIG A   1      -5.103  -5.376 132.479  0.00  0.00    +0.002 A 
ATOM     11  C   LIG A   1      -5.434  -4.623 133.605  0.00  0.00    +0.001 A 
ATOM     12  C   LIG A   1      -6.197  -3.464 133.462  0.00  0.00    +0.014 A 
ATOM     13  C   LIG A   1      -6.626  -3.070 132.190  0.00  0.00    +0.049 A 
BRANCH   4  14
ATOM     14  O   LIG A   1      -8.541  -0.262 130.367  0.00  0.00    -0.490 OA
ATOM     15  C   LIG A   1      -7.781   0.944 130.363  0.00  0.00    +0.277 C 
ENDBRANCH   4  14
ENDBRANCH   1   5
BRANCH   1  16
ATOM     16  C   LIG A   1      -8.521  -3.156 127.486  0.00  0.00    +0.006 C 
BRANCH  16  17
ATOM     17  C   LIG A   1      -9.076  -2.812 126.098  0.00  0.00    +0.000 C 
BRANCH  17  18
ATOM     18  C   LIG A   1      -8.513  -3.703 124.987  0.00  0.00    +0.000 C 
BRANCH  18  19
ATOM     19  C   LIG A   1      -8.191  -2.894 123.732  0.00  0.00    -0.000 C 
BRANCH  19  20
ATOM     20  C   LIG A   1      -6.700  -2.560 123.643  0.00  0.00    -0.000 C 
BRANCH  20  21
ATOM     21  C   LIG A   1      -6.415  -1.056 123.702  0.00  0.00    -0.000 C 
BRANCH  21  22
ATOM     22  C   LIG A   1      -6.169  -0.532 125.122  0.00  0.00    +0.000 C 
BRANCH  22  23
ATOM     23  C   LIG A   1      -6.870   0.812 125.342  0.00  0.00    +0.003 C 
BRANCH  23  24
ATOM     24  C   LIG A   1      -7.725   1.219 124.132  0.00  0.00    +0.034 C 
BRANCH  24  25
ATOM     25  C   LIG A   1      -9.202   1.519 124.475  0.00  0.00    +0.060 C 
ATOM     26  C   LIG A   1      -9.672   0.755 125.718  0.00  0.00    +0.041 C 
ATOM     27  C   LIG A   1     -10.103   1.169 123.288  0.00  0.00    +0.041 C 
BRANCH  25  28
ATOM     28  O   LIG A   1      -9.361   2.922 124.697  0.00  0.00    -0.389 OA
ATOM     29  H   LIG A   1      -9.469   3.075 125.651  0.00  0.00    +0.210 HD
ENDBRANCH  25  28
ENDBRANCH  24  25
ENDBRANCH  23  24
ENDBRANCH  22  23
ENDBRANCH  21  22
ENDBRANCH  20  21
ENDBRANCH  19  20
ENDBRANCH  18  19
ENDBRANCH  17  18
ENDBRANCH  16  17
ENDBRANCH   1  16
TORSDOF 13
ENDMDL
MODEL 8
REMARK VINA RESULT:      -6.7      5.897      7.960
REMARK  Name = NuBBE_1246
REMARK  16 active torsions:
REMARK  status: ('A' for Active; 'I' for Inactive)
REMARK    1  A    between atoms: C_3  and  O_4
REMARK    2  A    between atoms: O_4  and  C_5
REMARK    3  A    between atoms: C_6  and  C_7
REMARK    4  A    between atoms: C_7  and  C_8
REMARK    5  A    between atoms: C_8  and  C_9
REMARK    6  A    between atoms: C_9  and  C_10
REMARK    7  A    between atoms: C_10  and  C_11
REMARK    8  A    between atoms: C_11  and  C_12
REMARK    9  A    between atoms: C_12  and  C_13
REMARK   10  A    between atoms: C_13  and  C_14
REMARK   11  A    between atoms: C_14  and  C_15
REMARK   12  A    between atoms: C_15  and  C_16
REMARK   13  A    between atoms: C_16  and  C_17
REMARK   14  A    between atoms: C_17  and  C_18
REMARK   15  A    between atoms: C_17  and  O_19
REMARK   16  A    between atoms: C_17  and  C_20
REMARK                            x       y       z     vdW  Elec       q    Type
REMARK                         _______ _______ _______ _____ _____    ______ ____
ROOT
ATOM      1  C   LIG A   1      -5.852   3.901 126.639  0.00  0.00    +0.057 C 
ENDROOT
BRANCH   1   5
ATOM      2  O   LIG A   1      -9.179   2.857 123.178  0.00  0.00    -0.283 OA
ATOM      3  C   LIG A   1      -8.058   3.199 123.523  0.00  0.00    +0.231 A 
ATOM      4  C   LIG A   1      -7.612   3.246 124.970  0.00  0.00    +0.186 A 
ATOM      5  C   LIG A   1      -6.380   3.747 125.224  0.00  0.00    +0.062 A 
ATOM      6  N   LIG A   1      -5.520   4.185 124.235  0.00  0.00    -0.355 N 
ATOM      7  H   LIG A   1      -4.575   4.437 124.500  0.00  0.00    +0.166 HD
ATOM      8  C   LIG A   1      -5.825   4.069 122.879  0.00  0.00    +0.051 A 
ATOM      9  C   LIG A   1      -4.914   4.468 121.898  0.00  0.00    +0.026 A 
ATOM     10  C   LIG A   1      -5.249   4.383 120.545  0.00  0.00    +0.002 A 
ATOM     11  C   LIG A   1      -6.499   3.902 120.157  0.00  0.00    +0.001 A 
ATOM     12  C   LIG A   1      -7.419   3.506 121.127  0.00  0.00    +0.014 A 
ATOM     13  C   LIG A   1      -7.080   3.597 122.482  0.00  0.00    +0.049 A 
BRANCH   4  14
ATOM     14  O   LIG A   1      -8.433   2.821 126.009  0.00  0.00    -0.490 OA
ATOM     15  C   LIG A   1      -8.510   1.412 126.208  0.00  0.00    +0.277 C 
ENDBRANCH   4  14
ENDBRANCH   1   5
BRANCH   1  16
ATOM     16  C   LIG A   1      -4.422   4.454 126.677  0.00  0.00    +0.006 C 
BRANCH  16  17
ATOM     17  C   LIG A   1      -3.993   4.897 128.081  0.00  0.00    +0.000 C 
BRANCH  17  18
ATOM     18  C   LIG A   1      -2.496   5.205 128.182  0.00  0.00    +0.000 C 
BRANCH  18  19
ATOM     19  C   LIG A   1      -2.250   6.670 128.537  0.00  0.00    -0.000 C 
BRANCH  19  20
ATOM     20  C   LIG A   1      -3.559   7.461 128.604  0.00  0.00    -0.000 C 
BRANCH  20  21
ATOM     21  C   LIG A   1      -3.874   7.987 130.008  0.00  0.00    -0.000 C 
BRANCH  21  22
ATOM     22  C   LIG A   1      -4.996   7.218 130.715  0.00  0.00    +0.000 C 
BRANCH  22  23
ATOM     23  C   LIG A   1      -4.533   6.699 132.079  0.00  0.00    +0.003 C 
BRANCH  23  24
ATOM     24  C   LIG A   1      -3.277   5.821 131.963  0.00  0.00    +0.034 C 
BRANCH  24  25
ATOM     25  C   LIG A   1      -2.080   6.316 132.808  0.00  0.00    +0.060 C 
ATOM     26  C   LIG A   1      -2.388   7.634 133.527  0.00  0.00    +0.041 C 
ATOM     27  C   LIG A   1      -0.845   6.494 131.921  0.00  0.00    +0.041 C 
BRANCH  25  28
ATOM     28  O   LIG A   1      -1.738   5.321 133.775  0.00  0.00    -0.389 OA
ATOM     29  H   LIG A   1      -1.635   5.752 134.641  0.00  0.00    +0.210 HD
ENDBRANCH  25  28
ENDBRANCH  24  25
ENDBRANCH  23  24
ENDBRANCH  22  23
ENDBRANCH  21  22
ENDBRANCH  20  21
ENDBRANCH  19  20
ENDBRANCH  18  19
ENDBRANCH  17  18
ENDBRANCH  16  17
ENDBRANCH   1  16
TORSDOF 13
ENDMDL
MODEL 9
REMARK VINA RESULT:      -6.7      2.975      6.149
REMARK  Name = NuBBE_1246
REMARK  16 active torsions:
REMARK  status: ('A' for Active; 'I' for Inactive)
REMARK    1  A    between atoms: C_3  and  O_4
REMARK    2  A    between atoms: O_4  and  C_5
REMARK    3  A    between atoms: C_6  and  C_7
REMARK    4  A    between atoms: C_7  and  C_8
REMARK    5  A    between atoms: C_8  and  C_9
REMARK    6  A    between atoms: C_9  and  C_10
REMARK    7  A    between atoms: C_10  and  C_11
REMARK    8  A    between atoms: C_11  and  C_12
REMARK    9  A    between atoms: C_12  and  C_13
REMARK   10  A    between atoms: C_13  and  C_14
REMARK   11  A    between atoms: C_14  and  C_15
REMARK   12  A    between atoms: C_15  and  C_16
REMARK   13  A    between atoms: C_16  and  C_17
REMARK   14  A    between atoms: C_17  and  C_18
REMARK   15  A    between atoms: C_17  and  O_19
REMARK   16  A    between atoms: C_17  and  C_20
REMARK                            x       y       z     vdW  Elec       q    Type
REMARK                         _______ _______ _______ _____ _____    ______ ____
ROOT
ATOM      1  C   LIG A   1      -6.007  -1.761 127.158  0.00  0.00    +0.057 C 
ENDROOT
BRANCH   1   5
ATOM      2  O   LIG A   1      -4.231   1.206 130.647  0.00  0.00    -0.283 OA
ATOM      3  C   LIG A   1      -4.556   0.981 129.492  0.00  0.00    +0.231 A 
ATOM      4  C   LIG A   1      -5.208  -0.314 129.050  0.00  0.00    +0.186 A 
ATOM      5  C   LIG A   1      -5.419  -0.480 127.723  0.00  0.00    +0.062 A 
ATOM      6  N   LIG A   1      -5.094   0.473 126.776  0.00  0.00    -0.355 N 
ATOM      7  H   LIG A   1      -5.391   0.318 125.820  0.00  0.00    +0.166 HD
ATOM      8  C   LIG A   1      -4.593   1.727 127.126  0.00  0.00    +0.051 A 
ATOM      9  C   LIG A   1      -4.325   2.692 126.153  0.00  0.00    +0.026 A 
ATOM     10  C   LIG A   1      -3.786   3.930 126.514  0.00  0.00    +0.002 A 
ATOM     11  C   LIG A   1      -3.504   4.212 127.850  0.00  0.00    +0.001 A 
ATOM     12  C   LIG A   1      -3.761   3.254 128.829  0.00  0.00    +0.014 A 
ATOM     13  C   LIG A   1      -4.298   2.015 128.462  0.00  0.00    +0.049 A 
BRANCH   4  14
ATOM     14  O   LIG A   1      -5.556  -1.311 129.955  0.00  0.00    -0.490 OA
ATOM     15  C   LIG A   1      -6.815  -1.154 130.604  0.00  0.00    +0.277 C 
ENDBRANCH   4  14
ENDBRANCH   1   5
BRANCH   1  16
ATOM     16  C   LIG A   1      -7.518  -1.661 126.921  0.00  0.00    +0.006 C 
BRANCH  16  17
ATOM     17  C   LIG A   1      -8.128  -2.971 126.407  0.00  0.00    +0.000 C 
BRANCH  17  18
ATOM     18  C   LIG A   1      -9.344  -2.754 125.501  0.00  0.00    +0.000 C 
BRANCH  18  19
ATOM     19  C   LIG A   1      -9.093  -3.288 124.092  0.00  0.00    -0.000 C 
BRANCH  19  20
ATOM     20  C   LIG A   1      -8.757  -2.161 123.112  0.00  0.00    -0.000 C 
BRANCH  20  21
ATOM     21  C   LIG A   1      -7.251  -1.943 122.938  0.00  0.00    -0.000 C 
BRANCH  21  22
ATOM     22  C   LIG A   1      -6.729  -0.675 123.623  0.00  0.00    +0.000 C 
BRANCH  22  23
ATOM     23  C   LIG A   1      -7.670   0.509 123.381  0.00  0.00    +0.003 C 
BRANCH  23  24
ATOM     24  C   LIG A   1      -7.422   1.653 124.376  0.00  0.00    +0.034 C 
BRANCH  24  25
ATOM     25  C   LIG A   1      -8.637   1.986 125.271  0.00  0.00    +0.060 C 
ATOM     26  C   LIG A   1      -8.274   1.987 126.760  0.00  0.00    +0.041 C 
ATOM     27  C   LIG A   1      -9.768   0.985 125.021  0.00  0.00    +0.041 C 
BRANCH  25  28
ATOM     28  O   LIG A   1      -9.153   3.270 124.912  0.00  0.00    -0.389 OA
ATOM     29  H   LIG A   1     -10.002   3.147 124.456  0.00  0.00    +0.210 HD
ENDBRANCH  25  28
ENDBRANCH  24  25
ENDBRANCH  23  24
ENDBRANCH  22  23
ENDBRANCH  21  22
ENDBRANCH  20  21
ENDBRANCH  19  20
ENDBRANCH  18  19
ENDBRANCH  17  18
ENDBRANCH  16  17
ENDBRANCH   1  16
TORSDOF 13
ENDMDL
