MODEL 1
REMARK VINA RESULT:      -6.8      0.000      0.000
REMARK  Name = NuBBE_1023
REMARK  9 active torsions:
REMARK  status: ('A' for Active; 'I' for Inactive)
REMARK    1  A    between atoms: C_1  and  C_2
REMARK    2  A    between atoms: C_2  and  C_3
REMARK    3  A    between atoms: C_7  and  O_8
REMARK    4  A    between atoms: O_8  and  C_9
REMARK    5  A    between atoms: C_10  and  C_11
REMARK    6  A    between atoms: C_11  and  C_12
REMARK    7  A    between atoms: C_12  and  C_13
REMARK    8  A    between atoms: C_13  and  O_14
REMARK    9  A    between atoms: O_14  and  C_15
REMARK                            x       y       z     vdW  Elec       q    Type
REMARK                         _______ _______ _______ _____ _____    ______ ____
ROOT
ATOM      1  C   LIG A   1     -13.175   9.592 128.778  0.00  0.00    +0.060 C 
ATOM      2  C   LIG A   1     -12.533   8.209 128.624  0.00  0.00    +0.123 C 
ATOM      3  C   LIG A   1     -13.348   7.361 127.643  0.00  0.00    +0.060 C 
ATOM      4  O   LIG A   1     -12.673   7.559 129.895  0.00  0.00    -0.481 OA
ATOM      5  C   LIG A   1     -11.557   7.106 130.532  0.00  0.00    +0.132 A 
ATOM      6  C   LIG A   1     -10.246   7.278 130.077  0.00  0.00    +0.058 A 
ATOM      7  C   LIG A   1      -9.181   6.808 130.873  0.00  0.00    +0.134 A 
ATOM      8  C   LIG A   1      -9.425   6.196 132.119  0.00  0.00    -0.004 A 
ATOM      9  C   LIG A   1     -10.763   5.999 132.506  0.00  0.00    +0.011 A 
ATOM     10  C   LIG A   1     -11.814   6.454 131.728  0.00  0.00    +0.047 A 
ATOM     11  C   LIG A   1     -10.042   7.947 128.798  0.00  0.00    +0.015 C 
ATOM     12  C   LIG A   1     -11.116   8.369 128.123  0.00  0.00    +0.020 C 
ENDROOT
BRANCH   7  13
ATOM     13  O   LIG A   1      -7.885   7.055 130.481  0.00  0.00    -0.494 OA
ATOM     14  C   LIG A   1      -7.209   5.858 130.085  0.00  0.00    +0.277 C 
ENDBRANCH   7  13
BRANCH   8  15
ATOM     15  C   LIG A   1      -8.285   5.814 133.047  0.00  0.00    +0.050 C 
BRANCH  15  16
ATOM     16  C   LIG A   1      -8.566   4.542 133.837  0.00  0.00    +0.125 C 
BRANCH  16  17
ATOM     17  C   LIG A   1      -8.105   3.298 133.142  0.00  0.00    +0.307 C 
ATOM     18  O   LIG A   1      -7.084   3.195 132.493  0.00  0.00    -0.251 OA
BRANCH  17  19
ATOM     19  O   LIG A   1      -9.061   2.342 133.286  0.00  0.00    -0.468 OA
ATOM     20  C   LIG A   1      -9.815   2.095 132.105  0.00  0.00    +0.280 C 
ENDBRANCH  17  19
ENDBRANCH  16  17
ENDBRANCH  15  16
ENDBRANCH   8  15
TORSDOF 5
ENDMDL
MODEL 2
REMARK VINA RESULT:      -6.4      7.572     10.850
REMARK  Name = NuBBE_1023
REMARK  9 active torsions:
REMARK  status: ('A' for Active; 'I' for Inactive)
REMARK    1  A    between atoms: C_1  and  C_2
REMARK    2  A    between atoms: C_2  and  C_3
REMARK    3  A    between atoms: C_7  and  O_8
REMARK    4  A    between atoms: O_8  and  C_9
REMARK    5  A    between atoms: C_10  and  C_11
REMARK    6  A    between atoms: C_11  and  C_12
REMARK    7  A    between atoms: C_12  and  C_13
REMARK    8  A    between atoms: C_13  and  O_14
REMARK    9  A    between atoms: O_14  and  C_15
REMARK                            x       y       z     vdW  Elec       q    Type
REMARK                         _______ _______ _______ _____ _____    ______ ____
ROOT
ATOM      1  C   LIG A   1      -7.578  -2.232 130.768  0.00  0.00    +0.060 C 
ATOM      2  C   LIG A   1      -7.128  -2.943 129.487  0.00  0.00    +0.123 C 
ATOM      3  C   LIG A   1      -6.105  -4.031 129.826  0.00  0.00    +0.060 C 
ATOM      4  O   LIG A   1      -6.406  -1.969 128.721  0.00  0.00    -0.481 OA
ATOM      5  C   LIG A   1      -6.814  -1.691 127.452  0.00  0.00    +0.132 A 
ATOM      6  C   LIG A   1      -7.941  -2.238 126.832  0.00  0.00    +0.058 A 
ATOM      7  C   LIG A   1      -8.279  -1.811 125.530  0.00  0.00    +0.134 A 
ATOM      8  C   LIG A   1      -7.511  -0.832 124.869  0.00  0.00    -0.004 A 
ATOM      9  C   LIG A   1      -6.356  -0.354 125.514  0.00  0.00    +0.011 A 
ATOM     10  C   LIG A   1      -6.016  -0.770 126.790  0.00  0.00    +0.047 A 
ATOM     11  C   LIG A   1      -8.725  -3.222 127.569  0.00  0.00    +0.015 C 
ATOM     12  C   LIG A   1      -8.331  -3.552 128.804  0.00  0.00    +0.020 C 
ENDROOT
BRANCH   7  13
ATOM     13  O   LIG A   1      -9.438  -2.272 124.948  0.00  0.00    -0.494 OA
ATOM     14  C   LIG A   1      -9.188  -3.349 124.041  0.00  0.00    +0.277 C 
ENDBRANCH   7  13
BRANCH   8  15
ATOM     15  C   LIG A   1      -7.943  -0.263 123.529  0.00  0.00    +0.050 C 
BRANCH  15  16
ATOM     16  C   LIG A   1      -8.244   1.229 123.590  0.00  0.00    +0.125 C 
BRANCH  16  17
ATOM     17  C   LIG A   1      -9.509   1.550 124.325  0.00  0.00    +0.307 C 
ATOM     18  O   LIG A   1     -10.557   0.947 124.212  0.00  0.00    -0.251 OA
BRANCH  17  19
ATOM     19  O   LIG A   1      -9.308   2.674 125.063  0.00  0.00    -0.468 OA
ATOM     20  C   LIG A   1      -8.142   3.404 124.700  0.00  0.00    +0.280 C 
ENDBRANCH  17  19
ENDBRANCH  16  17
ENDBRANCH  15  16
ENDBRANCH   8  15
TORSDOF 5
ENDMDL
MODEL 3
REMARK VINA RESULT:      -6.2      1.803      6.664
REMARK  Name = NuBBE_1023
REMARK  9 active torsions:
REMARK  status: ('A' for Active; 'I' for Inactive)
REMARK    1  A    between atoms: C_1  and  C_2
REMARK    2  A    between atoms: C_2  and  C_3
REMARK    3  A    between atoms: C_7  and  O_8
REMARK    4  A    between atoms: O_8  and  C_9
REMARK    5  A    between atoms: C_10  and  C_11
REMARK    6  A    between atoms: C_11  and  C_12
REMARK    7  A    between atoms: C_12  and  C_13
REMARK    8  A    between atoms: C_13  and  O_14
REMARK    9  A    between atoms: O_14  and  C_15
REMARK                            x       y       z     vdW  Elec       q    Type
REMARK                         _______ _______ _______ _____ _____    ______ ____
ROOT
ATOM      1  C   LIG A   1      -7.091   4.961 135.637  0.00  0.00    +0.060 C 
ATOM      2  C   LIG A   1      -7.300   4.361 134.243  0.00  0.00    +0.123 C 
ATOM      3  C   LIG A   1      -6.370   3.161 134.046  0.00  0.00    +0.060 C 
ATOM      4  O   LIG A   1      -6.845   5.351 133.309  0.00  0.00    -0.481 OA
ATOM      5  C   LIG A   1      -7.703   5.800 132.352  0.00  0.00    +0.132 A 
ATOM      6  C   LIG A   1      -9.044   5.421 132.232  0.00  0.00    +0.058 A 
ATOM      7  C   LIG A   1      -9.834   6.016 131.226  0.00  0.00    +0.134 A 
ATOM      8  C   LIG A   1      -9.294   6.994 130.367  0.00  0.00    -0.004 A 
ATOM      9  C   LIG A   1      -7.927   7.301 130.495  0.00  0.00    +0.011 A 
ATOM     10  C   LIG A   1      -7.144   6.719 131.477  0.00  0.00    +0.047 A 
ATOM     11  C   LIG A   1      -9.567   4.430 133.165  0.00  0.00    +0.015 C 
ATOM     12  C   LIG A   1      -8.742   3.934 134.093  0.00  0.00    +0.020 C 
ENDROOT
BRANCH   7  13
ATOM     13  O   LIG A   1     -11.176   5.720 131.159  0.00  0.00    -0.494 OA
ATOM     14  C   LIG A   1     -11.971   6.687 131.849  0.00  0.00    +0.277 C 
ENDBRANCH   7  13
BRANCH   8  15
ATOM     15  C   LIG A   1     -10.168   7.742 129.376  0.00  0.00    +0.050 C 
BRANCH  15  16
ATOM     16  C   LIG A   1     -10.246   7.053 128.019  0.00  0.00    +0.125 C 
BRANCH  16  17
ATOM     17  C   LIG A   1     -11.115   7.775 127.036  0.00  0.00    +0.307 C 
ATOM     18  O   LIG A   1     -10.875   7.907 125.854  0.00  0.00    -0.251 OA
BRANCH  17  19
ATOM     19  O   LIG A   1     -12.162   8.327 127.707  0.00  0.00    -0.468 OA
ATOM     20  C   LIG A   1     -13.345   7.538 127.682  0.00  0.00    +0.280 C 
ENDBRANCH  17  19
ENDBRANCH  16  17
ENDBRANCH  15  16
ENDBRANCH   8  15
TORSDOF 5
ENDMDL
MODEL 4
REMARK VINA RESULT:      -6.2      1.640      2.135
REMARK  Name = NuBBE_1023
REMARK  9 active torsions:
REMARK  status: ('A' for Active; 'I' for Inactive)
REMARK    1  A    between atoms: C_1  and  C_2
REMARK    2  A    between atoms: C_2  and  C_3
REMARK    3  A    between atoms: C_7  and  O_8
REMARK    4  A    between atoms: O_8  and  C_9
REMARK    5  A    between atoms: C_10  and  C_11
REMARK    6  A    between atoms: C_11  and  C_12
REMARK    7  A    between atoms: C_12  and  C_13
REMARK    8  A    between atoms: C_13  and  O_14
REMARK    9  A    between atoms: O_14  and  C_15
REMARK                            x       y       z     vdW  Elec       q    Type
REMARK                         _______ _______ _______ _____ _____    ______ ____
ROOT
ATOM      1  C   LIG A   1     -13.154   9.577 129.001  0.00  0.00    +0.060 C 
ATOM      2  C   LIG A   1     -12.536   8.187 128.815  0.00  0.00    +0.123 C 
ATOM      3  C   LIG A   1     -13.426   7.336 127.905  0.00  0.00    +0.060 C 
ATOM      4  O   LIG A   1     -12.589   7.551 130.100  0.00  0.00    -0.481 OA
ATOM      5  C   LIG A   1     -11.435   7.095 130.661  0.00  0.00    +0.132 A 
ATOM      6  C   LIG A   1     -10.159   7.250 130.111  0.00  0.00    +0.058 A 
ATOM      7  C   LIG A   1      -9.043   6.779 130.835  0.00  0.00    +0.134 A 
ATOM      8  C   LIG A   1      -9.202   6.182 132.101  0.00  0.00    -0.004 A 
ATOM      9  C   LIG A   1     -10.510   6.001 132.584  0.00  0.00    +0.011 A 
ATOM     10  C   LIG A   1     -11.611   6.457 131.879  0.00  0.00    +0.047 A 
ATOM     11  C   LIG A   1     -10.041   7.904 128.814  0.00  0.00    +0.015 C 
ATOM     12  C   LIG A   1     -11.157   8.329 128.213  0.00  0.00    +0.020 C 
ENDROOT
BRANCH   7  13
ATOM     13  O   LIG A   1      -7.776   7.010 130.347  0.00  0.00    -0.494 OA
ATOM     14  C   LIG A   1      -7.113   5.796 129.987  0.00  0.00    +0.277 C 
ENDBRANCH   7  13
BRANCH   8  15
ATOM     15  C   LIG A   1      -8.002   5.800 132.949  0.00  0.00    +0.050 C 
BRANCH  15  16
ATOM     16  C   LIG A   1      -8.389   5.050 134.218  0.00  0.00    +0.125 C 
BRANCH  16  17
ATOM     17  C   LIG A   1      -7.534   5.399 135.397  0.00  0.00    +0.307 C 
ATOM     18  O   LIG A   1      -7.919   5.965 136.399  0.00  0.00    -0.251 OA
BRANCH  17  19
ATOM     19  O   LIG A   1      -6.248   5.056 135.116  0.00  0.00    -0.468 OA
ATOM     20  C   LIG A   1      -5.639   4.236 136.107  0.00  0.00    +0.280 C 
ENDBRANCH  17  19
ENDBRANCH  16  17
ENDBRANCH  15  16
ENDBRANCH   8  15
TORSDOF 5
ENDMDL
MODEL 5
REMARK VINA RESULT:      -6.1      8.360     11.221
REMARK  Name = NuBBE_1023
REMARK  9 active torsions:
REMARK  status: ('A' for Active; 'I' for Inactive)
REMARK    1  A    between atoms: C_1  and  C_2
REMARK    2  A    between atoms: C_2  and  C_3
REMARK    3  A    between atoms: C_7  and  O_8
REMARK    4  A    between atoms: O_8  and  C_9
REMARK    5  A    between atoms: C_10  and  C_11
REMARK    6  A    between atoms: C_11  and  C_12
REMARK    7  A    between atoms: C_12  and  C_13
REMARK    8  A    between atoms: C_13  and  O_14
REMARK    9  A    between atoms: O_14  and  C_15
REMARK                            x       y       z     vdW  Elec       q    Type
REMARK                         _______ _______ _______ _____ _____    ______ ____
ROOT
ATOM      1  C   LIG A   1      -6.167  -3.106 131.877  0.00  0.00    +0.060 C 
ATOM      2  C   LIG A   1      -6.875  -2.134 130.927  0.00  0.00    +0.123 C 
ATOM      3  C   LIG A   1      -7.635  -1.076 131.733  0.00  0.00    +0.060 C 
ATOM      4  O   LIG A   1      -7.887  -2.897 130.254  0.00  0.00    -0.481 OA
ATOM      5  C   LIG A   1      -7.884  -2.945 128.893  0.00  0.00    +0.132 A 
ATOM      6  C   LIG A   1      -6.921  -2.352 128.070  0.00  0.00    +0.058 A 
ATOM      7  C   LIG A   1      -7.010  -2.535 126.675  0.00  0.00    +0.134 A 
ATOM      8  C   LIG A   1      -8.037  -3.320 126.113  0.00  0.00    -0.004 A 
ATOM      9  C   LIG A   1      -9.010  -3.850 126.979  0.00  0.00    +0.011 A 
ATOM     10  C   LIG A   1      -8.932  -3.672 128.350  0.00  0.00    +0.047 A 
ATOM     11  C   LIG A   1      -5.858  -1.577 128.700  0.00  0.00    +0.015 C 
ATOM     12  C   LIG A   1      -5.852  -1.473 130.033  0.00  0.00    +0.020 C 
ENDROOT
BRANCH   7  13
ATOM     13  O   LIG A   1      -6.016  -2.036 125.863  0.00  0.00    -0.494 OA
ATOM     14  C   LIG A   1      -6.280  -0.689 125.464  0.00  0.00    +0.277 C 
ENDBRANCH   7  13
BRANCH   8  15
ATOM     15  C   LIG A   1      -8.062  -3.641 124.629  0.00  0.00    +0.050 C 
BRANCH  15  16
ATOM     16  C   LIG A   1      -9.229  -2.983 123.902  0.00  0.00    +0.125 C 
BRANCH  16  17
ATOM     17  C   LIG A   1      -8.804  -1.909 122.949  0.00  0.00    +0.307 C 
ATOM     18  O   LIG A   1      -7.722  -1.844 122.403  0.00  0.00    -0.251 OA
BRANCH  17  19
ATOM     19  O   LIG A   1      -9.796  -0.981 122.872  0.00  0.00    -0.468 OA
ATOM     20  C   LIG A   1      -9.407   0.318 123.300  0.00  0.00    +0.280 C 
ENDBRANCH  17  19
ENDBRANCH  16  17
ENDBRANCH  15  16
ENDBRANCH   8  15
TORSDOF 5
ENDMDL
MODEL 6
REMARK VINA RESULT:      -6.1      2.444      6.673
REMARK  Name = NuBBE_1023
REMARK  9 active torsions:
REMARK  status: ('A' for Active; 'I' for Inactive)
REMARK    1  A    between atoms: C_1  and  C_2
REMARK    2  A    between atoms: C_2  and  C_3
REMARK    3  A    between atoms: C_7  and  O_8
REMARK    4  A    between atoms: O_8  and  C_9
REMARK    5  A    between atoms: C_10  and  C_11
REMARK    6  A    between atoms: C_11  and  C_12
REMARK    7  A    between atoms: C_12  and  C_13
REMARK    8  A    between atoms: C_13  and  O_14
REMARK    9  A    between atoms: O_14  and  C_15
REMARK                            x       y       z     vdW  Elec       q    Type
REMARK                         _______ _______ _______ _____ _____    ______ ____
ROOT
ATOM      1  C   LIG A   1      -3.089   7.392 132.848  0.00  0.00    +0.060 C 
ATOM      2  C   LIG A   1      -3.893   6.223 132.271  0.00  0.00    +0.123 C 
ATOM      3  C   LIG A   1      -3.025   5.421 131.297  0.00  0.00    +0.060 C 
ATOM      4  O   LIG A   1      -4.927   6.807 131.465  0.00  0.00    -0.481 OA
ATOM      5  C   LIG A   1      -6.226   6.504 131.735  0.00  0.00    +0.132 A 
ATOM      6  C   LIG A   1      -6.662   5.702 132.794  0.00  0.00    +0.058 A 
ATOM      7  C   LIG A   1      -8.047   5.523 132.990  0.00  0.00    +0.134 A 
ATOM      8  C   LIG A   1      -8.984   6.157 132.149  0.00  0.00    -0.004 A 
ATOM      9  C   LIG A   1      -8.494   6.909 131.066  0.00  0.00    +0.011 A 
ATOM     10  C   LIG A   1      -7.135   7.087 130.865  0.00  0.00    +0.047 A 
ATOM     11  C   LIG A   1      -5.656   5.095 133.658  0.00  0.00    +0.015 C 
ATOM     12  C   LIG A   1      -4.367   5.336 133.399  0.00  0.00    +0.020 C 
ENDROOT
BRANCH   7  13
ATOM     13  O   LIG A   1      -8.488   4.814 134.084  0.00  0.00    -0.494 OA
ATOM     14  C   LIG A   1      -8.750   3.446 133.764  0.00  0.00    +0.277 C 
ENDBRANCH   7  13
BRANCH   8  15
ATOM     15  C   LIG A   1     -10.473   6.087 132.434  0.00  0.00    +0.050 C 
BRANCH  15  16
ATOM     16  C   LIG A   1     -11.312   5.964 131.168  0.00  0.00    +0.125 C 
BRANCH  16  17
ATOM     17  C   LIG A   1     -12.249   7.115 130.963  0.00  0.00    +0.307 C 
ATOM     18  O   LIG A   1     -13.316   7.258 131.524  0.00  0.00    -0.251 OA
BRANCH  17  19
ATOM     19  O   LIG A   1     -11.745   7.914 129.985  0.00  0.00    -0.468 OA
ATOM     20  C   LIG A   1     -12.732   8.665 129.287  0.00  0.00    +0.280 C 
ENDBRANCH  17  19
ENDBRANCH  16  17
ENDBRANCH  15  16
ENDBRANCH   8  15
TORSDOF 5
ENDMDL
MODEL 7
REMARK VINA RESULT:      -6.1      1.511      1.806
REMARK  Name = NuBBE_1023
REMARK  9 active torsions:
REMARK  status: ('A' for Active; 'I' for Inactive)
REMARK    1  A    between atoms: C_1  and  C_2
REMARK    2  A    between atoms: C_2  and  C_3
REMARK    3  A    between atoms: C_7  and  O_8
REMARK    4  A    between atoms: O_8  and  C_9
REMARK    5  A    between atoms: C_10  and  C_11
REMARK    6  A    between atoms: C_11  and  C_12
REMARK    7  A    between atoms: C_12  and  C_13
REMARK    8  A    between atoms: C_13  and  O_14
REMARK    9  A    between atoms: O_14  and  C_15
REMARK                            x       y       z     vdW  Elec       q    Type
REMARK                         _______ _______ _______ _____ _____    ______ ____
ROOT
ATOM      1  C   LIG A   1     -13.093   8.341 128.199  0.00  0.00    +0.060 C 
ATOM      2  C   LIG A   1     -11.800   7.541 128.008  0.00  0.00    +0.123 C 
ATOM      3  C   LIG A   1     -11.608   7.204 126.527  0.00  0.00    +0.060 C 
ATOM      4  O   LIG A   1     -12.011   6.279 128.659  0.00  0.00    -0.481 OA
ATOM      5  C   LIG A   1     -11.147   5.887 129.636  0.00  0.00    +0.132 A 
ATOM      6  C   LIG A   1     -10.080   6.650 130.120  0.00  0.00    +0.058 A 
ATOM      7  C   LIG A   1      -9.302   6.140 131.180  0.00  0.00    +0.134 A 
ATOM      8  C   LIG A   1      -9.604   4.894 131.764  0.00  0.00    -0.004 A 
ATOM      9  C   LIG A   1     -10.653   4.142 131.205  0.00  0.00    +0.011 A 
ATOM     10  C   LIG A   1     -11.420   4.633 130.162  0.00  0.00    +0.047 A 
ATOM     11  C   LIG A   1      -9.827   7.949 129.507  0.00  0.00    +0.015 C 
ATOM     12  C   LIG A   1     -10.630   8.351 128.516  0.00  0.00    +0.020 C 
ENDROOT
BRANCH   7  13
ATOM     13  O   LIG A   1      -8.310   6.923 131.726  0.00  0.00    -0.494 OA
ATOM     14  C   LIG A   1      -7.034   6.653 131.140  0.00  0.00    +0.277 C 
ENDBRANCH   7  13
BRANCH   8  15
ATOM     15  C   LIG A   1      -8.865   4.400 132.994  0.00  0.00    +0.050 C 
BRANCH  15  16
ATOM     16  C   LIG A   1      -8.994   2.895 133.197  0.00  0.00    +0.125 C 
BRANCH  16  17
ATOM     17  C   LIG A   1      -7.693   2.164 133.062  0.00  0.00    +0.307 C 
ATOM     18  O   LIG A   1      -7.472   1.045 133.478  0.00  0.00    -0.251 OA
BRANCH  17  19
ATOM     19  O   LIG A   1      -6.788   2.995 132.479  0.00  0.00    -0.468 OA
ATOM     20  C   LIG A   1      -6.150   2.443 131.334  0.00  0.00    +0.280 C 
ENDBRANCH  17  19
ENDBRANCH  16  17
ENDBRANCH  15  16
ENDBRANCH   8  15
TORSDOF 5
ENDMDL
MODEL 8
REMARK VINA RESULT:      -6.0      6.848      9.446
REMARK  Name = NuBBE_1023
REMARK  9 active torsions:
REMARK  status: ('A' for Active; 'I' for Inactive)
REMARK    1  A    between atoms: C_1  and  C_2
REMARK    2  A    between atoms: C_2  and  C_3
REMARK    3  A    between atoms: C_7  and  O_8
REMARK    4  A    between atoms: O_8  and  C_9
REMARK    5  A    between atoms: C_10  and  C_11
REMARK    6  A    between atoms: C_11  and  C_12
REMARK    7  A    between atoms: C_12  and  C_13
REMARK    8  A    between atoms: C_13  and  O_14
REMARK    9  A    between atoms: O_14  and  C_15
REMARK                            x       y       z     vdW  Elec       q    Type
REMARK                         _______ _______ _______ _____ _____    ______ ____
ROOT
ATOM      1  C   LIG A   1      -2.600   4.828 127.837  0.00  0.00    +0.060 C 
ATOM      2  C   LIG A   1      -2.931   3.584 127.004  0.00  0.00    +0.123 C 
ATOM      3  C   LIG A   1      -1.643   2.969 126.449  0.00  0.00    +0.060 C 
ATOM      4  O   LIG A   1      -3.654   4.052 125.856  0.00  0.00    -0.481 OA
ATOM      5  C   LIG A   1      -4.894   3.549 125.606  0.00  0.00    +0.132 A 
ATOM      6  C   LIG A   1      -5.573   2.640 126.423  0.00  0.00    +0.058 A 
ATOM      7  C   LIG A   1      -6.882   2.250 126.070  0.00  0.00    +0.134 A 
ATOM      8  C   LIG A   1      -7.511   2.783 124.927  0.00  0.00    -0.004 A 
ATOM      9  C   LIG A   1      -6.766   3.653 124.111  0.00  0.00    +0.011 A 
ATOM     10  C   LIG A   1      -5.479   4.037 124.448  0.00  0.00    +0.047 A 
ATOM     11  C   LIG A   1      -4.894   2.142 127.614  0.00  0.00    +0.015 C 
ATOM     12  C   LIG A   1      -3.658   2.581 127.871  0.00  0.00    +0.020 C 
ENDROOT
BRANCH   7  13
ATOM     13  O   LIG A   1      -7.594   1.430 126.916  0.00  0.00    -0.494 OA
ATOM     14  C   LIG A   1      -8.207   2.161 127.980  0.00  0.00    +0.277 C 
ENDBRANCH   7  13
BRANCH   8  15
ATOM     15  C   LIG A   1      -8.966   2.482 124.616  0.00  0.00    +0.050 C 
BRANCH  15  16
ATOM     16  C   LIG A   1      -9.172   1.966 123.197  0.00  0.00    +0.125 C 
BRANCH  16  17
ATOM     17  C   LIG A   1      -9.828   0.620 123.144  0.00  0.00    +0.307 C 
ATOM     18  O   LIG A   1     -10.633   0.265 122.308  0.00  0.00    -0.251 OA
BRANCH  17  19
ATOM     19  O   LIG A   1      -9.437  -0.095 124.233  0.00  0.00    -0.468 OA
ATOM     20  C   LIG A   1      -8.830  -1.342 123.918  0.00  0.00    +0.280 C 
ENDBRANCH  17  19
ENDBRANCH  16  17
ENDBRANCH  15  16
ENDBRANCH   8  15
TORSDOF 5
ENDMDL
MODEL 9
REMARK VINA RESULT:      -5.9      8.496     11.397
REMARK  Name = NuBBE_1023
REMARK  9 active torsions:
REMARK  status: ('A' for Active; 'I' for Inactive)
REMARK    1  A    between atoms: C_1  and  C_2
REMARK    2  A    between atoms: C_2  and  C_3
REMARK    3  A    between atoms: C_7  and  O_8
REMARK    4  A    between atoms: O_8  and  C_9
REMARK    5  A    between atoms: C_10  and  C_11
REMARK    6  A    between atoms: C_11  and  C_12
REMARK    7  A    between atoms: C_12  and  C_13
REMARK    8  A    between atoms: C_13  and  O_14
REMARK    9  A    between atoms: O_14  and  C_15
REMARK                            x       y       z     vdW  Elec       q    Type
REMARK                         _______ _______ _______ _____ _____    ______ ____
ROOT
ATOM      1  C   LIG A   1      -5.523  -4.087 131.541  0.00  0.00    +0.060 C 
ATOM      2  C   LIG A   1      -6.520  -3.005 131.113  0.00  0.00    +0.123 C 
ATOM      3  C   LIG A   1      -7.302  -2.504 132.331  0.00  0.00    +0.060 C 
ATOM      4  O   LIG A   1      -7.489  -3.661 130.283  0.00  0.00    -0.481 OA
ATOM      5  C   LIG A   1      -7.694  -3.201 129.018  0.00  0.00    +0.132 A 
ATOM      6  C   LIG A   1      -6.983  -2.159 128.415  0.00  0.00    +0.058 A 
ATOM      7  C   LIG A   1      -7.262  -1.828 127.073  0.00  0.00    +0.134 A 
ATOM      8  C   LIG A   1      -8.225  -2.547 126.337  0.00  0.00    -0.004 A 
ATOM      9  C   LIG A   1      -8.950  -3.550 127.005  0.00  0.00    +0.011 A 
ATOM     10  C   LIG A   1      -8.685  -3.879 128.323  0.00  0.00    +0.047 A 
ATOM     11  C   LIG A   1      -5.972  -1.466 129.206  0.00  0.00    +0.015 C 
ATOM     12  C   LIG A   1      -5.771  -1.862 130.467  0.00  0.00    +0.020 C 
ENDROOT
BRANCH   7  13
ATOM     13  O   LIG A   1      -6.503  -0.868 126.442  0.00  0.00    -0.494 OA
ATOM     14  C   LIG A   1      -7.127   0.418 126.484  0.00  0.00    +0.277 C 
ENDBRANCH   7  13
BRANCH   8  15
ATOM     15  C   LIG A   1      -8.434  -2.295 124.854  0.00  0.00    +0.050 C 
BRANCH  15  16
ATOM     16  C   LIG A   1      -7.684  -3.288 123.974  0.00  0.00    +0.125 C 
BRANCH  16  17
ATOM     17  C   LIG A   1      -6.309  -2.827 123.599  0.00  0.00    +0.307 C 
ATOM     18  O   LIG A   1      -6.052  -2.038 122.713  0.00  0.00    -0.251 OA
BRANCH  17  19
ATOM     19  O   LIG A   1      -5.404  -3.506 124.353  0.00  0.00    -0.468 OA
ATOM     20  C   LIG A   1      -4.512  -4.316 123.596  0.00  0.00    +0.280 C 
ENDBRANCH  17  19
ENDBRANCH  16  17
ENDBRANCH  15  16
ENDBRANCH   8  15
TORSDOF 5
ENDMDL
