MODEL 1
REMARK VINA RESULT:      -7.3      0.000      0.000
REMARK  Name = NuBBE_426
REMARK  8 active torsions:
REMARK  status: ('A' for Active; 'I' for Inactive)
REMARK    1  A    between atoms: O_1  and  C_2
REMARK    2  A    between atoms: C_4  and  O_5
REMARK    3  A    between atoms: C_9  and  C_17
REMARK    4  A    between atoms: C_10  and  O_13
REMARK    5  A    between atoms: O_13  and  C_14
REMARK    6  A    between atoms: C_14  and  C_15
REMARK    7  A    between atoms: C_20  and  O_24
REMARK    8  A    between atoms: C_21  and  O_22
REMARK                            x       y       z     vdW  Elec       q    Type
REMARK                         _______ _______ _______ _____ _____    ______ ____
ROOT
ATOM      1  C   LIG A   1      -5.947   4.727 119.900  0.00  0.00    +0.124 A 
ATOM      2  C   LIG A   1      -7.234   4.505 119.425  0.00  0.00    +0.091 A 
ATOM      3  C   LIG A   1      -8.166   3.887 120.262  0.00  0.00    +0.127 A 
ATOM      4  C   LIG A   1      -7.828   3.488 121.562  0.00  0.00    +0.040 A 
ATOM      5  C   LIG A   1      -6.530   3.742 122.017  0.00  0.00    +0.132 A 
ATOM      6  O   LIG A   1      -6.076   3.393 123.258  0.00  0.00    -0.480 OA
ATOM      7  C   LIG A   1      -7.093   3.059 124.216  0.00  0.00    +0.244 C 
ATOM      8  C   LIG A   1      -8.167   2.122 123.642  0.00  0.00    +0.226 C 
ATOM      9  C   LIG A   1      -8.838   2.817 122.455  0.00  0.00    +0.091 C 
ATOM     10  C   LIG A   1      -5.589   4.350 121.186  0.00  0.00    +0.091 A 
ENDROOT
BRANCH   7  11
ATOM     11  C   LIG A   1      -6.413   2.510 125.462  0.00  0.00    -0.000 A 
ATOM     12  C   LIG A   1      -7.132   1.778 126.428  0.00  0.00    +0.011 A 
ATOM     13  C   LIG A   1      -6.490   1.215 127.535  0.00  0.00    +0.049 A 
ATOM     14  C   LIG A   1      -5.121   1.389 127.682  0.00  0.00    +0.158 A 
ATOM     15  C   LIG A   1      -4.404   2.128 126.746  0.00  0.00    +0.159 A 
ATOM     16  C   LIG A   1      -5.034   2.696 125.648  0.00  0.00    +0.056 A 
BRANCH  15  17
ATOM     17  O   LIG A   1      -3.054   2.283 126.893  0.00  0.00    -0.503 OA
ATOM     18  H   LIG A   1      -2.676   1.896 126.078  0.00  0.00    +0.292 HD
ENDBRANCH  15  17
BRANCH  14  19
ATOM     19  O   LIG A   1      -4.433   0.846 128.731  0.00  0.00    -0.503 OA
ATOM     20  H   LIG A   1      -3.550   1.253 128.753  0.00  0.00    +0.292 HD
ENDBRANCH  14  19
ENDBRANCH   7  11
BRANCH   1  21
ATOM     21  O   LIG A   1      -4.992   5.320 119.127  0.00  0.00    -0.506 OA
ATOM     22  H   LIG A   1      -4.163   5.376 119.631  0.00  0.00    +0.292 HD
ENDBRANCH   1  21
BRANCH   3  23
ATOM     23  O   LIG A   1      -9.439   3.653 119.819  0.00  0.00    -0.506 OA
ATOM     24  H   LIG A   1      -9.467   2.789 119.376  0.00  0.00    +0.292 HD
ENDBRANCH   3  23
BRANCH   8  25
ATOM     25  O   LIG A   1      -7.590   0.887 123.152  0.00  0.00    -0.457 OA
BRANCH  25  26
ATOM     26  C   LIG A   1      -8.172  -0.263 123.575  0.00  0.00    +0.304 C 
ATOM     27  C   LIG A   1      -7.141  -1.191 124.134  0.00  0.00    +0.136 C 
ATOM     28  O   LIG A   1      -9.365  -0.530 123.506  0.00  0.00    -0.251 OA
ENDBRANCH  25  26
ENDBRANCH   8  25
TORSDOF 7
ENDMDL
MODEL 2
REMARK VINA RESULT:      -7.0      7.983      9.042
REMARK  Name = NuBBE_426
REMARK  8 active torsions:
REMARK  status: ('A' for Active; 'I' for Inactive)
REMARK    1  A    between atoms: O_1  and  C_2
REMARK    2  A    between atoms: C_4  and  O_5
REMARK    3  A    between atoms: C_9  and  C_17
REMARK    4  A    between atoms: C_10  and  O_13
REMARK    5  A    between atoms: O_13  and  C_14
REMARK    6  A    between atoms: C_14  and  C_15
REMARK    7  A    between atoms: C_20  and  O_24
REMARK    8  A    between atoms: C_21  and  O_22
REMARK                            x       y       z     vdW  Elec       q    Type
REMARK                         _______ _______ _______ _____ _____    ______ ____
ROOT
ATOM      1  C   LIG A   1     -11.319   8.204 128.628  0.00  0.00    +0.124 A 
ATOM      2  C   LIG A   1     -12.369   7.888 129.481  0.00  0.00    +0.091 A 
ATOM      3  C   LIG A   1     -12.091   7.231 130.682  0.00  0.00    +0.127 A 
ATOM      4  C   LIG A   1     -10.781   6.885 131.037  0.00  0.00    +0.040 A 
ATOM      5  C   LIG A   1      -9.743   7.233 130.167  0.00  0.00    +0.132 A 
ATOM      6  O   LIG A   1      -8.428   6.943 130.395  0.00  0.00    -0.480 OA
ATOM      7  C   LIG A   1      -8.103   6.566 131.742  0.00  0.00    +0.244 C 
ATOM      8  C   LIG A   1      -9.093   5.548 132.331  0.00  0.00    +0.226 C 
ATOM      9  C   LIG A   1     -10.492   6.171 132.331  0.00  0.00    +0.091 C 
ATOM     10  C   LIG A   1     -10.011   7.881 128.961  0.00  0.00    +0.091 A 
ENDROOT
BRANCH   7  11
ATOM     11  C   LIG A   1      -6.658   6.091 131.770  0.00  0.00    -0.000 A 
ATOM     12  C   LIG A   1      -6.001   5.809 132.985  0.00  0.00    +0.011 A 
ATOM     13  C   LIG A   1      -4.697   5.305 133.003  0.00  0.00    +0.049 A 
ATOM     14  C   LIG A   1      -4.041   5.087 131.800  0.00  0.00    +0.158 A 
ATOM     15  C   LIG A   1      -4.671   5.382 130.595  0.00  0.00    +0.159 A 
ATOM     16  C   LIG A   1      -5.963   5.889 130.567  0.00  0.00    +0.056 A 
BRANCH  15  17
ATOM     17  O   LIG A   1      -4.021   5.152 129.415  0.00  0.00    -0.503 OA
ATOM     18  H   LIG A   1      -4.606   4.532 128.933  0.00  0.00    +0.292 HD
ENDBRANCH  15  17
BRANCH  14  19
ATOM     19  O   LIG A   1      -2.773   4.578 131.751  0.00  0.00    -0.503 OA
ATOM     20  H   LIG A   1      -2.731   3.822 132.361  0.00  0.00    +0.292 HD
ENDBRANCH  14  19
ENDBRANCH   7  11
BRANCH   1  21
ATOM     21  O   LIG A   1     -11.529   8.840 127.439  0.00  0.00    -0.506 OA
ATOM     22  H   LIG A   1     -12.174   8.335 126.918  0.00  0.00    +0.292 HD
ENDBRANCH   1  21
BRANCH   3  23
ATOM     23  O   LIG A   1     -13.106   6.905 131.538  0.00  0.00    -0.506 OA
ATOM     24  H   LIG A   1     -12.869   6.095 132.019  0.00  0.00    +0.292 HD
ENDBRANCH   3  23
BRANCH   8  25
ATOM     25  O   LIG A   1      -9.156   4.342 131.531  0.00  0.00    -0.457 OA
BRANCH  25  26
ATOM     26  C   LIG A   1      -9.383   3.184 132.199  0.00  0.00    +0.304 C 
ATOM     27  C   LIG A   1      -8.640   3.179 133.497  0.00  0.00    +0.136 C 
ATOM     28  O   LIG A   1     -10.080   2.256 131.808  0.00  0.00    -0.251 OA
ENDBRANCH  25  26
ENDBRANCH   8  25
TORSDOF 7
ENDMDL
MODEL 3
REMARK VINA RESULT:      -6.9      2.748      6.430
REMARK  Name = NuBBE_426
REMARK  8 active torsions:
REMARK  status: ('A' for Active; 'I' for Inactive)
REMARK    1  A    between atoms: O_1  and  C_2
REMARK    2  A    between atoms: C_4  and  O_5
REMARK    3  A    between atoms: C_9  and  C_17
REMARK    4  A    between atoms: C_10  and  O_13
REMARK    5  A    between atoms: O_13  and  C_14
REMARK    6  A    between atoms: C_14  and  C_15
REMARK    7  A    between atoms: C_20  and  O_24
REMARK    8  A    between atoms: C_21  and  O_22
REMARK                            x       y       z     vdW  Elec       q    Type
REMARK                         _______ _______ _______ _____ _____    ______ ____
ROOT
ATOM      1  C   LIG A   1      -8.261  -2.882 127.984  0.00  0.00    +0.124 A 
ATOM      2  C   LIG A   1      -8.522  -3.750 126.931  0.00  0.00    +0.091 A 
ATOM      3  C   LIG A   1      -8.415  -3.276 125.622  0.00  0.00    +0.127 A 
ATOM      4  C   LIG A   1      -8.057  -1.948 125.353  0.00  0.00    +0.040 A 
ATOM      5  C   LIG A   1      -7.782  -1.104 126.434  0.00  0.00    +0.132 A 
ATOM      6  O   LIG A   1      -7.433   0.211 126.304  0.00  0.00    -0.480 OA
ATOM      7  C   LIG A   1      -7.015   0.612 124.990  0.00  0.00    +0.244 C 
ATOM      8  C   LIG A   1      -7.944   0.086 123.884  0.00  0.00    +0.226 C 
ATOM      9  C   LIG A   1      -7.950  -1.444 123.938  0.00  0.00    +0.091 C 
ATOM     10  C   LIG A   1      -7.895  -1.565 127.746  0.00  0.00    +0.091 A 
ENDROOT
BRANCH   7  11
ATOM     11  C   LIG A   1      -6.859   2.126 124.980  0.00  0.00    -0.000 A 
ATOM     12  C   LIG A   1      -7.298   2.916 126.060  0.00  0.00    +0.011 A 
ATOM     13  C   LIG A   1      -7.089   4.298 126.078  0.00  0.00    +0.049 A 
ATOM     14  C   LIG A   1      -6.442   4.897 125.006  0.00  0.00    +0.158 A 
ATOM     15  C   LIG A   1      -6.023   4.130 123.923  0.00  0.00    +0.159 A 
ATOM     16  C   LIG A   1      -6.233   2.758 123.893  0.00  0.00    +0.056 A 
BRANCH  15  17
ATOM     17  O   LIG A   1      -5.376   4.727 122.878  0.00  0.00    -0.503 OA
ATOM     18  H   LIG A   1      -5.002   3.980 122.367  0.00  0.00    +0.292 HD
ENDBRANCH  15  17
BRANCH  14  19
ATOM     19  O   LIG A   1      -6.190   6.240 124.974  0.00  0.00    -0.503 OA
ATOM     20  H   LIG A   1      -6.679   6.618 124.224  0.00  0.00    +0.292 HD
ENDBRANCH  14  19
ENDBRANCH   7  11
BRANCH   1  21
ATOM     21  O   LIG A   1      -8.355  -3.285 129.284  0.00  0.00    -0.506 OA
ATOM     22  H   LIG A   1      -9.036  -2.758 129.733  0.00  0.00    +0.292 HD
ENDBRANCH   1  21
BRANCH   3  23
ATOM     23  O   LIG A   1      -8.669  -4.108 124.566  0.00  0.00    -0.506 OA
ATOM     24  H   LIG A   1      -9.461  -4.636 124.761  0.00  0.00    +0.292 HD
ENDBRANCH   3  23
BRANCH   8  25
ATOM     25  O   LIG A   1      -9.308   0.532 124.076  0.00  0.00    -0.457 OA
BRANCH  25  26
ATOM     26  C   LIG A   1     -10.001   0.859 122.957  0.00  0.00    +0.304 C 
ATOM     27  C   LIG A   1      -9.447   2.107 122.349  0.00  0.00    +0.136 C 
ATOM     28  O   LIG A   1     -10.957   0.244 122.501  0.00  0.00    -0.251 OA
ENDBRANCH  25  26
ENDBRANCH   8  25
TORSDOF 7
ENDMDL
MODEL 4
REMARK VINA RESULT:      -6.7      6.668     10.025
REMARK  Name = NuBBE_426
REMARK  8 active torsions:
REMARK  status: ('A' for Active; 'I' for Inactive)
REMARK    1  A    between atoms: O_1  and  C_2
REMARK    2  A    between atoms: C_4  and  O_5
REMARK    3  A    between atoms: C_9  and  C_17
REMARK    4  A    between atoms: C_10  and  O_13
REMARK    5  A    between atoms: O_13  and  C_14
REMARK    6  A    between atoms: C_14  and  C_15
REMARK    7  A    between atoms: C_20  and  O_24
REMARK    8  A    between atoms: C_21  and  O_22
REMARK                            x       y       z     vdW  Elec       q    Type
REMARK                         _______ _______ _______ _____ _____    ______ ____
ROOT
ATOM      1  C   LIG A   1      -7.999   1.042 129.187  0.00  0.00    +0.124 A 
ATOM      2  C   LIG A   1      -7.728   0.632 130.487  0.00  0.00    +0.091 A 
ATOM      3  C   LIG A   1      -8.207   1.398 131.552  0.00  0.00    +0.127 A 
ATOM      4  C   LIG A   1      -8.948   2.567 131.334  0.00  0.00    +0.040 A 
ATOM      5  C   LIG A   1      -9.221   2.943 130.014  0.00  0.00    +0.132 A 
ATOM      6  O   LIG A   1      -9.924   4.063 129.672  0.00  0.00    -0.480 OA
ATOM      7  C   LIG A   1     -10.679   4.668 130.734  0.00  0.00    +0.244 C 
ATOM      8  C   LIG A   1      -9.877   4.792 132.039  0.00  0.00    +0.226 C 
ATOM      9  C   LIG A   1      -9.456   3.390 132.488  0.00  0.00    +0.091 C 
ATOM     10  C   LIG A   1      -8.739   2.190 128.944  0.00  0.00    +0.091 A 
ENDROOT
BRANCH   7  11
ATOM     11  C   LIG A   1     -11.229   5.996 130.233  0.00  0.00    -0.000 A 
ATOM     12  C   LIG A   1     -12.243   6.680 130.932  0.00  0.00    +0.011 A 
ATOM     13  C   LIG A   1     -12.696   7.933 130.507  0.00  0.00    +0.049 A 
ATOM     14  C   LIG A   1     -12.137   8.504 129.373  0.00  0.00    +0.158 A 
ATOM     15  C   LIG A   1     -11.149   7.829 128.662  0.00  0.00    +0.159 A 
ATOM     16  C   LIG A   1     -10.698   6.581 129.072  0.00  0.00    +0.056 A 
BRANCH  15  17
ATOM     17  O   LIG A   1     -10.596   8.405 127.554  0.00  0.00    -0.503 OA
ATOM     18  H   LIG A   1     -11.254   8.250 126.846  0.00  0.00    +0.292 HD
ENDBRANCH  15  17
BRANCH  14  19
ATOM     19  O   LIG A   1     -12.522   9.735 128.919  0.00  0.00    -0.503 OA
ATOM     20  H   LIG A   1     -13.437   9.663 128.600  0.00  0.00    +0.292 HD
ENDBRANCH  14  19
ENDBRANCH   7  11
BRANCH   1  21
ATOM     21  O   LIG A   1      -7.552   0.339 128.107  0.00  0.00    -0.506 OA
ATOM     22  H   LIG A   1      -6.939  -0.352 128.407  0.00  0.00    +0.292 HD
ENDBRANCH   1  21
BRANCH   3  23
ATOM     23  O   LIG A   1      -7.951   1.020 132.841  0.00  0.00    -0.506 OA
ATOM     24  H   LIG A   1      -7.203   0.401 132.848  0.00  0.00    +0.292 HD
ENDBRANCH   3  23
BRANCH   8  25
ATOM     25  O   LIG A   1      -8.668   5.567 131.851  0.00  0.00    -0.457 OA
BRANCH  25  26
ATOM     26  C   LIG A   1      -7.940   5.832 132.963  0.00  0.00    +0.304 C 
ATOM     27  C   LIG A   1      -6.478   5.753 132.659  0.00  0.00    +0.136 C 
ATOM     28  O   LIG A   1      -8.393   6.087 134.072  0.00  0.00    -0.251 OA
ENDBRANCH  25  26
ENDBRANCH   8  25
TORSDOF 7
ENDMDL
MODEL 5
REMARK VINA RESULT:      -6.5      7.758      9.215
REMARK  Name = NuBBE_426
REMARK  8 active torsions:
REMARK  status: ('A' for Active; 'I' for Inactive)
REMARK    1  A    between atoms: O_1  and  C_2
REMARK    2  A    between atoms: C_4  and  O_5
REMARK    3  A    between atoms: C_9  and  C_17
REMARK    4  A    between atoms: C_10  and  O_13
REMARK    5  A    between atoms: O_13  and  C_14
REMARK    6  A    between atoms: C_14  and  C_15
REMARK    7  A    between atoms: C_20  and  O_24
REMARK    8  A    between atoms: C_21  and  O_22
REMARK                            x       y       z     vdW  Elec       q    Type
REMARK                         _______ _______ _______ _____ _____    ______ ____
ROOT
ATOM      1  C   LIG A   1     -11.410   6.780 128.541  0.00  0.00    +0.124 A 
ATOM      2  C   LIG A   1     -12.288   6.718 129.616  0.00  0.00    +0.091 A 
ATOM      3  C   LIG A   1     -11.772   6.547 130.902  0.00  0.00    +0.127 A 
ATOM      4  C   LIG A   1     -10.393   6.434 131.126  0.00  0.00    +0.040 A 
ATOM      5  C   LIG A   1      -9.534   6.520 130.026  0.00  0.00    +0.132 A 
ATOM      6  O   LIG A   1      -8.174   6.415 130.112  0.00  0.00    -0.480 OA
ATOM      7  C   LIG A   1      -7.625   6.560 131.432  0.00  0.00    +0.244 C 
ATOM      8  C   LIG A   1      -8.396   5.754 132.489  0.00  0.00    +0.226 C 
ATOM      9  C   LIG A   1      -9.846   6.244 132.516  0.00  0.00    +0.091 C 
ATOM     10  C   LIG A   1     -10.040   6.680 128.737  0.00  0.00    +0.091 A 
ENDROOT
BRANCH   7  11
ATOM     11  C   LIG A   1      -6.143   6.221 131.373  0.00  0.00    -0.000 A 
ATOM     12  C   LIG A   1      -5.528   5.830 130.168  0.00  0.00    +0.011 A 
ATOM     13  C   LIG A   1      -4.152   5.587 130.103  0.00  0.00    +0.049 A 
ATOM     14  C   LIG A   1      -3.387   5.730 131.252  0.00  0.00    +0.158 A 
ATOM     15  C   LIG A   1      -3.987   6.095 132.454  0.00  0.00    +0.159 A 
ATOM     16  C   LIG A   1      -5.353   6.331 132.529  0.00  0.00    +0.056 A 
BRANCH  15  17
ATOM     17  O   LIG A   1      -3.223   6.245 133.577  0.00  0.00    -0.503 OA
ATOM     18  H   LIG A   1      -2.871   7.156 133.510  0.00  0.00    +0.292 HD
ENDBRANCH  15  17
BRANCH  14  19
ATOM     19  O   LIG A   1      -2.035   5.527 131.249  0.00  0.00    -0.503 OA
ATOM     20  H   LIG A   1      -1.647   6.105 130.570  0.00  0.00    +0.292 HD
ENDBRANCH  14  19
ENDBRANCH   7  11
BRANCH   1  21
ATOM     21  O   LIG A   1     -11.855   6.939 127.261  0.00  0.00    -0.506 OA
ATOM     22  H   LIG A   1     -11.530   7.785 126.914  0.00  0.00    +0.292 HD
ENDBRANCH   1  21
BRANCH   3  23
ATOM     23  O   LIG A   1     -12.614   6.479 131.978  0.00  0.00    -0.506 OA
ATOM     24  H   LIG A   1     -13.369   7.071 131.829  0.00  0.00    +0.292 HD
ENDBRANCH   3  23
BRANCH   8  25
ATOM     25  O   LIG A   1      -8.422   4.342 132.168  0.00  0.00    -0.457 OA
BRANCH  25  26
ATOM     26  C   LIG A   1      -8.686   3.493 133.192  0.00  0.00    +0.304 C 
ATOM     27  C   LIG A   1      -9.467   2.315 132.704  0.00  0.00    +0.136 C 
ATOM     28  O   LIG A   1      -8.356   3.656 134.360  0.00  0.00    -0.251 OA
ENDBRANCH  25  26
ENDBRANCH   8  25
TORSDOF 7
ENDMDL
MODEL 6
REMARK VINA RESULT:      -6.5      2.793      5.989
REMARK  Name = NuBBE_426
REMARK  8 active torsions:
REMARK  status: ('A' for Active; 'I' for Inactive)
REMARK    1  A    between atoms: O_1  and  C_2
REMARK    2  A    between atoms: C_4  and  O_5
REMARK    3  A    between atoms: C_9  and  C_17
REMARK    4  A    between atoms: C_10  and  O_13
REMARK    5  A    between atoms: O_13  and  C_14
REMARK    6  A    between atoms: C_14  and  C_15
REMARK    7  A    between atoms: C_20  and  O_24
REMARK    8  A    between atoms: C_21  and  O_22
REMARK                            x       y       z     vdW  Elec       q    Type
REMARK                         _______ _______ _______ _____ _____    ______ ____
ROOT
ATOM      1  C   LIG A   1      -2.649   3.412 126.813  0.00  0.00    +0.124 A 
ATOM      2  C   LIG A   1      -3.285   4.422 127.526  0.00  0.00    +0.091 A 
ATOM      3  C   LIG A   1      -4.669   4.358 127.700  0.00  0.00    +0.127 A 
ATOM      4  C   LIG A   1      -5.424   3.305 127.168  0.00  0.00    +0.040 A 
ATOM      5  C   LIG A   1      -4.753   2.294 126.472  0.00  0.00    +0.132 A 
ATOM      6  O   LIG A   1      -5.376   1.221 125.899  0.00  0.00    -0.480 OA
ATOM      7  C   LIG A   1      -6.723   0.982 126.337  0.00  0.00    +0.244 C 
ATOM      8  C   LIG A   1      -7.570   2.264 126.381  0.00  0.00    +0.226 C 
ATOM      9  C   LIG A   1      -6.917   3.248 127.355  0.00  0.00    +0.091 C 
ATOM     10  C   LIG A   1      -3.372   2.352 126.284  0.00  0.00    +0.091 A 
ENDROOT
BRANCH   7  11
ATOM     11  C   LIG A   1      -7.323  -0.110 125.464  0.00  0.00    -0.000 A 
ATOM     12  C   LIG A   1      -6.731  -0.478 124.240  0.00  0.00    +0.011 A 
ATOM     13  C   LIG A   1      -7.245  -1.530 123.475  0.00  0.00    +0.049 A 
ATOM     14  C   LIG A   1      -8.362  -2.215 123.933  0.00  0.00    +0.158 A 
ATOM     15  C   LIG A   1      -8.968  -1.847 125.131  0.00  0.00    +0.159 A 
ATOM     16  C   LIG A   1      -8.469  -0.800 125.893  0.00  0.00    +0.056 A 
BRANCH  15  17
ATOM     17  O   LIG A   1     -10.059  -2.536 125.580  0.00  0.00    -0.503 OA
ATOM     18  H   LIG A   1     -10.823  -2.035 125.226  0.00  0.00    +0.292 HD
ENDBRANCH  15  17
BRANCH  14  19
ATOM     19  O   LIG A   1      -8.899  -3.265 123.242  0.00  0.00    -0.503 OA
ATOM     20  H   LIG A   1      -9.400  -3.812 123.871  0.00  0.00    +0.292 HD
ENDBRANCH  14  19
ENDBRANCH   7  11
BRANCH   1  21
ATOM     21  O   LIG A   1      -1.301   3.422 126.605  0.00  0.00    -0.506 OA
ATOM     22  H   LIG A   1      -1.075   4.162 126.017  0.00  0.00    +0.292 HD
ENDBRANCH   1  21
BRANCH   3  23
ATOM     23  O   LIG A   1      -5.320   5.341 128.394  0.00  0.00    -0.506 OA
ATOM     24  H   LIG A   1      -5.772   4.945 129.157  0.00  0.00    +0.292 HD
ENDBRANCH   3  23
BRANCH   8  25
ATOM     25  O   LIG A   1      -7.628   2.910 125.086  0.00  0.00    -0.457 OA
BRANCH  25  26
ATOM     26  C   LIG A   1      -8.719   2.644 124.326  0.00  0.00    +0.304 C 
ATOM     27  C   LIG A   1      -8.430   2.927 122.886  0.00  0.00    +0.136 C 
ATOM     28  O   LIG A   1      -9.801   2.246 124.739  0.00  0.00    -0.251 OA
ENDBRANCH  25  26
ENDBRANCH   8  25
TORSDOF 7
ENDMDL
MODEL 7
REMARK VINA RESULT:      -6.4      4.263      6.751
REMARK  Name = NuBBE_426
REMARK  8 active torsions:
REMARK  status: ('A' for Active; 'I' for Inactive)
REMARK    1  A    between atoms: O_1  and  C_2
REMARK    2  A    between atoms: C_4  and  O_5
REMARK    3  A    between atoms: C_9  and  C_17
REMARK    4  A    between atoms: C_10  and  O_13
REMARK    5  A    between atoms: O_13  and  C_14
REMARK    6  A    between atoms: C_14  and  C_15
REMARK    7  A    between atoms: C_20  and  O_24
REMARK    8  A    between atoms: C_21  and  O_22
REMARK                            x       y       z     vdW  Elec       q    Type
REMARK                         _______ _______ _______ _____ _____    ______ ____
ROOT
ATOM      1  C   LIG A   1      -9.132  -2.860 123.805  0.00  0.00    +0.124 A 
ATOM      2  C   LIG A   1      -8.481  -1.910 123.027  0.00  0.00    +0.091 A 
ATOM      3  C   LIG A   1      -7.374  -1.245 123.559  0.00  0.00    +0.127 A 
ATOM      4  C   LIG A   1      -6.915  -1.513 124.855  0.00  0.00    +0.040 A 
ATOM      5  C   LIG A   1      -7.580  -2.488 125.606  0.00  0.00    +0.132 A 
ATOM      6  O   LIG A   1      -7.235  -2.832 126.882  0.00  0.00    -0.480 OA
ATOM      7  C   LIG A   1      -5.934  -2.398 127.310  0.00  0.00    +0.244 C 
ATOM      8  C   LIG A   1      -5.646  -0.934 126.943  0.00  0.00    +0.226 C 
ATOM      9  C   LIG A   1      -5.724  -0.786 125.421  0.00  0.00    +0.091 C 
ATOM     10  C   LIG A   1      -8.692  -3.151 125.088  0.00  0.00    +0.091 A 
ENDROOT
BRANCH   7  11
ATOM     11  C   LIG A   1      -5.798  -2.688 128.797  0.00  0.00    -0.000 A 
ATOM     12  C   LIG A   1      -6.925  -2.967 129.596  0.00  0.00    +0.011 A 
ATOM     13  C   LIG A   1      -6.789  -3.303 130.947  0.00  0.00    +0.049 A 
ATOM     14  C   LIG A   1      -5.520  -3.353 131.505  0.00  0.00    +0.158 A 
ATOM     15  C   LIG A   1      -4.401  -3.059 130.732  0.00  0.00    +0.159 A 
ATOM     16  C   LIG A   1      -4.526  -2.718 129.392  0.00  0.00    +0.056 A 
BRANCH  15  17
ATOM     17  O   LIG A   1      -3.154  -3.124 131.288  0.00  0.00    -0.503 OA
ATOM     18  H   LIG A   1      -3.249  -2.666 132.148  0.00  0.00    +0.292 HD
ENDBRANCH  15  17
BRANCH  14  19
ATOM     19  O   LIG A   1      -5.320  -3.695 132.814  0.00  0.00    -0.503 OA
ATOM     20  H   LIG A   1      -4.683  -4.429 132.837  0.00  0.00    +0.292 HD
ENDBRANCH  14  19
ENDBRANCH   7  11
BRANCH   1  21
ATOM     21  O   LIG A   1     -10.223  -3.538 123.343  0.00  0.00    -0.506 OA
ATOM     22  H   LIG A   1      -9.954  -4.434 123.081  0.00  0.00    +0.292 HD
ENDBRANCH   1  21
BRANCH   3  23
ATOM     23  O   LIG A   1      -6.717  -0.303 122.816  0.00  0.00    -0.506 OA
ATOM     24  H   LIG A   1      -6.182   0.252 123.407  0.00  0.00    +0.292 HD
ENDBRANCH   3  23
BRANCH   8  25
ATOM     25  O   LIG A   1      -6.628  -0.037 127.517  0.00  0.00    -0.457 OA
BRANCH  25  26
ATOM     26  C   LIG A   1      -6.153   0.943 128.325  0.00  0.00    +0.304 C 
ATOM     27  C   LIG A   1      -6.731   0.811 129.697  0.00  0.00    +0.136 C 
ATOM     28  O   LIG A   1      -5.375   1.830 127.995  0.00  0.00    -0.251 OA
ENDBRANCH  25  26
ENDBRANCH   8  25
TORSDOF 7
ENDMDL
MODEL 8
REMARK VINA RESULT:      -6.4      7.952     10.370
REMARK  Name = NuBBE_426
REMARK  8 active torsions:
REMARK  status: ('A' for Active; 'I' for Inactive)
REMARK    1  A    between atoms: O_1  and  C_2
REMARK    2  A    between atoms: C_4  and  O_5
REMARK    3  A    between atoms: C_9  and  C_17
REMARK    4  A    between atoms: C_10  and  O_13
REMARK    5  A    between atoms: O_13  and  C_14
REMARK    6  A    between atoms: C_14  and  C_15
REMARK    7  A    between atoms: C_20  and  O_24
REMARK    8  A    between atoms: C_21  and  O_22
REMARK                            x       y       z     vdW  Elec       q    Type
REMARK                         _______ _______ _______ _____ _____    ______ ____
ROOT
ATOM      1  C   LIG A   1     -12.075   6.816 131.049  0.00  0.00    +0.124 A 
ATOM      2  C   LIG A   1     -11.633   6.740 129.734  0.00  0.00    +0.091 A 
ATOM      3  C   LIG A   1     -10.352   6.247 129.479  0.00  0.00    +0.127 A 
ATOM      4  C   LIG A   1      -9.509   5.834 130.519  0.00  0.00    +0.040 A 
ATOM      5  C   LIG A   1      -9.990   5.905 131.830  0.00  0.00    +0.132 A 
ATOM      6  O   LIG A   1      -9.262   5.542 132.929  0.00  0.00    -0.480 OA
ATOM      7  C   LIG A   1      -8.094   4.750 132.663  0.00  0.00    +0.244 C 
ATOM      8  C   LIG A   1      -7.258   5.297 131.495  0.00  0.00    +0.226 C 
ATOM      9  C   LIG A   1      -8.126   5.309 130.234  0.00  0.00    +0.091 C 
ATOM     10  C   LIG A   1     -11.264   6.405 132.097  0.00  0.00    +0.091 A 
ENDROOT
BRANCH   7  11
ATOM     11  C   LIG A   1      -7.307   4.609 133.957  0.00  0.00    -0.000 A 
ATOM     12  C   LIG A   1      -6.276   3.657 134.089  0.00  0.00    +0.011 A 
ATOM     13  C   LIG A   1      -5.509   3.578 135.255  0.00  0.00    +0.049 A 
ATOM     14  C   LIG A   1      -5.777   4.451 136.300  0.00  0.00    +0.158 A 
ATOM     15  C   LIG A   1      -6.806   5.381 136.190  0.00  0.00    +0.159 A 
ATOM     16  C   LIG A   1      -7.578   5.462 135.039  0.00  0.00    +0.056 A 
BRANCH  15  17
ATOM     17  O   LIG A   1      -7.054   6.245 137.219  0.00  0.00    -0.503 OA
ATOM     18  H   LIG A   1      -8.015   6.154 137.386  0.00  0.00    +0.292 HD
ENDBRANCH  15  17
BRANCH  14  19
ATOM     19  O   LIG A   1      -5.049   4.437 137.457  0.00  0.00    -0.503 OA
ATOM     20  H   LIG A   1      -4.998   3.517 137.767  0.00  0.00    +0.292 HD
ENDBRANCH  14  19
ENDBRANCH   7  11
BRANCH   1  21
ATOM     21  O   LIG A   1     -13.314   7.295 131.361  0.00  0.00    -0.506 OA
ATOM     22  H   LIG A   1     -13.229   8.197 131.712  0.00  0.00    +0.292 HD
ENDBRANCH   1  21
BRANCH   3  23
ATOM     23  O   LIG A   1      -9.890   6.165 128.194  0.00  0.00    -0.506 OA
ATOM     24  H   LIG A   1     -10.560   6.527 127.591  0.00  0.00    +0.292 HD
ENDBRANCH   3  23
BRANCH   8  25
ATOM     25  O   LIG A   1      -6.830   6.659 131.738  0.00  0.00    -0.457 OA
BRANCH  25  26
ATOM     26  C   LIG A   1      -5.623   7.014 131.231  0.00  0.00    +0.304 C 
ATOM     27  C   LIG A   1      -4.521   6.494 132.097  0.00  0.00    +0.136 C 
ATOM     28  O   LIG A   1      -5.439   7.679 130.219  0.00  0.00    -0.251 OA
ENDBRANCH  25  26
ENDBRANCH   8  25
TORSDOF 7
ENDMDL
MODEL 9
REMARK VINA RESULT:      -6.4      3.117      6.028
REMARK  Name = NuBBE_426
REMARK  8 active torsions:
REMARK  status: ('A' for Active; 'I' for Inactive)
REMARK    1  A    between atoms: O_1  and  C_2
REMARK    2  A    between atoms: C_4  and  O_5
REMARK    3  A    between atoms: C_9  and  C_17
REMARK    4  A    between atoms: C_10  and  O_13
REMARK    5  A    between atoms: O_13  and  C_14
REMARK    6  A    between atoms: C_14  and  C_15
REMARK    7  A    between atoms: C_20  and  O_24
REMARK    8  A    between atoms: C_21  and  O_22
REMARK                            x       y       z     vdW  Elec       q    Type
REMARK                         _______ _______ _______ _____ _____    ______ ____
ROOT
ATOM      1  C   LIG A   1      -5.870   4.863 125.401  0.00  0.00    +0.124 A 
ATOM      2  C   LIG A   1      -4.919   4.745 126.408  0.00  0.00    +0.091 A 
ATOM      3  C   LIG A   1      -4.606   3.475 126.897  0.00  0.00    +0.127 A 
ATOM      4  C   LIG A   1      -5.233   2.326 126.397  0.00  0.00    +0.040 A 
ATOM      5  C   LIG A   1      -6.171   2.476 125.370  0.00  0.00    +0.132 A 
ATOM      6  O   LIG A   1      -6.855   1.436 124.807  0.00  0.00    -0.480 OA
ATOM      7  C   LIG A   1      -6.320   0.129 125.069  0.00  0.00    +0.244 C 
ATOM      8  C   LIG A   1      -5.950  -0.076 126.547  0.00  0.00    +0.226 C 
ATOM      9  C   LIG A   1      -4.893   0.961 126.935  0.00  0.00    +0.091 C 
ATOM     10  C   LIG A   1      -6.498   3.740 124.882  0.00  0.00    +0.091 A 
ENDROOT
BRANCH   7  11
ATOM     11  C   LIG A   1      -7.304  -0.905 124.542  0.00  0.00    -0.000 A 
ATOM     12  C   LIG A   1      -7.187  -2.268 124.880  0.00  0.00    +0.011 A 
ATOM     13  C   LIG A   1      -8.133  -3.204 124.451  0.00  0.00    +0.049 A 
ATOM     14  C   LIG A   1      -9.200  -2.777 123.674  0.00  0.00    +0.158 A 
ATOM     15  C   LIG A   1      -9.315  -1.437 123.315  0.00  0.00    +0.159 A 
ATOM     16  C   LIG A   1      -8.377  -0.502 123.730  0.00  0.00    +0.056 A 
BRANCH  15  17
ATOM     17  O   LIG A   1     -10.376  -1.024 122.559  0.00  0.00    -0.503 OA
ATOM     18  H   LIG A   1     -10.061  -1.104 121.636  0.00  0.00    +0.292 HD
ENDBRANCH  15  17
BRANCH  14  19
ATOM     19  O   LIG A   1     -10.169  -3.639 123.241  0.00  0.00    -0.503 OA
ATOM     20  H   LIG A   1     -10.275  -4.332 123.914  0.00  0.00    +0.292 HD
ENDBRANCH  14  19
ENDBRANCH   7  11
BRANCH   1  21
ATOM     21  O   LIG A   1      -6.222   6.077 124.888  0.00  0.00    -0.506 OA
ATOM     22  H   LIG A   1      -6.424   5.978 123.943  0.00  0.00    +0.292 HD
ENDBRANCH   1  21
BRANCH   3  23
ATOM     23  O   LIG A   1      -3.677   3.330 127.891  0.00  0.00    -0.506 OA
ATOM     24  H   LIG A   1      -2.911   2.847 127.542  0.00  0.00    +0.292 HD
ENDBRANCH   3  23
BRANCH   8  25
ATOM     25  O   LIG A   1      -7.092   0.123 127.415  0.00  0.00    -0.457 OA
BRANCH  25  26
ATOM     26  C   LIG A   1      -7.090  -0.565 128.584  0.00  0.00    +0.304 C 
ATOM     27  C   LIG A   1      -7.733  -1.903 128.401  0.00  0.00    +0.136 C 
ATOM     28  O   LIG A   1      -6.647  -0.162 129.652  0.00  0.00    -0.251 OA
ENDBRANCH  25  26
ENDBRANCH   8  25
TORSDOF 7
ENDMDL
