MODEL 1
REMARK VINA RESULT:      -6.0      0.000      0.000
REMARK  Name = NuBBE_1853
REMARK  4 active torsions:
REMARK  status: ('A' for Active; 'I' for Inactive)
REMARK    1  A    between atoms: C_1  and  N_2
REMARK    2  A    between atoms: N_2  and  C_3
REMARK    3  A    between atoms: C_3  and  C_4
REMARK    4  A    between atoms: C_4  and  C_5
REMARK                            x       y       z     vdW  Elec       q    Type
REMARK                         _______ _______ _______ _____ _____    ______ ____
ROOT
ATOM      1  C   LIG A   1     -11.360   7.369 130.201  0.00  0.00    -0.021 A 
ATOM      2  C   LIG A   1     -12.348   6.828 131.001  0.00  0.00    +0.087 A 
ATOM      3  N   LIG A   1     -11.751   6.150 132.030  0.00  0.00    -0.360 N 
ATOM      4  C   LIG A   1     -10.383   6.235 131.922  0.00  0.00    +0.047 A 
ATOM      5  C   LIG A   1     -10.105   6.992 130.783  0.00  0.00    +0.003 A 
ATOM      6  C   LIG A   1      -8.756   7.224 130.446  0.00  0.00    +0.010 A 
ATOM      7  C   LIG A   1      -7.741   6.695 131.252  0.00  0.00    +0.001 A 
ATOM      8  C   LIG A   1      -8.052   5.945 132.384  0.00  0.00    +0.002 A 
ATOM      9  C   LIG A   1      -9.380   5.700 132.742  0.00  0.00    +0.026 A 
ATOM     10  H   LIG A   1     -12.238   5.656 132.762  0.00  0.00    +0.165 HD
ENDROOT
BRANCH   1  11
ATOM     11  C   LIG A   1     -11.570   8.187 128.963  0.00  0.00    +0.052 C 
BRANCH  11  12
ATOM     12  C   LIG A   1     -13.031   8.634 128.802  0.00  0.00    +0.085 C 
BRANCH  12  14
ATOM     13  C   LIG A   1     -13.352  10.618 130.133  0.00  0.00    +0.101 C 
ATOM     14  N   LIG A   1     -13.140  10.100 128.787  0.00  0.00    -0.319 NA
ATOM     15  H   LIG A   1     -12.283  10.500 128.406  0.00  0.00    +0.122 HD
ENDBRANCH  12  14
ENDBRANCH  11  12
ENDBRANCH   1  11
TORSDOF 3
ENDMDL
MODEL 2
REMARK VINA RESULT:      -6.0      1.642      2.094
REMARK  Name = NuBBE_1853
REMARK  4 active torsions:
REMARK  status: ('A' for Active; 'I' for Inactive)
REMARK    1  A    between atoms: C_1  and  N_2
REMARK    2  A    between atoms: N_2  and  C_3
REMARK    3  A    between atoms: C_3  and  C_4
REMARK    4  A    between atoms: C_4  and  C_5
REMARK                            x       y       z     vdW  Elec       q    Type
REMARK                         _______ _______ _______ _____ _____    ______ ____
ROOT
ATOM      1  C   LIG A   1     -11.920   7.372 129.801  0.00  0.00    -0.021 A 
ATOM      2  C   LIG A   1     -12.887   6.936 130.688  0.00  0.00    +0.087 A 
ATOM      3  N   LIG A   1     -12.261   6.393 131.778  0.00  0.00    -0.360 N 
ATOM      4  C   LIG A   1     -10.896   6.463 131.626  0.00  0.00    +0.047 A 
ATOM      5  C   LIG A   1     -10.650   7.071 130.394  0.00  0.00    +0.003 A 
ATOM      6  C   LIG A   1      -9.311   7.259 129.995  0.00  0.00    +0.010 A 
ATOM      7  C   LIG A   1      -8.274   6.834 130.835  0.00  0.00    +0.001 A 
ATOM      8  C   LIG A   1      -8.553   6.232 132.060  0.00  0.00    +0.002 A 
ATOM      9  C   LIG A   1      -9.872   6.034 132.479  0.00  0.00    +0.026 A 
ATOM     10  H   LIG A   1     -12.728   5.994 132.579  0.00  0.00    +0.165 HD
ENDROOT
BRANCH   1  11
ATOM     11  C   LIG A   1     -12.164   8.029 128.476  0.00  0.00    +0.052 C 
BRANCH  11  12
ATOM     12  C   LIG A   1     -12.862   7.090 127.481  0.00  0.00    +0.085 C 
BRANCH  12  14
ATOM     13  C   LIG A   1     -10.793   7.609 126.360  0.00  0.00    +0.101 C 
ATOM     14  N   LIG A   1     -11.982   6.766 126.349  0.00  0.00    -0.319 NA
ATOM     15  H   LIG A   1     -11.699   5.788 126.408  0.00  0.00    +0.122 HD
ENDBRANCH  12  14
ENDBRANCH  11  12
ENDBRANCH   1  11
TORSDOF 3
ENDMDL
MODEL 3
REMARK VINA RESULT:      -5.7      1.892      4.807
REMARK  Name = NuBBE_1853
REMARK  4 active torsions:
REMARK  status: ('A' for Active; 'I' for Inactive)
REMARK    1  A    between atoms: C_1  and  N_2
REMARK    2  A    between atoms: N_2  and  C_3
REMARK    3  A    between atoms: C_3  and  C_4
REMARK    4  A    between atoms: C_4  and  C_5
REMARK                            x       y       z     vdW  Elec       q    Type
REMARK                         _______ _______ _______ _____ _____    ______ ____
ROOT
ATOM      1  C   LIG A   1      -9.548   6.653 131.121  0.00  0.00    -0.021 A 
ATOM      2  C   LIG A   1     -10.276   6.004 132.100  0.00  0.00    +0.087 A 
ATOM      3  N   LIG A   1     -11.608   6.152 131.818  0.00  0.00    -0.360 N 
ATOM      4  C   LIG A   1     -11.771   6.888 130.668  0.00  0.00    +0.047 A 
ATOM      5  C   LIG A   1     -10.496   7.219 130.207  0.00  0.00    +0.003 A 
ATOM      6  C   LIG A   1     -10.388   7.985 129.028  0.00  0.00    +0.010 A 
ATOM      7  C   LIG A   1     -11.548   8.390 128.359  0.00  0.00    +0.001 A 
ATOM      8  C   LIG A   1     -12.807   8.041 128.844  0.00  0.00    +0.002 A 
ATOM      9  C   LIG A   1     -12.943   7.282 130.010  0.00  0.00    +0.026 A 
ATOM     10  H   LIG A   1     -12.365   5.780 132.372  0.00  0.00    +0.165 HD
ENDROOT
BRANCH   1  11
ATOM     11  C   LIG A   1      -8.054   6.743 131.041  0.00  0.00    +0.052 C 
BRANCH  11  12
ATOM     12  C   LIG A   1      -7.413   5.417 130.604  0.00  0.00    +0.085 C 
BRANCH  12  14
ATOM     13  C   LIG A   1      -8.295   3.759 129.094  0.00  0.00    +0.101 C 
ATOM     14  N   LIG A   1      -7.741   5.103 129.206  0.00  0.00    -0.319 NA
ATOM     15  H   LIG A   1      -8.424   5.776 128.858  0.00  0.00    +0.122 HD
ENDBRANCH  12  14
ENDBRANCH  11  12
ENDBRANCH   1  11
TORSDOF 3
ENDMDL
MODEL 4
REMARK VINA RESULT:      -5.6      1.877      5.049
REMARK  Name = NuBBE_1853
REMARK  4 active torsions:
REMARK  status: ('A' for Active; 'I' for Inactive)
REMARK    1  A    between atoms: C_1  and  N_2
REMARK    2  A    between atoms: N_2  and  C_3
REMARK    3  A    between atoms: C_3  and  C_4
REMARK    4  A    between atoms: C_4  and  C_5
REMARK                            x       y       z     vdW  Elec       q    Type
REMARK                         _______ _______ _______ _____ _____    ______ ____
ROOT
ATOM      1  C   LIG A   1      -9.526   6.670 131.145  0.00  0.00    -0.021 A 
ATOM      2  C   LIG A   1     -10.214   6.014 132.149  0.00  0.00    +0.087 A 
ATOM      3  N   LIG A   1     -11.556   6.131 131.902  0.00  0.00    -0.360 N 
ATOM      4  C   LIG A   1     -11.766   6.854 130.751  0.00  0.00    +0.047 A 
ATOM      5  C   LIG A   1     -10.511   7.208 130.253  0.00  0.00    +0.003 A 
ATOM      6  C   LIG A   1     -10.451   7.967 129.066  0.00  0.00    +0.010 A 
ATOM      7  C   LIG A   1     -11.638   8.341 128.425  0.00  0.00    +0.001 A 
ATOM      8  C   LIG A   1     -12.875   7.969 128.947  0.00  0.00    +0.002 A 
ATOM      9  C   LIG A   1     -12.963   7.218 130.122  0.00  0.00    +0.026 A 
ATOM     10  H   LIG A   1     -12.290   5.747 132.479  0.00  0.00    +0.165 HD
ENDROOT
BRANCH   1  11
ATOM     11  C   LIG A   1      -8.037   6.792 131.025  0.00  0.00    +0.052 C 
BRANCH  11  12
ATOM     12  C   LIG A   1      -7.299   6.002 132.116  0.00  0.00    +0.085 C 
BRANCH  12  14
ATOM     13  C   LIG A   1      -5.456   7.011 130.935  0.00  0.00    +0.101 C 
ATOM     14  N   LIG A   1      -5.880   6.382 132.180  0.00  0.00    -0.319 NA
ATOM     15  H   LIG A   1      -5.739   7.036 132.950  0.00  0.00    +0.122 HD
ENDBRANCH  12  14
ENDBRANCH  11  12
ENDBRANCH   1  11
TORSDOF 3
ENDMDL
MODEL 5
REMARK VINA RESULT:      -5.4      9.955     11.152
REMARK  Name = NuBBE_1853
REMARK  4 active torsions:
REMARK  status: ('A' for Active; 'I' for Inactive)
REMARK    1  A    between atoms: C_1  and  N_2
REMARK    2  A    between atoms: N_2  and  C_3
REMARK    3  A    between atoms: C_3  and  C_4
REMARK    4  A    between atoms: C_4  and  C_5
REMARK                            x       y       z     vdW  Elec       q    Type
REMARK                         _______ _______ _______ _____ _____    ______ ____
ROOT
ATOM      1  C   LIG A   1      -7.925   3.142 121.908  0.00  0.00    -0.021 A 
ATOM      2  C   LIG A   1      -9.094   3.173 121.171  0.00  0.00    +0.087 A 
ATOM      3  N   LIG A   1      -8.852   3.846 120.004  0.00  0.00    -0.360 N 
ATOM      4  C   LIG A   1      -7.541   4.259 119.957  0.00  0.00    +0.047 A 
ATOM      5  C   LIG A   1      -6.933   3.834 121.138  0.00  0.00    +0.003 A 
ATOM      6  C   LIG A   1      -5.571   4.140 121.339  0.00  0.00    +0.010 A 
ATOM      7  C   LIG A   1      -4.873   4.856 120.359  0.00  0.00    +0.001 A 
ATOM      8  C   LIG A   1      -5.509   5.264 119.189  0.00  0.00    +0.002 A 
ATOM      9  C   LIG A   1      -6.858   4.974 118.964  0.00  0.00    +0.026 A 
ATOM     10  H   LIG A   1      -9.533   4.019 119.279  0.00  0.00    +0.165 HD
ENDROOT
BRANCH   1  11
ATOM     11  C   LIG A   1      -7.741   2.506 123.253  0.00  0.00    +0.052 C 
BRANCH  11  12
ATOM     12  C   LIG A   1      -8.313   3.370 124.387  0.00  0.00    +0.085 C 
BRANCH  12  14
ATOM     13  C   LIG A   1      -9.863   1.524 124.377  0.00  0.00    +0.101 C 
ATOM     14  N   LIG A   1      -9.327   2.634 125.156  0.00  0.00    -0.319 NA
ATOM     15  H   LIG A   1      -8.907   2.270 126.011  0.00  0.00    +0.122 HD
ENDBRANCH  12  14
ENDBRANCH  11  12
ENDBRANCH   1  11
TORSDOF 3
ENDMDL
MODEL 6
REMARK VINA RESULT:      -5.2     10.854     11.629
REMARK  Name = NuBBE_1853
REMARK  4 active torsions:
REMARK  status: ('A' for Active; 'I' for Inactive)
REMARK    1  A    between atoms: C_1  and  N_2
REMARK    2  A    between atoms: N_2  and  C_3
REMARK    3  A    between atoms: C_3  and  C_4
REMARK    4  A    between atoms: C_4  and  C_5
REMARK                            x       y       z     vdW  Elec       q    Type
REMARK                         _______ _______ _______ _____ _____    ______ ____
ROOT
ATOM      1  C   LIG A   1      -7.740  -2.652 124.986  0.00  0.00    -0.021 A 
ATOM      2  C   LIG A   1      -6.574  -1.912 124.922  0.00  0.00    +0.087 A 
ATOM      3  N   LIG A   1      -6.087  -1.761 126.192  0.00  0.00    -0.360 N 
ATOM      4  C   LIG A   1      -6.912  -2.389 127.095  0.00  0.00    +0.047 A 
ATOM      5  C   LIG A   1      -7.960  -2.957 126.369  0.00  0.00    +0.003 A 
ATOM      6  C   LIG A   1      -8.956  -3.665 127.073  0.00  0.00    +0.010 A 
ATOM      7  C   LIG A   1      -8.871  -3.777 128.465  0.00  0.00    +0.001 A 
ATOM      8  C   LIG A   1      -7.811  -3.200 129.161  0.00  0.00    +0.002 A 
ATOM      9  C   LIG A   1      -6.809  -2.494 128.488  0.00  0.00    +0.026 A 
ATOM     10  H   LIG A   1      -5.247  -1.259 126.438  0.00  0.00    +0.165 HD
ENDROOT
BRANCH   1  11
ATOM     11  C   LIG A   1      -8.601  -3.051 123.826  0.00  0.00    +0.052 C 
BRANCH  11  12
ATOM     12  C   LIG A   1      -8.611  -1.989 122.717  0.00  0.00    +0.085 C 
BRANCH  12  14
ATOM     13  C   LIG A   1      -9.354   0.252 123.200  0.00  0.00    +0.101 C 
ATOM     14  N   LIG A   1      -9.774  -1.098 122.844  0.00  0.00    -0.319 NA
ATOM     15  H   LIG A   1     -10.277  -1.068 121.958  0.00  0.00    +0.122 HD
ENDBRANCH  12  14
ENDBRANCH  11  12
ENDBRANCH   1  11
TORSDOF 3
ENDMDL
MODEL 7
REMARK VINA RESULT:      -5.2     10.253     10.707
REMARK  Name = NuBBE_1853
REMARK  4 active torsions:
REMARK  status: ('A' for Active; 'I' for Inactive)
REMARK    1  A    between atoms: C_1  and  N_2
REMARK    2  A    between atoms: N_2  and  C_3
REMARK    3  A    between atoms: C_3  and  C_4
REMARK    4  A    between atoms: C_4  and  C_5
REMARK                            x       y       z     vdW  Elec       q    Type
REMARK                         _______ _______ _______ _____ _____    ______ ____
ROOT
ATOM      1  C   LIG A   1      -8.106   0.603 124.290  0.00  0.00    -0.021 A 
ATOM      2  C   LIG A   1      -8.151   0.815 125.655  0.00  0.00    +0.087 A 
ATOM      3  N   LIG A   1      -8.564  -0.342 126.259  0.00  0.00    -0.360 N 
ATOM      4  C   LIG A   1      -8.792  -1.315 125.315  0.00  0.00    +0.047 A 
ATOM      5  C   LIG A   1      -8.515  -0.752 124.069  0.00  0.00    +0.003 A 
ATOM      6  C   LIG A   1      -8.677  -1.555 122.920  0.00  0.00    +0.010 A 
ATOM      7  C   LIG A   1      -9.107  -2.880 123.059  0.00  0.00    +0.001 A 
ATOM      8  C   LIG A   1      -9.374  -3.412 124.318  0.00  0.00    +0.002 A 
ATOM      9  C   LIG A   1      -9.222  -2.639 125.472  0.00  0.00    +0.026 A 
ATOM     10  H   LIG A   1      -8.689  -0.468 127.253  0.00  0.00    +0.165 HD
ENDROOT
BRANCH   1  11
ATOM     11  C   LIG A   1      -7.707   1.606 123.250  0.00  0.00    +0.052 C 
BRANCH  11  12
ATOM     12  C   LIG A   1      -8.908   2.404 122.720  0.00  0.00    +0.085 C 
BRANCH  12  14
ATOM     13  C   LIG A   1      -8.841   3.692 120.684  0.00  0.00    +0.101 C 
ATOM     14  N   LIG A   1      -8.477   3.663 122.096  0.00  0.00    -0.319 NA
ATOM     15  H   LIG A   1      -8.922   4.447 122.572  0.00  0.00    +0.122 HD
ENDBRANCH  12  14
ENDBRANCH  11  12
ENDBRANCH   1  11
TORSDOF 3
ENDMDL
MODEL 8
REMARK VINA RESULT:      -5.1      9.012     10.418
REMARK  Name = NuBBE_1853
REMARK  4 active torsions:
REMARK  status: ('A' for Active; 'I' for Inactive)
REMARK    1  A    between atoms: C_1  and  N_2
REMARK    2  A    between atoms: N_2  and  C_3
REMARK    3  A    between atoms: C_3  and  C_4
REMARK    4  A    between atoms: C_4  and  C_5
REMARK                            x       y       z     vdW  Elec       q    Type
REMARK                         _______ _______ _______ _____ _____    ______ ____
ROOT
ATOM      1  C   LIG A   1      -6.581   3.414 123.770  0.00  0.00    -0.021 A 
ATOM      2  C   LIG A   1      -7.905   3.022 123.835  0.00  0.00    +0.087 A 
ATOM      3  N   LIG A   1      -8.458   3.155 122.590  0.00  0.00    -0.360 N 
ATOM      4  C   LIG A   1      -7.521   3.629 121.702  0.00  0.00    +0.047 A 
ATOM      5  C   LIG A   1      -6.332   3.803 122.412  0.00  0.00    +0.003 A 
ATOM      6  C   LIG A   1      -5.204   4.289 121.721  0.00  0.00    +0.010 A 
ATOM      7  C   LIG A   1      -5.303   4.582 120.356  0.00  0.00    +0.001 A 
ATOM      8  C   LIG A   1      -6.504   4.395 119.675  0.00  0.00    +0.002 A 
ATOM      9  C   LIG A   1      -7.638   3.914 120.336  0.00  0.00    +0.026 A 
ATOM     10  H   LIG A   1      -9.416   2.942 122.352  0.00  0.00    +0.165 HD
ENDROOT
BRANCH   1  11
ATOM     11  C   LIG A   1      -5.604   3.429 124.906  0.00  0.00    +0.052 C 
BRANCH  11  12
ATOM     12  C   LIG A   1      -6.174   4.116 126.155  0.00  0.00    +0.085 C 
BRANCH  12  14
ATOM     13  C   LIG A   1      -4.029   4.747 127.054  0.00  0.00    +0.101 C 
ATOM     14  N   LIG A   1      -5.321   5.234 126.584  0.00  0.00    -0.319 NA
ATOM     15  H   LIG A   1      -5.174   5.869 125.801  0.00  0.00    +0.122 HD
ENDBRANCH  12  14
ENDBRANCH  11  12
ENDBRANCH   1  11
TORSDOF 3
ENDMDL
MODEL 9
REMARK VINA RESULT:      -5.1      2.055      5.398
REMARK  Name = NuBBE_1853
REMARK  4 active torsions:
REMARK  status: ('A' for Active; 'I' for Inactive)
REMARK    1  A    between atoms: C_1  and  N_2
REMARK    2  A    between atoms: N_2  and  C_3
REMARK    3  A    between atoms: C_3  and  C_4
REMARK    4  A    between atoms: C_4  and  C_5
REMARK                            x       y       z     vdW  Elec       q    Type
REMARK                         _______ _______ _______ _____ _____    ______ ____
ROOT
ATOM      1  C   LIG A   1     -10.406   6.378 130.903  0.00  0.00    -0.021 A 
ATOM      2  C   LIG A   1      -9.521   5.861 129.976  0.00  0.00    +0.087 A 
ATOM      3  N   LIG A   1      -9.813   6.398 128.751  0.00  0.00    -0.360 N 
ATOM      4  C   LIG A   1     -10.878   7.262 128.854  0.00  0.00    +0.047 A 
ATOM      5  C   LIG A   1     -11.274   7.270 130.192  0.00  0.00    +0.003 A 
ATOM      6  C   LIG A   1     -12.363   8.085 130.563  0.00  0.00    +0.010 A 
ATOM      7  C   LIG A   1     -13.012   8.856 129.591  0.00  0.00    +0.001 A 
ATOM      8  C   LIG A   1     -12.592   8.827 128.264  0.00  0.00    +0.002 A 
ATOM      9  C   LIG A   1     -11.515   8.028 127.868  0.00  0.00    +0.026 A 
ATOM     10  H   LIG A   1      -9.324   6.192 127.892  0.00  0.00    +0.165 HD
ENDROOT
BRANCH   1  11
ATOM     11  C   LIG A   1     -10.444   6.058 132.367  0.00  0.00    +0.052 C 
BRANCH  11  12
ATOM     12  C   LIG A   1      -9.044   5.790 132.940  0.00  0.00    +0.085 C 
BRANCH  12  14
ATOM     13  C   LIG A   1      -9.168   3.471 133.582  0.00  0.00    +0.101 C 
ATOM     14  N   LIG A   1      -9.102   4.845 134.064  0.00  0.00    -0.319 NA
ATOM     15  H   LIG A   1      -8.271   4.957 134.644  0.00  0.00    +0.122 HD
ENDBRANCH  12  14
ENDBRANCH  11  12
ENDBRANCH   1  11
TORSDOF 3
ENDMDL
