MODEL 1
REMARK VINA RESULT:      -7.8      0.000      0.000
REMARK  Name = NuBBE_2070
REMARK  2 active torsions:
REMARK  status: ('A' for Active; 'I' for Inactive)
REMARK    1  A    between atoms: C_3  and  C_4
REMARK    2  A    between atoms: C_5  and  O_6
REMARK                            x       y       z     vdW  Elec       q    Type
REMARK                         _______ _______ _______ _____ _____    ______ ____
ROOT
ATOM      1  O   LIG A   1      -6.611  -3.831 124.353  0.00  0.00    -0.250 OA
ATOM      2  C   LIG A   1      -6.539  -2.641 124.500  0.00  0.00    +0.319 C 
ATOM      3  C   LIG A   1      -7.338  -1.565 123.786  0.00  0.00    +0.125 C 
ATOM      4  C   LIG A   1      -6.297  -1.464 122.545  0.00  0.00    +0.029 C 
ATOM      5  C   LIG A   1      -8.972  -1.329 122.902  0.00  0.00    +0.183 C 
ATOM      6  C   LIG A   1      -8.535  -0.020 123.124  0.00  0.00    +0.066 C 
ATOM      7  C   LIG A   1      -9.018  -0.292 124.850  0.00  0.00    +0.015 C 
ATOM      8  C   LIG A   1      -8.153   0.787 125.257  0.00  0.00    +0.005 C 
ATOM      9  C   LIG A   1      -9.654   1.304 124.339  0.00  0.00    +0.170 C 
ATOM     10  O   LIG A   1     -10.260  -0.095 123.317  0.00  0.00    -0.347 OA
ATOM     11  C   LIG A   1      -6.885   1.612 124.657  0.00  0.00    +0.008 C 
ATOM     12  C   LIG A   1      -5.954   1.866 125.857  0.00  0.00    +0.062 C 
ATOM     13  C   LIG A   1      -5.184   0.526 126.198  0.00  0.00    +0.056 C 
ATOM     14  C   LIG A   1      -5.933  -0.796 125.892  0.00  0.00    +0.182 C 
ATOM     15  O   LIG A   1      -5.449  -1.945 125.155  0.00  0.00    -0.461 OA
ATOM     16  C   LIG A   1      -7.272  -0.628 125.275  0.00  0.00    +0.060 C 
ATOM     17  C   LIG A   1      -7.091   2.740 123.636  0.00  0.00    +0.005 C 
ATOM     18  C   LIG A   1      -5.877   3.631 123.430  0.00  0.00    +0.008 C 
ATOM     19  C   LIG A   1      -5.354   4.156 124.744  0.00  0.00    +0.075 C 
ATOM     20  C   LIG A   1      -4.972   3.024 125.671  0.00  0.00    +0.137 C 
ATOM     21  O   LIG A   1      -3.967   3.119 126.378  0.00  0.00    -0.297 OA
ENDROOT
BRANCH   5  22
ATOM     22  O   LIG A   1      -9.789  -2.384 123.308  0.00  0.00    -0.364 OA
ATOM     23  H   LIG A   1     -10.110  -2.886 122.546  0.00  0.00    +0.213 HD
ENDBRANCH   5  22
TORSDOF 1
ENDMDL
MODEL 2
REMARK VINA RESULT:      -7.7      2.633      4.845
REMARK  Name = NuBBE_2070
REMARK  2 active torsions:
REMARK  status: ('A' for Active; 'I' for Inactive)
REMARK    1  A    between atoms: C_3  and  C_4
REMARK    2  A    between atoms: C_5  and  O_6
REMARK                            x       y       z     vdW  Elec       q    Type
REMARK                         _______ _______ _______ _____ _____    ______ ____
ROOT
ATOM      1  O   LIG A   1      -7.193   1.688 123.545  0.00  0.00    -0.250 OA
ATOM      2  C   LIG A   1      -7.115   0.828 124.382  0.00  0.00    +0.319 C 
ATOM      3  C   LIG A   1      -8.038  -0.360 124.582  0.00  0.00    +0.125 C 
ATOM      4  C   LIG A   1      -9.061   0.460 125.538  0.00  0.00    +0.029 C 
ATOM      5  C   LIG A   1      -9.231  -1.440 123.623  0.00  0.00    +0.183 C 
ATOM      6  C   LIG A   1      -9.017  -2.164 124.799  0.00  0.00    +0.066 C 
ATOM      7  C   LIG A   1      -7.401  -2.580 124.093  0.00  0.00    +0.015 C 
ATOM      8  C   LIG A   1      -6.908  -2.890 125.412  0.00  0.00    +0.005 C 
ATOM      9  C   LIG A   1      -8.129  -4.085 124.742  0.00  0.00    +0.170 C 
ATOM     10  O   LIG A   1      -9.152  -3.262 123.459  0.00  0.00    -0.347 OA
ATOM     11  C   LIG A   1      -7.309  -2.572 126.957  0.00  0.00    +0.008 C 
ATOM     12  C   LIG A   1      -5.973  -2.367 127.695  0.00  0.00    +0.062 C 
ATOM     13  C   LIG A   1      -5.403  -0.936 127.331  0.00  0.00    +0.056 C 
ATOM     14  C   LIG A   1      -5.758  -0.390 125.925  0.00  0.00    +0.182 C 
ATOM     15  O   LIG A   1      -6.311   0.905 125.585  0.00  0.00    -0.461 OA
ATOM     16  C   LIG A   1      -6.629  -1.275 125.112  0.00  0.00    +0.060 C 
ATOM     17  C   LIG A   1      -8.423  -3.360 127.660  0.00  0.00    +0.005 C 
ATOM     18  C   LIG A   1      -8.453  -3.195 129.170  0.00  0.00    +0.008 C 
ATOM     19  C   LIG A   1      -7.101  -3.476 129.778  0.00  0.00    +0.075 C 
ATOM     20  C   LIG A   1      -6.046  -2.555 129.211  0.00  0.00    +0.137 C 
ATOM     21  O   LIG A   1      -5.168  -2.097 129.946  0.00  0.00    -0.297 OA
ENDROOT
BRANCH   5  22
ATOM     22  O   LIG A   1      -8.919  -1.260 122.276  0.00  0.00    -0.364 OA
ATOM     23  H   LIG A   1      -9.721  -1.151 121.747  0.00  0.00    +0.213 HD
ENDBRANCH   5  22
TORSDOF 1
ENDMDL
MODEL 3
REMARK VINA RESULT:      -7.3      2.848      4.743
REMARK  Name = NuBBE_2070
REMARK  2 active torsions:
REMARK  status: ('A' for Active; 'I' for Inactive)
REMARK    1  A    between atoms: C_3  and  C_4
REMARK    2  A    between atoms: C_5  and  O_6
REMARK                            x       y       z     vdW  Elec       q    Type
REMARK                         _______ _______ _______ _____ _____    ______ ____
ROOT
ATOM      1  O   LIG A   1      -9.714  -3.123 123.228  0.00  0.00    -0.250 OA
ATOM      2  C   LIG A   1      -9.128  -2.923 124.258  0.00  0.00    +0.319 C 
ATOM      3  C   LIG A   1      -8.050  -1.890 124.530  0.00  0.00    +0.125 C 
ATOM      4  C   LIG A   1      -6.845  -2.864 124.046  0.00  0.00    +0.029 C 
ATOM      5  C   LIG A   1      -7.446  -0.233 123.898  0.00  0.00    +0.183 C 
ATOM      6  C   LIG A   1      -6.798  -0.363 125.129  0.00  0.00    +0.066 C 
ATOM      7  C   LIG A   1      -8.409   0.022 125.868  0.00  0.00    +0.015 C 
ATOM      8  C   LIG A   1      -7.980  -0.579 127.106  0.00  0.00    +0.005 C 
ATOM      9  C   LIG A   1      -7.165   1.013 126.696  0.00  0.00    +0.170 C 
ATOM     10  O   LIG A   1      -7.251   1.297 124.884  0.00  0.00    -0.347 OA
ATOM     11  C   LIG A   1      -6.833  -1.616 127.612  0.00  0.00    +0.008 C 
ATOM     12  C   LIG A   1      -7.508  -2.481 128.693  0.00  0.00    +0.062 C 
ATOM     13  C   LIG A   1      -8.447  -3.541 127.986  0.00  0.00    +0.056 C 
ATOM     14  C   LIG A   1      -9.081  -3.110 126.639  0.00  0.00    +0.182 C 
ATOM     15  O   LIG A   1      -9.088  -3.834 125.385  0.00  0.00    -0.461 OA
ATOM     16  C   LIG A   1      -8.687  -1.759 126.166  0.00  0.00    +0.060 C 
ATOM     17  C   LIG A   1      -5.391  -1.145 127.845  0.00  0.00    +0.005 C 
ATOM     18  C   LIG A   1      -4.528  -2.120 128.629  0.00  0.00    +0.008 C 
ATOM     19  C   LIG A   1      -5.198  -2.526 129.919  0.00  0.00    +0.075 C 
ATOM     20  C   LIG A   1      -6.541  -3.169 129.657  0.00  0.00    +0.137 C 
ATOM     21  O   LIG A   1      -6.903  -4.135 130.332  0.00  0.00    -0.297 OA
ENDROOT
BRANCH   5  22
ATOM     22  O   LIG A   1      -8.505   0.315 123.174  0.00  0.00    -0.364 OA
ATOM     23  H   LIG A   1      -8.660   1.235 123.430  0.00  0.00    +0.213 HD
ENDBRANCH   5  22
TORSDOF 1
ENDMDL
MODEL 4
REMARK VINA RESULT:      -7.3      5.498      7.635
REMARK  Name = NuBBE_2070
REMARK  2 active torsions:
REMARK  status: ('A' for Active; 'I' for Inactive)
REMARK    1  A    between atoms: C_3  and  C_4
REMARK    2  A    between atoms: C_5  and  O_6
REMARK                            x       y       z     vdW  Elec       q    Type
REMARK                         _______ _______ _______ _____ _____    ______ ____
ROOT
ATOM      1  O   LIG A   1      -3.001  -4.006 132.212  0.00  0.00    -0.250 OA
ATOM      2  C   LIG A   1      -3.819  -3.707 131.383  0.00  0.00    +0.319 C 
ATOM      3  C   LIG A   1      -5.324  -3.608 131.556  0.00  0.00    +0.125 C 
ATOM      4  C   LIG A   1      -5.573  -5.176 131.220  0.00  0.00    +0.029 C 
ATOM      5  C   LIG A   1      -6.608  -3.319 132.888  0.00  0.00    +0.183 C 
ATOM      6  C   LIG A   1      -7.330  -3.149 131.704  0.00  0.00    +0.066 C 
ATOM      7  C   LIG A   1      -6.483  -1.551 131.572  0.00  0.00    +0.015 C 
ATOM      8  C   LIG A   1      -6.762  -1.525 130.158  0.00  0.00    +0.005 C 
ATOM      9  C   LIG A   1      -8.225  -1.287 131.239  0.00  0.00    +0.170 C 
ATOM     10  O   LIG A   1      -7.890  -2.011 132.893  0.00  0.00    -0.347 OA
ATOM     11  C   LIG A   1      -7.167  -2.579 128.986  0.00  0.00    +0.008 C 
ATOM     12  C   LIG A   1      -6.397  -2.117 127.734  0.00  0.00    +0.062 C 
ATOM     13  C   LIG A   1      -4.881  -2.545 127.881  0.00  0.00    +0.056 C 
ATOM     14  C   LIG A   1      -4.318  -2.605 129.323  0.00  0.00    +0.182 C 
ATOM     15  O   LIG A   1      -3.588  -3.686 129.952  0.00  0.00    -0.461 OA
ATOM     16  C   LIG A   1      -5.299  -2.287 130.391  0.00  0.00    +0.060 C 
ATOM     17  C   LIG A   1      -8.616  -3.056 128.822  0.00  0.00    +0.005 C 
ATOM     18  C   LIG A   1      -8.903  -3.755 127.503  0.00  0.00    +0.008 C 
ATOM     19  C   LIG A   1      -8.456  -2.915 126.332  0.00  0.00    +0.075 C 
ATOM     20  C   LIG A   1      -6.977  -2.615 126.409  0.00  0.00    +0.137 C 
ATOM     21  O   LIG A   1      -6.293  -2.618 125.383  0.00  0.00    -0.297 OA
ENDROOT
BRANCH   5  22
ATOM     22  O   LIG A   1      -5.934  -2.724 133.954  0.00  0.00    -0.364 OA
ATOM     23  H   LIG A   1      -5.164  -2.228 133.643  0.00  0.00    +0.213 HD
ENDBRANCH   5  22
TORSDOF 1
ENDMDL
MODEL 5
REMARK VINA RESULT:      -7.3      1.923      2.653
REMARK  Name = NuBBE_2070
REMARK  2 active torsions:
REMARK  status: ('A' for Active; 'I' for Inactive)
REMARK    1  A    between atoms: C_3  and  C_4
REMARK    2  A    between atoms: C_5  and  O_6
REMARK                            x       y       z     vdW  Elec       q    Type
REMARK                         _______ _______ _______ _____ _____    ______ ____
ROOT
ATOM      1  O   LIG A   1      -9.837  -3.310 123.678  0.00  0.00    -0.250 OA
ATOM      2  C   LIG A   1      -9.209  -2.519 124.330  0.00  0.00    +0.319 C 
ATOM      3  C   LIG A   1      -8.797  -1.111 123.940  0.00  0.00    +0.125 C 
ATOM      4  C   LIG A   1      -7.422  -1.597 123.227  0.00  0.00    +0.029 C 
ATOM      5  C   LIG A   1      -9.317   0.282 122.802  0.00  0.00    +0.183 C 
ATOM      6  C   LIG A   1      -8.419   0.900 123.675  0.00  0.00    +0.066 C 
ATOM      7  C   LIG A   1      -9.757   0.822 124.896  0.00  0.00    +0.015 C 
ATOM      8  C   LIG A   1      -8.792   0.960 125.957  0.00  0.00    +0.005 C 
ATOM      9  C   LIG A   1      -9.052   2.470 124.948  0.00  0.00    +0.170 C 
ATOM     10  O   LIG A   1      -9.711   1.999 123.300  0.00  0.00    -0.347 OA
ATOM     11  C   LIG A   1      -7.190   0.763 126.168  0.00  0.00    +0.008 C 
ATOM     12  C   LIG A   1      -7.031   0.164 127.577  0.00  0.00    +0.062 C 
ATOM     13  C   LIG A   1      -7.421  -1.369 127.527  0.00  0.00    +0.056 C 
ATOM     14  C   LIG A   1      -8.493  -1.773 126.483  0.00  0.00    +0.182 C 
ATOM     15  O   LIG A   1      -8.429  -2.842 125.508  0.00  0.00    -0.461 OA
ATOM     16  C   LIG A   1      -8.987  -0.662 125.632  0.00  0.00    +0.060 C 
ATOM     17  C   LIG A   1      -6.197   1.842 125.712  0.00  0.00    +0.005 C 
ATOM     18  C   LIG A   1      -4.793   1.681 126.271  0.00  0.00    +0.008 C 
ATOM     19  C   LIG A   1      -4.816   1.542 127.773  0.00  0.00    +0.075 C 
ATOM     20  C   LIG A   1      -5.646   0.352 128.198  0.00  0.00    +0.137 C 
ATOM     21  O   LIG A   1      -5.276  -0.352 129.140  0.00  0.00    -0.297 OA
ENDROOT
BRANCH   5  22
ATOM     22  O   LIG A   1     -10.645   0.029 122.460  0.00  0.00    -0.364 OA
ATOM     23  H   LIG A   1     -10.835   0.331 121.561  0.00  0.00    +0.213 HD
ENDBRANCH   5  22
TORSDOF 1
ENDMDL
MODEL 6
REMARK VINA RESULT:      -7.3      3.127      5.346
REMARK  Name = NuBBE_2070
REMARK  2 active torsions:
REMARK  status: ('A' for Active; 'I' for Inactive)
REMARK    1  A    between atoms: C_3  and  C_4
REMARK    2  A    between atoms: C_5  and  O_6
REMARK                            x       y       z     vdW  Elec       q    Type
REMARK                         _______ _______ _______ _____ _____    ______ ____
ROOT
ATOM      1  O   LIG A   1      -8.639   3.489 125.355  0.00  0.00    -0.250 OA
ATOM      2  C   LIG A   1      -8.417   2.445 125.908  0.00  0.00    +0.319 C 
ATOM      3  C   LIG A   1      -8.250   1.075 125.277  0.00  0.00    +0.125 C 
ATOM      4  C   LIG A   1      -9.838   0.745 125.317  0.00  0.00    +0.029 C 
ATOM      5  C   LIG A   1      -7.761   0.285 123.651  0.00  0.00    +0.183 C 
ATOM      6  C   LIG A   1      -7.713  -0.781 124.552  0.00  0.00    +0.066 C 
ATOM      7  C   LIG A   1      -6.171  -0.036 125.147  0.00  0.00    +0.015 C 
ATOM      8  C   LIG A   1      -6.307  -0.755 126.389  0.00  0.00    +0.005 C 
ATOM      9  C   LIG A   1      -5.894  -1.795 124.935  0.00  0.00    +0.170 C 
ATOM     10  O   LIG A   1      -6.423  -0.940 123.399  0.00  0.00    -0.347 OA
ATOM     11  C   LIG A   1      -7.481  -1.506 127.228  0.00  0.00    +0.008 C 
ATOM     12  C   LIG A   1      -7.200  -1.184 128.708  0.00  0.00    +0.062 C 
ATOM     13  C   LIG A   1      -7.654   0.303 129.002  0.00  0.00    +0.056 C 
ATOM     14  C   LIG A   1      -7.556   1.300 127.821  0.00  0.00    +0.182 C 
ATOM     15  O   LIG A   1      -8.576   2.203 127.328  0.00  0.00    -0.461 OA
ATOM     16  C   LIG A   1      -7.081   0.712 126.543  0.00  0.00    +0.060 C 
ATOM     17  C   LIG A   1      -7.930  -2.927 126.859  0.00  0.00    +0.005 C 
ATOM     18  C   LIG A   1      -8.773  -3.616 127.918  0.00  0.00    +0.008 C 
ATOM     19  C   LIG A   1      -8.096  -3.577 129.266  0.00  0.00    +0.075 C 
ATOM     20  C   LIG A   1      -7.835  -2.155 129.705  0.00  0.00    +0.137 C 
ATOM     21  O   LIG A   1      -7.984  -1.837 130.887  0.00  0.00    -0.297 OA
ENDROOT
BRANCH   5  22
ATOM     22  O   LIG A   1      -7.063   1.260 122.940  0.00  0.00    -0.364 OA
ATOM     23  H   LIG A   1      -7.642   1.999 122.706  0.00  0.00    +0.213 HD
ENDBRANCH   5  22
TORSDOF 1
ENDMDL
MODEL 7
REMARK VINA RESULT:      -7.2      1.863      5.782
REMARK  Name = NuBBE_2070
REMARK  2 active torsions:
REMARK  status: ('A' for Active; 'I' for Inactive)
REMARK    1  A    between atoms: C_3  and  C_4
REMARK    2  A    between atoms: C_5  and  O_6
REMARK                            x       y       z     vdW  Elec       q    Type
REMARK                         _______ _______ _______ _____ _____    ______ ____
ROOT
ATOM      1  O   LIG A   1      -8.627   4.520 125.292  0.00  0.00    -0.250 OA
ATOM      2  C   LIG A   1      -8.433   3.334 125.319  0.00  0.00    +0.319 C 
ATOM      3  C   LIG A   1      -7.111   2.612 125.510  0.00  0.00    +0.125 C 
ATOM      4  C   LIG A   1      -6.754   2.623 123.927  0.00  0.00    +0.029 C 
ATOM      5  C   LIG A   1      -5.417   2.878 126.262  0.00  0.00    +0.183 C 
ATOM      6  C   LIG A   1      -5.459   1.498 126.046  0.00  0.00    +0.066 C 
ATOM      7  C   LIG A   1      -6.561   1.440 127.484  0.00  0.00    +0.015 C 
ATOM      8  C   LIG A   1      -7.061   0.162 127.045  0.00  0.00    +0.005 C 
ATOM      9  C   LIG A   1      -5.336   0.144 127.668  0.00  0.00    +0.170 C 
ATOM     10  O   LIG A   1      -4.616   1.826 127.529  0.00  0.00    -0.347 OA
ATOM     11  C   LIG A   1      -7.110  -0.710 125.671  0.00  0.00    +0.008 C 
ATOM     12  C   LIG A   1      -8.489  -1.395 125.667  0.00  0.00    +0.062 C 
ATOM     13  C   LIG A   1      -9.589  -0.327 125.273  0.00  0.00    +0.056 C 
ATOM     14  C   LIG A   1      -9.303   1.140 125.683  0.00  0.00    +0.182 C 
ATOM     15  O   LIG A   1      -9.365   2.326 124.855  0.00  0.00    -0.461 OA
ATOM     16  C   LIG A   1      -8.003   1.356 126.365  0.00  0.00    +0.060 C 
ATOM     17  C   LIG A   1      -5.889  -1.515 125.205  0.00  0.00    +0.005 C 
ATOM     18  C   LIG A   1      -6.185  -2.531 124.114  0.00  0.00    +0.008 C 
ATOM     19  C   LIG A   1      -7.332  -3.431 124.502  0.00  0.00    +0.075 C 
ATOM     20  C   LIG A   1      -8.586  -2.631 124.772  0.00  0.00    +0.137 C 
ATOM     21  O   LIG A   1      -9.682  -3.063 124.408  0.00  0.00    -0.297 OA
ENDROOT
BRANCH   5  22
ATOM     22  O   LIG A   1      -5.552   3.935 127.160  0.00  0.00    -0.364 OA
ATOM     23  H   LIG A   1      -4.718   4.416 127.257  0.00  0.00    +0.213 HD
ENDBRANCH   5  22
TORSDOF 1
ENDMDL
MODEL 8
REMARK VINA RESULT:      -7.2      6.631      8.922
REMARK  Name = NuBBE_2070
REMARK  2 active torsions:
REMARK  status: ('A' for Active; 'I' for Inactive)
REMARK    1  A    between atoms: C_3  and  C_4
REMARK    2  A    between atoms: C_5  and  O_6
REMARK                            x       y       z     vdW  Elec       q    Type
REMARK                         _______ _______ _______ _____ _____    ______ ____
ROOT
ATOM      1  O   LIG A   1     -11.048   4.375 129.975  0.00  0.00    -0.250 OA
ATOM      2  C   LIG A   1      -9.875   4.635 129.971  0.00  0.00    +0.319 C 
ATOM      3  C   LIG A   1      -9.094   5.426 131.005  0.00  0.00    +0.125 C 
ATOM      4  C   LIG A   1      -9.401   6.855 130.300  0.00  0.00    +0.029 C 
ATOM      5  C   LIG A   1      -9.163   5.898 132.816  0.00  0.00    +0.183 C 
ATOM      6  C   LIG A   1      -7.853   6.218 132.451  0.00  0.00    +0.066 C 
ATOM      7  C   LIG A   1      -7.547   4.431 132.486  0.00  0.00    +0.015 C 
ATOM      8  C   LIG A   1      -6.392   4.617 131.644  0.00  0.00    +0.005 C 
ATOM      9  C   LIG A   1      -6.207   5.243 133.358  0.00  0.00    +0.170 C 
ATOM     10  O   LIG A   1      -7.865   5.583 134.069  0.00  0.00    -0.347 OA
ATOM     11  C   LIG A   1      -5.805   5.745 130.629  0.00  0.00    +0.008 C 
ATOM     12  C   LIG A   1      -5.171   4.962 129.465  0.00  0.00    +0.062 C 
ATOM     13  C   LIG A   1      -6.324   4.420 128.525  0.00  0.00    +0.056 C 
ATOM     14  C   LIG A   1      -7.675   4.095 129.211  0.00  0.00    +0.182 C 
ATOM     15  O   LIG A   1      -9.000   4.529 128.820  0.00  0.00    -0.461 OA
ATOM     16  C   LIG A   1      -7.721   4.376 130.668  0.00  0.00    +0.060 C 
ATOM     17  C   LIG A   1      -5.073   6.983 131.165  0.00  0.00    +0.005 C 
ATOM     18  C   LIG A   1      -4.295   7.759 130.115  0.00  0.00    +0.008 C 
ATOM     19  C   LIG A   1      -3.368   6.854 129.342  0.00  0.00    +0.075 C 
ATOM     20  C   LIG A   1      -4.134   5.745 128.657  0.00  0.00    +0.137 C 
ATOM     21  O   LIG A   1      -3.811   5.381 127.524  0.00  0.00    -0.297 OA
ENDROOT
BRANCH   5  22
ATOM     22  O   LIG A   1     -10.030   4.988 133.421  0.00  0.00    -0.364 OA
ATOM     23  H   LIG A   1      -9.540   4.261 133.829  0.00  0.00    +0.213 HD
ENDBRANCH   5  22
TORSDOF 1
ENDMDL
MODEL 9
REMARK VINA RESULT:      -7.0      7.727      9.040
REMARK  Name = NuBBE_2070
REMARK  2 active torsions:
REMARK  status: ('A' for Active; 'I' for Inactive)
REMARK    1  A    between atoms: C_3  and  C_4
REMARK    2  A    between atoms: C_5  and  O_6
REMARK                            x       y       z     vdW  Elec       q    Type
REMARK                         _______ _______ _______ _____ _____    ______ ____
ROOT
ATOM      1  O   LIG A   1     -10.117   1.105 132.149  0.00  0.00    -0.250 OA
ATOM      2  C   LIG A   1      -9.361   2.022 132.331  0.00  0.00    +0.319 C 
ATOM      3  C   LIG A   1      -9.039   3.164 131.385  0.00  0.00    +0.125 C 
ATOM      4  C   LIG A   1      -7.852   2.350 130.636  0.00  0.00    +0.029 C 
ATOM      5  C   LIG A   1      -9.790   4.105 129.949  0.00  0.00    +0.183 C 
ATOM      6  C   LIG A   1      -8.723   4.917 130.342  0.00  0.00    +0.066 C 
ATOM      7  C   LIG A   1      -9.767   5.381 131.750  0.00  0.00    +0.015 C 
ATOM      8  C   LIG A   1      -8.595   5.806 132.473  0.00  0.00    +0.005 C 
ATOM      9  C   LIG A   1      -9.063   6.879 131.061  0.00  0.00    +0.170 C 
ATOM     10  O   LIG A   1     -10.063   5.913 129.862  0.00  0.00    -0.347 OA
ATOM     11  C   LIG A   1      -6.986   5.569 132.415  0.00  0.00    +0.008 C 
ATOM     12  C   LIG A   1      -6.528   5.494 133.883  0.00  0.00    +0.062 C 
ATOM     13  C   LIG A   1      -6.923   4.078 134.470  0.00  0.00    +0.056 C 
ATOM     14  C   LIG A   1      -8.195   3.418 133.880  0.00  0.00    +0.182 C 
ATOM     15  O   LIG A   1      -8.346   2.074 133.364  0.00  0.00    -0.461 OA
ATOM     16  C   LIG A   1      -8.859   4.194 132.802  0.00  0.00    +0.060 C 
ATOM     17  C   LIG A   1      -6.112   6.334 131.412  0.00  0.00    +0.005 C 
ATOM     18  C   LIG A   1      -4.621   6.269 131.698  0.00  0.00    +0.008 C 
ATOM     19  C   LIG A   1      -4.319   6.670 133.120  0.00  0.00    +0.075 C 
ATOM     20  C   LIG A   1      -5.041   5.777 134.104  0.00  0.00    +0.137 C 
ATOM     21  O   LIG A   1      -4.478   5.423 135.142  0.00  0.00    -0.297 OA
ENDROOT
BRANCH   5  22
ATOM     22  O   LIG A   1     -11.160   3.854 129.996  0.00  0.00    -0.364 OA
ATOM     23  H   LIG A   1     -11.468   3.777 130.910  0.00  0.00    +0.213 HD
ENDBRANCH   5  22
TORSDOF 1
ENDMDL
