MODEL 1
REMARK VINA RESULT:      -7.5      0.000      0.000
REMARK  Name = NuBBE_946
REMARK  10 active torsions:
REMARK  status: ('A' for Active; 'I' for Inactive)
REMARK    1  A    between atoms: C_1  and  O_2
REMARK    2  A    between atoms: O_2  and  C_3
REMARK    3  A    between atoms: C_5  and  C_6
REMARK    4  A    between atoms: C_8  and  O_10
REMARK    5  A    between atoms: O_10  and  C_11
REMARK    6  A    between atoms: C_11  and  C_12
REMARK    7  A    between atoms: C_12  and  C_13
REMARK    8  A    between atoms: C_12  and  C_14
REMARK    9  A    between atoms: C_27  and  C_29
REMARK   10  A    between atoms: C_30  and  O_32
REMARK                            x       y       z     vdW  Elec       q    Type
REMARK                         _______ _______ _______ _____ _____    ______ ____
ROOT
ATOM      1  C   LIG A   1      -7.388   3.409 123.511  0.00  0.00    +0.155 C 
ATOM      2  C   LIG A   1      -8.173   2.250 124.167  0.00  0.00    +0.100 C 
ATOM      3  C   LIG A   1      -9.465   1.963 123.401  0.00  0.00    +0.044 C 
ATOM      4  C   LIG A   1      -7.324   0.966 124.338  0.00  0.00    +0.083 C 
ATOM      5  C   LIG A   1      -7.617   0.154 125.621  0.00  0.00    +0.190 C 
ATOM      6  C   LIG A   1      -6.445   0.233 126.624  0.00  0.00    +0.109 C 
ATOM      7  C   LIG A   1      -6.567  -0.424 127.961  0.00  0.00    +0.040 C 
ATOM      8  C   LIG A   1      -7.504  -1.217 128.489  0.00  0.00    +0.020 C 
ATOM      9  C   LIG A   1      -5.830   1.558 127.064  0.00  0.00    +0.220 C 
ATOM     10  O   LIG A   1      -4.875   1.116 128.072  0.00  0.00    -0.455 OA
ATOM     11  C   LIG A   1      -5.385   0.036 128.738  0.00  0.00    +0.336 C 
ATOM     12  O   LIG A   1      -4.951  -0.450 129.761  0.00  0.00    -0.245 OA
ATOM     13  C   LIG A   1      -6.677   2.613 127.740  0.00  0.00    +0.197 C 
ATOM     14  C   LIG A   1      -7.449   3.838 127.207  0.00  0.00    +0.150 C 
ATOM     15  O   LIG A   1      -6.068   3.914 127.539  0.00  0.00    -0.356 OA
ATOM     16  C   LIG A   1      -8.310   4.575 128.200  0.00  0.00    +0.050 C 
ATOM     17  C   LIG A   1      -7.851   3.917 125.759  0.00  0.00    +0.202 C 
ATOM     18  O   LIG A   1      -8.563   2.722 125.464  0.00  0.00    -0.337 OA
ATOM     19  C   LIG A   1      -6.749   4.066 124.725  0.00  0.00    +0.102 C 
ENDROOT
BRANCH   1  21
ATOM     20  C   LIG A   1      -6.536   3.617 121.301  0.00  0.00    +0.194 C 
ATOM     21  O   LIG A   1      -6.456   2.935 122.545  0.00  0.00    -0.377 OA
ENDBRANCH   1  21
BRANCH  17  22
ATOM     22  O   LIG A   1      -8.771   4.979 125.534  0.00  0.00    -0.362 OA
ATOM     23  H   LIG A   1      -9.043   5.254 126.426  0.00  0.00    +0.213 HD
ENDBRANCH  17  22
BRANCH   5  24
ATOM     24  O   LIG A   1      -7.674  -1.264 125.251  0.00  0.00    -0.460 OA
BRANCH  24  25
ATOM     25  C   LIG A   1      -8.892  -1.870 125.217  0.00  0.00    +0.310 C 
ATOM     26  O   LIG A   1      -9.928  -1.382 125.644  0.00  0.00    -0.251 OA
BRANCH  25  27
ATOM     27  C   LIG A   1      -8.768  -3.272 124.650  0.00  0.00    +0.092 C 
ATOM     28  C   LIG A   1      -9.564  -3.341 123.353  0.00  0.00    +0.019 C 
ATOM     29  C   LIG A   1      -7.306  -3.640 124.409  0.00  0.00    +0.019 C 
ENDBRANCH  25  27
ENDBRANCH  24  25
ENDBRANCH   5  24
TORSDOF 5
ENDMDL
MODEL 2
REMARK VINA RESULT:      -7.3      1.891      4.893
REMARK  Name = NuBBE_946
REMARK  10 active torsions:
REMARK  status: ('A' for Active; 'I' for Inactive)
REMARK    1  A    between atoms: C_1  and  O_2
REMARK    2  A    between atoms: O_2  and  C_3
REMARK    3  A    between atoms: C_5  and  C_6
REMARK    4  A    between atoms: C_8  and  O_10
REMARK    5  A    between atoms: O_10  and  C_11
REMARK    6  A    between atoms: C_11  and  C_12
REMARK    7  A    between atoms: C_12  and  C_13
REMARK    8  A    between atoms: C_12  and  C_14
REMARK    9  A    between atoms: C_27  and  C_29
REMARK   10  A    between atoms: C_30  and  O_32
REMARK                            x       y       z     vdW  Elec       q    Type
REMARK                         _______ _______ _______ _____ _____    ______ ____
ROOT
ATOM      1  C   LIG A   1      -7.290   2.982 128.640  0.00  0.00    +0.155 C 
ATOM      2  C   LIG A   1      -6.825   1.693 127.925  0.00  0.00    +0.100 C 
ATOM      3  C   LIG A   1      -5.665   1.040 128.676  0.00  0.00    +0.044 C 
ATOM      4  C   LIG A   1      -7.978   0.686 127.685  0.00  0.00    +0.083 C 
ATOM      5  C   LIG A   1      -7.888  -0.108 126.361  0.00  0.00    +0.190 C 
ATOM      6  C   LIG A   1      -8.984   0.326 125.362  0.00  0.00    +0.109 C 
ATOM      7  C   LIG A   1      -9.018  -0.271 123.992  0.00  0.00    +0.040 C 
ATOM      8  C   LIG A   1      -8.313  -1.253 123.424  0.00  0.00    +0.020 C 
ATOM      9  C   LIG A   1      -9.226   1.786 124.993  0.00  0.00    +0.220 C 
ATOM     10  O   LIG A   1     -10.248   1.661 123.962  0.00  0.00    -0.455 OA
ATOM     11  C   LIG A   1     -10.028   0.521 123.240  0.00  0.00    +0.336 C 
ATOM     12  O   LIG A   1     -10.558   0.218 122.192  0.00  0.00    -0.245 OA
ATOM     13  C   LIG A   1      -8.123   2.616 124.375  0.00  0.00    +0.197 C 
ATOM     14  C   LIG A   1      -7.065   3.568 124.973  0.00  0.00    +0.150 C 
ATOM     15  O   LIG A   1      -8.373   4.019 124.644  0.00  0.00    -0.356 OA
ATOM     16  C   LIG A   1      -6.028   4.105 124.021  0.00  0.00    +0.050 C 
ATOM     17  C   LIG A   1      -6.678   3.466 126.423  0.00  0.00    +0.202 C 
ATOM     18  O   LIG A   1      -6.307   2.113 126.654  0.00  0.00    -0.337 OA
ATOM     19  C   LIG A   1      -7.718   3.844 127.462  0.00  0.00    +0.102 C 
ENDROOT
BRANCH   1  21
ATOM     20  C   LIG A   1      -8.956   3.896 130.071  0.00  0.00    +0.194 C 
ATOM     21  O   LIG A   1      -8.328   2.719 129.579  0.00  0.00    -0.377 OA
ENDBRANCH   1  21
BRANCH  17  22
ATOM     22  O   LIG A   1      -5.516   4.237 126.705  0.00  0.00    -0.362 OA
ATOM     23  H   LIG A   1      -5.163   4.468 125.828  0.00  0.00    +0.213 HD
ENDBRANCH  17  22
BRANCH   5  24
ATOM     24  O   LIG A   1      -8.208  -1.508 126.655  0.00  0.00    -0.460 OA
BRANCH  24  25
ATOM     25  C   LIG A   1      -7.355  -2.208 127.452  0.00  0.00    +0.310 C 
ATOM     26  O   LIG A   1      -6.151  -2.304 127.271  0.00  0.00    -0.251 OA
BRANCH  25  27
ATOM     27  C   LIG A   1      -8.123  -2.922 128.549  0.00  0.00    +0.092 C 
ATOM     28  C   LIG A   1      -8.963  -4.022 127.912  0.00  0.00    +0.019 C 
ATOM     29  C   LIG A   1      -7.174  -3.502 129.595  0.00  0.00    +0.019 C 
ENDBRANCH  25  27
ENDBRANCH  24  25
ENDBRANCH   5  24
TORSDOF 5
ENDMDL
MODEL 3
REMARK VINA RESULT:      -7.2      2.089      2.986
REMARK  Name = NuBBE_946
REMARK  10 active torsions:
REMARK  status: ('A' for Active; 'I' for Inactive)
REMARK    1  A    between atoms: C_1  and  O_2
REMARK    2  A    between atoms: O_2  and  C_3
REMARK    3  A    between atoms: C_5  and  C_6
REMARK    4  A    between atoms: C_8  and  O_10
REMARK    5  A    between atoms: O_10  and  C_11
REMARK    6  A    between atoms: C_11  and  C_12
REMARK    7  A    between atoms: C_12  and  C_13
REMARK    8  A    between atoms: C_12  and  C_14
REMARK    9  A    between atoms: C_27  and  C_29
REMARK   10  A    between atoms: C_30  and  O_32
REMARK                            x       y       z     vdW  Elec       q    Type
REMARK                         _______ _______ _______ _____ _____    ______ ____
ROOT
ATOM      1  C   LIG A   1      -6.918   2.529 126.448  0.00  0.00    +0.155 C 
ATOM      2  C   LIG A   1      -7.894   1.338 126.308  0.00  0.00    +0.100 C 
ATOM      3  C   LIG A   1      -8.910   1.593 125.194  0.00  0.00    +0.044 C 
ATOM      4  C   LIG A   1      -7.170  -0.016 126.109  0.00  0.00    +0.083 C 
ATOM      5  C   LIG A   1      -7.850  -1.228 126.788  0.00  0.00    +0.190 C 
ATOM      6  C   LIG A   1      -7.025  -1.748 127.985  0.00  0.00    +0.109 C 
ATOM      7  C   LIG A   1      -7.554  -2.868 128.821  0.00  0.00    +0.040 C 
ATOM      8  C   LIG A   1      -8.626  -3.654 128.692  0.00  0.00    +0.020 C 
ATOM      9  C   LIG A   1      -6.529  -0.831 129.100  0.00  0.00    +0.220 C 
ATOM     10  O   LIG A   1      -5.927  -1.788 130.018  0.00  0.00    -0.455 OA
ATOM     11  C   LIG A   1      -6.641  -2.954 129.992  0.00  0.00    +0.336 C 
ATOM     12  O   LIG A   1      -6.542  -3.877 130.772  0.00  0.00    -0.245 OA
ATOM     13  C   LIG A   1      -7.508  -0.030 129.929  0.00  0.00    +0.197 C 
ATOM     14  C   LIG A   1      -8.054   1.408 129.809  0.00  0.00    +0.150 C 
ATOM     15  O   LIG A   1      -6.831   1.129 130.478  0.00  0.00    -0.356 OA
ATOM     16  C   LIG A   1      -9.148   1.796 130.770  0.00  0.00    +0.050 C 
ATOM     17  C   LIG A   1      -8.009   2.135 128.492  0.00  0.00    +0.202 C 
ATOM     18  O   LIG A   1      -8.635   1.290 127.535  0.00  0.00    -0.337 OA
ATOM     19  C   LIG A   1      -6.647   2.525 127.944  0.00  0.00    +0.102 C 
ENDROOT
BRANCH   1  21
ATOM     20  C   LIG A   1      -4.546   2.649 126.328  0.00  0.00    +0.194 C 
ATOM     21  O   LIG A   1      -5.757   2.357 125.643  0.00  0.00    -0.377 OA
ENDBRANCH   1  21
BRANCH  17  22
ATOM     22  O   LIG A   1      -8.791   3.323 128.529  0.00  0.00    -0.362 OA
ATOM     23  H   LIG A   1      -8.565   3.785 127.703  0.00  0.00    +0.213 HD
ENDBRANCH  17  22
BRANCH   5  24
ATOM     24  O   LIG A   1      -7.836  -2.341 125.834  0.00  0.00    -0.460 OA
BRANCH  24  25
ATOM     25  C   LIG A   1      -8.951  -2.561 125.086  0.00  0.00    +0.310 C 
ATOM     26  O   LIG A   1     -10.067  -2.768 125.538  0.00  0.00    -0.251 OA
BRANCH  25  27
ATOM     27  C   LIG A   1      -8.598  -2.597 123.610  0.00  0.00    +0.092 C 
ATOM     28  C   LIG A   1      -9.233  -1.389 122.933  0.00  0.00    +0.019 C 
ATOM     29  C   LIG A   1      -7.085  -2.599 123.408  0.00  0.00    +0.019 C 
ENDBRANCH  25  27
ENDBRANCH  24  25
ENDBRANCH   5  24
TORSDOF 5
ENDMDL
MODEL 4
REMARK VINA RESULT:      -6.9      1.769      5.325
REMARK  Name = NuBBE_946
REMARK  10 active torsions:
REMARK  status: ('A' for Active; 'I' for Inactive)
REMARK    1  A    between atoms: C_1  and  O_2
REMARK    2  A    between atoms: O_2  and  C_3
REMARK    3  A    between atoms: C_5  and  C_6
REMARK    4  A    between atoms: C_8  and  O_10
REMARK    5  A    between atoms: O_10  and  C_11
REMARK    6  A    between atoms: C_11  and  C_12
REMARK    7  A    between atoms: C_12  and  C_13
REMARK    8  A    between atoms: C_12  and  C_14
REMARK    9  A    between atoms: C_27  and  C_29
REMARK   10  A    between atoms: C_30  and  O_32
REMARK                            x       y       z     vdW  Elec       q    Type
REMARK                         _______ _______ _______ _____ _____    ______ ____
ROOT
ATOM      1  C   LIG A   1      -6.195  -1.256 129.942  0.00  0.00    +0.155 C 
ATOM      2  C   LIG A   1      -5.984  -1.414 128.419  0.00  0.00    +0.100 C 
ATOM      3  C   LIG A   1      -5.232  -2.706 128.102  0.00  0.00    +0.044 C 
ATOM      4  C   LIG A   1      -7.304  -1.320 127.614  0.00  0.00    +0.083 C 
ATOM      5  C   LIG A   1      -7.183  -0.624 126.238  0.00  0.00    +0.190 C 
ATOM      6  C   LIG A   1      -7.888   0.750 126.231  0.00  0.00    +0.109 C 
ATOM      7  C   LIG A   1      -7.818   1.615 125.014  0.00  0.00    +0.040 C 
ATOM      8  C   LIG A   1      -7.324   1.403 123.791  0.00  0.00    +0.020 C 
ATOM      9  C   LIG A   1      -7.625   1.813 127.294  0.00  0.00    +0.220 C 
ATOM     10  O   LIG A   1      -8.414   2.929 126.791  0.00  0.00    -0.455 OA
ATOM     11  C   LIG A   1      -8.389   2.925 125.424  0.00  0.00    +0.336 C 
ATOM     12  O   LIG A   1      -8.764   3.817 124.694  0.00  0.00    -0.245 OA
ATOM     13  C   LIG A   1      -6.231   2.360 127.506  0.00  0.00    +0.197 C 
ATOM     14  C   LIG A   1      -5.087   1.975 128.467  0.00  0.00    +0.150 C 
ATOM     15  O   LIG A   1      -6.119   2.871 128.858  0.00  0.00    -0.356 OA
ATOM     16  C   LIG A   1      -3.772   2.682 128.266  0.00  0.00    +0.050 C 
ATOM     17  C   LIG A   1      -5.041   0.606 129.090  0.00  0.00    +0.202 C 
ATOM     18  O   LIG A   1      -5.126  -0.333 128.026  0.00  0.00    -0.337 OA
ATOM     19  C   LIG A   1      -6.115   0.254 130.105  0.00  0.00    +0.102 C 
ENDROOT
BRANCH   1  21
ATOM     20  C   LIG A   1      -8.167  -0.985 131.243  0.00  0.00    +0.194 C 
ATOM     21  O   LIG A   1      -7.429  -1.825 130.365  0.00  0.00    -0.377 OA
ENDBRANCH   1  21
BRANCH  17  22
ATOM     22  O   LIG A   1      -3.788   0.365 129.719  0.00  0.00    -0.362 OA
ATOM     23  H   LIG A   1      -3.919   0.660 130.637  0.00  0.00    +0.213 HD
ENDBRANCH  17  22
BRANCH   5  24
ATOM     24  O   LIG A   1      -7.942  -1.418 125.266  0.00  0.00    -0.460 OA
BRANCH  24  25
ATOM     25  C   LIG A   1      -7.365  -2.547 124.771  0.00  0.00    +0.310 C 
ATOM     26  O   LIG A   1      -7.788  -3.680 124.938  0.00  0.00    -0.251 OA
BRANCH  25  27
ATOM     27  C   LIG A   1      -6.072  -2.207 124.051  0.00  0.00    +0.092 C 
ATOM     28  C   LIG A   1      -5.119  -3.388 124.187  0.00  0.00    +0.019 C 
ATOM     29  C   LIG A   1      -6.330  -1.885 122.582  0.00  0.00    +0.019 C 
ENDBRANCH  25  27
ENDBRANCH  24  25
ENDBRANCH   5  24
TORSDOF 5
ENDMDL
MODEL 5
REMARK VINA RESULT:      -6.8      2.118      5.467
REMARK  Name = NuBBE_946
REMARK  10 active torsions:
REMARK  status: ('A' for Active; 'I' for Inactive)
REMARK    1  A    between atoms: C_1  and  O_2
REMARK    2  A    between atoms: O_2  and  C_3
REMARK    3  A    between atoms: C_5  and  C_6
REMARK    4  A    between atoms: C_8  and  O_10
REMARK    5  A    between atoms: O_10  and  C_11
REMARK    6  A    between atoms: C_11  and  C_12
REMARK    7  A    between atoms: C_12  and  C_13
REMARK    8  A    between atoms: C_12  and  C_14
REMARK    9  A    between atoms: C_27  and  C_29
REMARK   10  A    between atoms: C_30  and  O_32
REMARK                            x       y       z     vdW  Elec       q    Type
REMARK                         _______ _______ _______ _____ _____    ______ ____
ROOT
ATOM      1  C   LIG A   1      -8.779  -0.521 122.851  0.00  0.00    +0.155 C 
ATOM      2  C   LIG A   1      -7.899   0.127 123.945  0.00  0.00    +0.100 C 
ATOM      3  C   LIG A   1      -7.354   1.477 123.478  0.00  0.00    +0.044 C 
ATOM      4  C   LIG A   1      -8.626   0.255 125.307  0.00  0.00    +0.083 C 
ATOM      5  C   LIG A   1      -7.728   0.045 126.549  0.00  0.00    +0.190 C 
ATOM      6  C   LIG A   1      -8.063  -1.276 127.276  0.00  0.00    +0.109 C 
ATOM      7  C   LIG A   1      -7.252  -1.698 128.459  0.00  0.00    +0.040 C 
ATOM      8  C   LIG A   1      -6.285  -1.086 129.147  0.00  0.00    +0.020 C 
ATOM      9  C   LIG A   1      -8.141  -2.615 126.550  0.00  0.00    +0.220 C 
ATOM     10  O   LIG A   1      -8.360  -3.535 127.658  0.00  0.00    -0.455 OA
ATOM     11  C   LIG A   1      -7.684  -3.089 128.760  0.00  0.00    +0.336 C 
ATOM     12  O   LIG A   1      -7.483  -3.709 129.782  0.00  0.00    -0.245 OA
ATOM     13  C   LIG A   1      -6.943  -3.155 125.801  0.00  0.00    +0.197 C 
ATOM     14  C   LIG A   1      -6.498  -3.063 124.326  0.00  0.00    +0.150 C 
ATOM     15  O   LIG A   1      -7.396  -4.072 124.773  0.00  0.00    -0.356 OA
ATOM     16  C   LIG A   1      -5.139  -3.624 123.997  0.00  0.00    +0.050 C 
ATOM     17  C   LIG A   1      -7.023  -1.969 123.437  0.00  0.00    +0.202 C 
ATOM     18  O   LIG A   1      -6.767  -0.740 124.104  0.00  0.00    -0.337 OA
ATOM     19  C   LIG A   1      -8.496  -1.999 123.071  0.00  0.00    +0.102 C 
ENDROOT
BRANCH   1  21
ATOM     20  C   LIG A   1     -10.453   1.124 122.464  0.00  0.00    +0.194 C 
ATOM     21  O   LIG A   1     -10.148  -0.160 122.993  0.00  0.00    -0.377 OA
ENDBRANCH   1  21
BRANCH  17  22
ATOM     22  O   LIG A   1      -6.298  -1.902 122.215  0.00  0.00    -0.362 OA
ATOM     23  H   LIG A   1      -6.616  -2.667 121.704  0.00  0.00    +0.213 HD
ENDBRANCH  17  22
BRANCH   5  24
ATOM     24  O   LIG A   1      -8.066   1.085 127.526  0.00  0.00    -0.460 OA
BRANCH  24  25
ATOM     25  C   LIG A   1      -7.529   2.324 127.355  0.00  0.00    +0.310 C 
ATOM     26  O   LIG A   1      -8.173   3.356 127.241  0.00  0.00    -0.251 OA
BRANCH  25  27
ATOM     27  C   LIG A   1      -6.018   2.233 127.241  0.00  0.00    +0.092 C 
ATOM     28  C   LIG A   1      -5.555   3.221 126.177  0.00  0.00    +0.019 C 
ATOM     29  C   LIG A   1      -5.348   2.526 128.581  0.00  0.00    +0.019 C 
ENDBRANCH  25  27
ENDBRANCH  24  25
ENDBRANCH   5  24
TORSDOF 5
ENDMDL
MODEL 6
REMARK VINA RESULT:      -6.7      1.809      5.001
REMARK  Name = NuBBE_946
REMARK  10 active torsions:
REMARK  status: ('A' for Active; 'I' for Inactive)
REMARK    1  A    between atoms: C_1  and  O_2
REMARK    2  A    between atoms: O_2  and  C_3
REMARK    3  A    between atoms: C_5  and  C_6
REMARK    4  A    between atoms: C_8  and  O_10
REMARK    5  A    between atoms: O_10  and  C_11
REMARK    6  A    between atoms: C_11  and  C_12
REMARK    7  A    between atoms: C_12  and  C_13
REMARK    8  A    between atoms: C_12  and  C_14
REMARK    9  A    between atoms: C_27  and  C_29
REMARK   10  A    between atoms: C_30  and  O_32
REMARK                            x       y       z     vdW  Elec       q    Type
REMARK                         _______ _______ _______ _____ _____    ______ ____
ROOT
ATOM      1  C   LIG A   1      -7.625   2.766 127.254  0.00  0.00    +0.155 C 
ATOM      2  C   LIG A   1      -6.706   1.535 127.082  0.00  0.00    +0.100 C 
ATOM      3  C   LIG A   1      -5.433   1.684 127.916  0.00  0.00    +0.044 C 
ATOM      4  C   LIG A   1      -7.424   0.197 127.387  0.00  0.00    +0.083 C 
ATOM      5  C   LIG A   1      -6.995  -0.993 126.497  0.00  0.00    +0.190 C 
ATOM      6  C   LIG A   1      -8.118  -1.408 125.521  0.00  0.00    +0.109 C 
ATOM      7  C   LIG A   1      -7.870  -2.492 124.523  0.00  0.00    +0.040 C 
ATOM      8  C   LIG A   1      -6.840  -3.321 124.336  0.00  0.00    +0.020 C 
ATOM      9  C   LIG A   1      -8.830  -0.407 124.616  0.00  0.00    +0.220 C 
ATOM     10  O   LIG A   1      -9.688  -1.283 123.831  0.00  0.00    -0.455 OA
ATOM     11  C   LIG A   1      -9.050  -2.473 123.616  0.00  0.00    +0.336 C 
ATOM     12  O   LIG A   1      -9.385  -3.341 122.840  0.00  0.00    -0.245 OA
ATOM     13  C   LIG A   1      -8.050   0.410 123.609  0.00  0.00    +0.197 C 
ATOM     14  C   LIG A   1      -7.421   1.818 123.662  0.00  0.00    +0.150 C 
ATOM     15  O   LIG A   1      -8.785   1.624 123.309  0.00  0.00    -0.356 OA
ATOM     16  C   LIG A   1      -6.584   2.225 122.478  0.00  0.00    +0.050 C 
ATOM     17  C   LIG A   1      -7.100   2.462 124.983  0.00  0.00    +0.202 C 
ATOM     18  O   LIG A   1      -6.297   1.538 125.707  0.00  0.00    -0.337 OA
ATOM     19  C   LIG A   1      -8.261   2.864 125.876  0.00  0.00    +0.102 C 
ENDROOT
BRANCH   1  21
ATOM     20  C   LIG A   1      -8.507   3.615 129.294  0.00  0.00    +0.194 C 
ATOM     21  O   LIG A   1      -8.557   2.585 128.316  0.00  0.00    -0.377 OA
ENDBRANCH   1  21
BRANCH  17  22
ATOM     22  O   LIG A   1      -6.294   3.622 124.812  0.00  0.00    -0.362 OA
ATOM     23  H   LIG A   1      -6.459   4.149 125.613  0.00  0.00    +0.213 HD
ENDBRANCH  17  22
BRANCH   5  24
ATOM     24  O   LIG A   1      -6.827  -2.162 127.365  0.00  0.00    -0.460 OA
BRANCH  24  25
ATOM     25  C   LIG A   1      -6.650  -1.952 128.698  0.00  0.00    +0.310 C 
ATOM     26  O   LIG A   1      -5.633  -1.505 129.207  0.00  0.00    -0.251 OA
BRANCH  25  27
ATOM     27  C   LIG A   1      -7.863  -2.433 129.473  0.00  0.00    +0.092 C 
ATOM     28  C   LIG A   1      -8.565  -3.508 128.653  0.00  0.00    +0.019 C 
ATOM     29  C   LIG A   1      -7.461  -2.973 130.843  0.00  0.00    +0.019 C 
ENDBRANCH  25  27
ENDBRANCH  24  25
ENDBRANCH   5  24
TORSDOF 5
ENDMDL
MODEL 7
REMARK VINA RESULT:      -6.7      4.432      7.317
REMARK  Name = NuBBE_946
REMARK  10 active torsions:
REMARK  status: ('A' for Active; 'I' for Inactive)
REMARK    1  A    between atoms: C_1  and  O_2
REMARK    2  A    between atoms: O_2  and  C_3
REMARK    3  A    between atoms: C_5  and  C_6
REMARK    4  A    between atoms: C_8  and  O_10
REMARK    5  A    between atoms: O_10  and  C_11
REMARK    6  A    between atoms: C_11  and  C_12
REMARK    7  A    between atoms: C_12  and  C_13
REMARK    8  A    between atoms: C_12  and  C_14
REMARK    9  A    between atoms: C_27  and  C_29
REMARK   10  A    between atoms: C_30  and  O_32
REMARK                            x       y       z     vdW  Elec       q    Type
REMARK                         _______ _______ _______ _____ _____    ______ ____
ROOT
ATOM      1  C   LIG A   1     -10.419   5.673 131.826  0.00  0.00    +0.155 C 
ATOM      2  C   LIG A   1      -9.567   4.688 130.993  0.00  0.00    +0.100 C 
ATOM      3  C   LIG A   1     -10.448   3.630 130.329  0.00  0.00    +0.044 C 
ATOM      4  C   LIG A   1      -8.664   5.400 129.954  0.00  0.00    +0.083 C 
ATOM      5  C   LIG A   1      -7.283   4.743 129.729  0.00  0.00    +0.190 C 
ATOM      6  C   LIG A   1      -6.139   5.614 130.293  0.00  0.00    +0.109 C 
ATOM      7  C   LIG A   1      -4.731   5.116 130.242  0.00  0.00    +0.040 C 
ATOM      8  C   LIG A   1      -4.182   4.037 129.678  0.00  0.00    +0.020 C 
ATOM      9  C   LIG A   1      -6.149   6.157 131.720  0.00  0.00    +0.220 C 
ATOM     10  O   LIG A   1      -4.840   6.793 131.798  0.00  0.00    -0.455 OA
ATOM     11  C   LIG A   1      -3.941   6.075 131.060  0.00  0.00    +0.336 C 
ATOM     12  O   LIG A   1      -2.735   6.202 131.071  0.00  0.00    -0.245 OA
ATOM     13  C   LIG A   1      -6.217   5.215 132.901  0.00  0.00    +0.197 C 
ATOM     14  C   LIG A   1      -7.390   4.669 133.741  0.00  0.00    +0.150 C 
ATOM     15  O   LIG A   1      -6.777   5.917 134.039  0.00  0.00    -0.356 OA
ATOM     16  C   LIG A   1      -7.053   3.616 134.764  0.00  0.00    +0.050 C 
ATOM     17  C   LIG A   1      -8.789   4.664 133.187  0.00  0.00    +0.202 C 
ATOM     18  O   LIG A   1      -8.732   3.997 131.933  0.00  0.00    -0.337 OA
ATOM     19  C   LIG A   1      -9.469   6.004 132.968  0.00  0.00    +0.102 C 
ENDROOT
BRANCH   1  21
ATOM     20  C   LIG A   1     -12.235   6.944 130.965  0.00  0.00    +0.194 C 
ATOM     21  O   LIG A   1     -10.824   6.801 131.058  0.00  0.00    -0.377 OA
ENDBRANCH   1  21
BRANCH  17  22
ATOM     22  O   LIG A   1      -9.664   3.888 133.997  0.00  0.00    -0.362 OA
ATOM     23  H   LIG A   1     -10.012   3.209 133.392  0.00  0.00    +0.213 HD
ENDBRANCH  17  22
BRANCH   5  24
ATOM     24  O   LIG A   1      -7.030   4.716 128.284  0.00  0.00    -0.460 OA
BRANCH  24  25
ATOM     25  C   LIG A   1      -7.618   3.734 127.549  0.00  0.00    +0.310 C 
ATOM     26  O   LIG A   1      -8.365   3.921 126.601  0.00  0.00    -0.251 OA
BRANCH  25  27
ATOM     27  C   LIG A   1      -7.282   2.370 128.126  0.00  0.00    +0.092 C 
ATOM     28  C   LIG A   1      -8.518   1.485 128.023  0.00  0.00    +0.019 C 
ATOM     29  C   LIG A   1      -6.102   1.739 127.392  0.00  0.00    +0.019 C 
ENDBRANCH  25  27
ENDBRANCH  24  25
ENDBRANCH   5  24
TORSDOF 5
ENDMDL
MODEL 8
REMARK VINA RESULT:      -6.6      2.267      3.062
REMARK  Name = NuBBE_946
REMARK  10 active torsions:
REMARK  status: ('A' for Active; 'I' for Inactive)
REMARK    1  A    between atoms: C_1  and  O_2
REMARK    2  A    between atoms: O_2  and  C_3
REMARK    3  A    between atoms: C_5  and  C_6
REMARK    4  A    between atoms: C_8  and  O_10
REMARK    5  A    between atoms: O_10  and  C_11
REMARK    6  A    between atoms: C_11  and  C_12
REMARK    7  A    between atoms: C_12  and  C_13
REMARK    8  A    between atoms: C_12  and  C_14
REMARK    9  A    between atoms: C_27  and  C_29
REMARK   10  A    between atoms: C_30  and  O_32
REMARK                            x       y       z     vdW  Elec       q    Type
REMARK                         _______ _______ _______ _____ _____    ______ ____
ROOT
ATOM      1  C   LIG A   1      -5.550   2.997 126.160  0.00  0.00    +0.155 C 
ATOM      2  C   LIG A   1      -6.235   1.626 125.952  0.00  0.00    +0.100 C 
ATOM      3  C   LIG A   1      -6.806   1.509 124.539  0.00  0.00    +0.044 C 
ATOM      4  C   LIG A   1      -5.307   0.431 126.284  0.00  0.00    +0.083 C 
ATOM      5  C   LIG A   1      -6.011  -0.783 126.933  0.00  0.00    +0.190 C 
ATOM      6  C   LIG A   1      -5.608  -0.951 128.414  0.00  0.00    +0.109 C 
ATOM      7  C   LIG A   1      -6.242  -2.024 129.239  0.00  0.00    +0.040 C 
ATOM      8  C   LIG A   1      -7.076  -3.020 128.927  0.00  0.00    +0.020 C 
ATOM      9  C   LIG A   1      -5.680   0.196 129.418  0.00  0.00    +0.220 C 
ATOM     10  O   LIG A   1      -5.322  -0.480 130.658  0.00  0.00    -0.455 OA
ATOM     11  C   LIG A   1      -5.809  -1.757 130.637  0.00  0.00    +0.336 C 
ATOM     12  O   LIG A   1      -5.871  -2.521 131.577  0.00  0.00    -0.245 OA
ATOM     13  C   LIG A   1      -6.993   0.893 129.697  0.00  0.00    +0.197 C 
ATOM     14  C   LIG A   1      -7.653   2.160 129.113  0.00  0.00    +0.150 C 
ATOM     15  O   LIG A   1      -6.727   2.231 130.191  0.00  0.00    -0.356 OA
ATOM     16  C   LIG A   1      -9.062   2.451 129.560  0.00  0.00    +0.050 C 
ATOM     17  C   LIG A   1      -7.238   2.686 127.766  0.00  0.00    +0.202 C 
ATOM     18  O   LIG A   1      -7.354   1.605 126.850  0.00  0.00    -0.337 OA
ATOM     19  C   LIG A   1      -5.839   3.260 127.630  0.00  0.00    +0.102 C 
ENDROOT
BRANCH   1  21
ATOM     20  C   LIG A   1      -3.366   3.804 126.643  0.00  0.00    +0.194 C 
ATOM     21  O   LIG A   1      -4.165   2.949 125.836  0.00  0.00    -0.377 OA
ENDBRANCH   1  21
BRANCH  17  22
ATOM     22  O   LIG A   1      -8.138   3.684 127.300  0.00  0.00    -0.362 OA
ATOM     23  H   LIG A   1      -7.775   3.950 126.438  0.00  0.00    +0.213 HD
ENDBRANCH  17  22
BRANCH   5  24
ATOM     24  O   LIG A   1      -5.499  -1.996 126.285  0.00  0.00    -0.460 OA
BRANCH  24  25
ATOM     25  C   LIG A   1      -6.195  -2.503 125.232  0.00  0.00    +0.310 C 
ATOM     26  O   LIG A   1      -7.328  -2.957 125.295  0.00  0.00    -0.251 OA
BRANCH  25  27
ATOM     27  C   LIG A   1      -5.334  -2.506 123.982  0.00  0.00    +0.092 C 
ATOM     28  C   LIG A   1      -4.779  -3.911 123.781  0.00  0.00    +0.019 C 
ATOM     29  C   LIG A   1      -6.135  -2.061 122.762  0.00  0.00    +0.019 C 
ENDBRANCH  25  27
ENDBRANCH  24  25
ENDBRANCH   5  24
TORSDOF 5
ENDMDL
MODEL 9
REMARK VINA RESULT:      -6.5      3.176      6.707
REMARK  Name = NuBBE_946
REMARK  10 active torsions:
REMARK  status: ('A' for Active; 'I' for Inactive)
REMARK    1  A    between atoms: C_1  and  O_2
REMARK    2  A    between atoms: O_2  and  C_3
REMARK    3  A    between atoms: C_5  and  C_6
REMARK    4  A    between atoms: C_8  and  O_10
REMARK    5  A    between atoms: O_10  and  C_11
REMARK    6  A    between atoms: C_11  and  C_12
REMARK    7  A    between atoms: C_12  and  C_13
REMARK    8  A    between atoms: C_12  and  C_14
REMARK    9  A    between atoms: C_27  and  C_29
REMARK   10  A    between atoms: C_30  and  O_32
REMARK                            x       y       z     vdW  Elec       q    Type
REMARK                         _______ _______ _______ _____ _____    ______ ____
ROOT
ATOM      1  C   LIG A   1      -5.031   3.186 125.324  0.00  0.00    +0.155 C 
ATOM      2  C   LIG A   1      -4.623   3.520 126.777  0.00  0.00    +0.100 C 
ATOM      3  C   LIG A   1      -3.131   3.839 126.866  0.00  0.00    +0.044 C 
ATOM      4  C   LIG A   1      -5.478   4.652 127.400  0.00  0.00    +0.083 C 
ATOM      5  C   LIG A   1      -5.782   4.488 128.907  0.00  0.00    +0.190 C 
ATOM      6  C   LIG A   1      -7.272   4.168 129.156  0.00  0.00    +0.109 C 
ATOM      7  C   LIG A   1      -7.751   3.897 130.545  0.00  0.00    +0.040 C 
ATOM      8  C   LIG A   1      -7.147   3.976 131.734  0.00  0.00    +0.020 C 
ATOM      9  C   LIG A   1      -8.001   3.042 128.428  0.00  0.00    +0.220 C 
ATOM     10  O   LIG A   1      -9.304   3.071 129.079  0.00  0.00    -0.455 OA
ATOM     11  C   LIG A   1      -9.148   3.408 130.395  0.00  0.00    +0.336 C 
ATOM     12  O   LIG A   1      -9.989   3.326 131.265  0.00  0.00    -0.245 OA
ATOM     13  C   LIG A   1      -7.519   1.613 128.541  0.00  0.00    +0.197 C 
ATOM     14  C   LIG A   1      -6.578   0.752 127.674  0.00  0.00    +0.150 C 
ATOM     15  O   LIG A   1      -7.964   0.866 127.381  0.00  0.00    -0.356 OA
ATOM     16  C   LIG A   1      -6.225  -0.610 128.213  0.00  0.00    +0.050 C 
ATOM     17  C   LIG A   1      -5.585   1.400 126.748  0.00  0.00    +0.202 C 
ATOM     18  O   LIG A   1      -4.831   2.317 127.531  0.00  0.00    -0.337 OA
ATOM     19  C   LIG A   1      -6.126   2.155 125.546  0.00  0.00    +0.102 C 
ENDROOT
BRANCH   1  21
ATOM     20  C   LIG A   1      -5.903   4.070 123.295  0.00  0.00    +0.194 C 
ATOM     21  O   LIG A   1      -5.456   4.346 124.616  0.00  0.00    -0.377 OA
ENDBRANCH   1  21
BRANCH  17  22
ATOM     22  O   LIG A   1      -4.646   0.455 126.250  0.00  0.00    -0.362 OA
ATOM     23  H   LIG A   1      -4.311   0.858 125.431  0.00  0.00    +0.213 HD
ENDBRANCH  17  22
BRANCH   5  24
ATOM     24  O   LIG A   1      -5.586   5.793 129.547  0.00  0.00    -0.460 OA
BRANCH  24  25
ATOM     25  C   LIG A   1      -4.365   6.384 129.440  0.00  0.00    +0.310 C 
ATOM     26  O   LIG A   1      -4.125   7.375 128.767  0.00  0.00    -0.251 OA
BRANCH  25  27
ATOM     27  C   LIG A   1      -3.324   5.588 130.205  0.00  0.00    +0.092 C 
ATOM     28  C   LIG A   1      -1.968   6.254 130.011  0.00  0.00    +0.019 C 
ATOM     29  C   LIG A   1      -3.679   5.503 131.688  0.00  0.00    +0.019 C 
ENDBRANCH  25  27
ENDBRANCH  24  25
ENDBRANCH   5  24
TORSDOF 5
ENDMDL
