MODEL 1
REMARK VINA RESULT:      -7.6      0.000      0.000
REMARK  Name = NuBBE_2369
REMARK  8 active torsions:
REMARK  status: ('A' for Active; 'I' for Inactive)
REMARK    1  A    between atoms: C_5  and  C_7
REMARK    2  A    between atoms: C_7  and  C_8
REMARK    3  A    between atoms: C_14  and  C_16
REMARK    4  A    between atoms: C_16  and  C_17
REMARK    5  A    between atoms: C_19  and  O_25
REMARK    6  A    between atoms: C_20  and  O_23
REMARK    7  A    between atoms: O_23  and  C_24
REMARK    8  A    between atoms: O_25  and  C_26
REMARK                            x       y       z     vdW  Elec       q    Type
REMARK                         _______ _______ _______ _____ _____    ______ ____
ROOT
ATOM      1  C   LIG A   1      -9.408   3.143 131.159  0.00  0.00    +0.109 C 
ATOM      2  C   LIG A   1      -9.582   2.042 132.179  0.00  0.00    +0.311 C 
ATOM      3  O   LIG A   1      -9.948   0.906 131.935  0.00  0.00    -0.251 OA
ATOM      4  O   LIG A   1      -9.267   2.480 133.432  0.00  0.00    -0.464 OA
ATOM      5  C   LIG A   1      -8.989   3.866 133.380  0.00  0.00    +0.236 C 
ATOM      6  C   LIG A   1      -9.622   4.348 132.084  0.00  0.00    +0.045 C 
ENDROOT
BRANCH   1   7
ATOM      7  C   LIG A   1      -8.029   3.047 130.502  0.00  0.00    +0.050 C 
BRANCH   7  12
ATOM      8  C   LIG A   1      -8.487   1.264 127.135  0.00  0.00    +0.050 A 
ATOM      9  C   LIG A   1      -8.171   2.300 126.282  0.00  0.00    +0.166 A 
ATOM     10  C   LIG A   1      -7.790   3.532 126.757  0.00  0.00    +0.167 A 
ATOM     11  C   LIG A   1      -7.711   3.798 128.107  0.00  0.00    +0.053 A 
ATOM     12  C   LIG A   1      -8.049   2.775 129.012  0.00  0.00    -0.043 A 
ATOM     13  C   LIG A   1      -8.425   1.508 128.514  0.00  0.00    +0.007 A 
ATOM     14  O   LIG A   1      -7.537   4.418 125.756  0.00  0.00    -0.453 OA
ATOM     15  C   LIG A   1      -7.905   3.632 124.605  0.00  0.00    +0.466 C 
ATOM     16  O   LIG A   1      -8.204   2.256 124.923  0.00  0.00    -0.453 OA
ENDBRANCH   7  12
ENDBRANCH   1   7
BRANCH   6  17
ATOM     17  C   LIG A   1      -9.109   5.706 131.606  0.00  0.00    +0.042 C 
BRANCH  17  18
ATOM     18  C   LIG A   1     -10.185   6.552 130.955  0.00  0.00    -0.043 A 
ATOM     19  C   LIG A   1      -9.930   7.229 129.751  0.00  0.00    +0.053 A 
ATOM     20  C   LIG A   1     -10.921   8.003 129.134  0.00  0.00    +0.162 A 
ATOM     21  C   LIG A   1     -12.191   8.109 129.724  0.00  0.00    +0.162 A 
ATOM     22  C   LIG A   1     -12.450   7.437 130.922  0.00  0.00    +0.050 A 
ATOM     23  C   LIG A   1     -11.453   6.670 131.536  0.00  0.00    +0.007 A 
BRANCH  21  24
ATOM     24  O   LIG A   1     -13.125   8.859 129.054  0.00  0.00    -0.491 OA
ATOM     25  C   LIG A   1     -13.315  10.186 129.528  0.00  0.00    +0.277 C 
ENDBRANCH  21  24
BRANCH  20  26
ATOM     26  O   LIG A   1     -10.737   8.655 127.939  0.00  0.00    -0.491 OA
ATOM     27  C   LIG A   1     -10.829   7.848 126.770  0.00  0.00    +0.277 C 
ENDBRANCH  20  26
ENDBRANCH  17  18
ENDBRANCH   6  17
TORSDOF 6
ENDMDL
MODEL 2
REMARK VINA RESULT:      -7.5      2.795      6.056
REMARK  Name = NuBBE_2369
REMARK  8 active torsions:
REMARK  status: ('A' for Active; 'I' for Inactive)
REMARK    1  A    between atoms: C_5  and  C_7
REMARK    2  A    between atoms: C_7  and  C_8
REMARK    3  A    between atoms: C_14  and  C_16
REMARK    4  A    between atoms: C_16  and  C_17
REMARK    5  A    between atoms: C_19  and  O_25
REMARK    6  A    between atoms: C_20  and  O_23
REMARK    7  A    between atoms: O_23  and  C_24
REMARK    8  A    between atoms: O_25  and  C_26
REMARK                            x       y       z     vdW  Elec       q    Type
REMARK                         _______ _______ _______ _____ _____    ______ ____
ROOT
ATOM      1  C   LIG A   1     -10.959   5.729 130.009  0.00  0.00    +0.109 C 
ATOM      2  C   LIG A   1     -12.139   6.353 129.302  0.00  0.00    +0.311 C 
ATOM      3  O   LIG A   1     -12.346   6.310 128.102  0.00  0.00    -0.251 OA
ATOM      4  O   LIG A   1     -12.968   6.977 130.188  0.00  0.00    -0.464 OA
ATOM      5  C   LIG A   1     -12.383   6.933 131.476  0.00  0.00    +0.236 C 
ATOM      6  C   LIG A   1     -10.909   6.654 131.231  0.00  0.00    +0.045 C 
ENDROOT
BRANCH   1   7
ATOM      7  C   LIG A   1     -11.235   4.252 130.304  0.00  0.00    +0.050 C 
BRANCH   7  12
ATOM      8  C   LIG A   1      -7.712   2.803 129.849  0.00  0.00    +0.050 A 
ATOM      9  C   LIG A   1      -7.705   1.889 130.881  0.00  0.00    +0.166 A 
ATOM     10  C   LIG A   1      -8.801   1.708 131.690  0.00  0.00    +0.167 A 
ATOM     11  C   LIG A   1      -9.960   2.435 131.517  0.00  0.00    +0.053 A 
ATOM     12  C   LIG A   1     -10.000   3.395 130.490  0.00  0.00    -0.043 A 
ATOM     13  C   LIG A   1      -8.873   3.563 129.654  0.00  0.00    +0.007 A 
ATOM     14  O   LIG A   1      -8.585   0.774 132.655  0.00  0.00    -0.453 OA
ATOM     15  C   LIG A   1      -7.195   0.469 132.424  0.00  0.00    +0.466 C 
ATOM     16  O   LIG A   1      -6.662   1.090 131.235  0.00  0.00    -0.453 OA
ENDBRANCH   7  12
ENDBRANCH   1   7
BRANCH   6  17
ATOM     17  C   LIG A   1     -10.155   6.156 132.464  0.00  0.00    +0.042 C 
BRANCH  17  18
ATOM     18  C   LIG A   1      -8.657   6.066 132.249  0.00  0.00    -0.043 A 
ATOM     19  C   LIG A   1      -7.881   5.164 132.994  0.00  0.00    +0.053 A 
ATOM     20  C   LIG A   1      -6.498   5.063 132.795  0.00  0.00    +0.162 A 
ATOM     21  C   LIG A   1      -5.872   5.875 131.836  0.00  0.00    +0.162 A 
ATOM     22  C   LIG A   1      -6.639   6.775 131.091  0.00  0.00    +0.050 A 
ATOM     23  C   LIG A   1      -8.020   6.874 131.300  0.00  0.00    +0.007 A 
BRANCH  21  24
ATOM     24  O   LIG A   1      -4.520   5.707 131.670  0.00  0.00    -0.491 OA
ATOM     25  C   LIG A   1      -3.696   6.754 132.165  0.00  0.00    +0.277 C 
ENDBRANCH  21  24
BRANCH  20  26
ATOM     26  O   LIG A   1      -5.699   4.173 133.470  0.00  0.00    -0.491 OA
ATOM     27  C   LIG A   1      -6.338   3.417 134.493  0.00  0.00    +0.277 C 
ENDBRANCH  20  26
ENDBRANCH  17  18
ENDBRANCH   6  17
TORSDOF 6
ENDMDL
MODEL 3
REMARK VINA RESULT:      -7.3      4.364      8.365
REMARK  Name = NuBBE_2369
REMARK  8 active torsions:
REMARK  status: ('A' for Active; 'I' for Inactive)
REMARK    1  A    between atoms: C_5  and  C_7
REMARK    2  A    between atoms: C_7  and  C_8
REMARK    3  A    between atoms: C_14  and  C_16
REMARK    4  A    between atoms: C_16  and  C_17
REMARK    5  A    between atoms: C_19  and  O_25
REMARK    6  A    between atoms: C_20  and  O_23
REMARK    7  A    between atoms: O_23  and  C_24
REMARK    8  A    between atoms: O_25  and  C_26
REMARK                            x       y       z     vdW  Elec       q    Type
REMARK                         _______ _______ _______ _____ _____    ______ ____
ROOT
ATOM      1  C   LIG A   1      -5.464  -2.126 130.428  0.00  0.00    +0.109 C 
ATOM      2  C   LIG A   1      -4.131  -2.738 130.791  0.00  0.00    +0.311 C 
ATOM      3  O   LIG A   1      -3.081  -2.129 130.898  0.00  0.00    -0.251 OA
ATOM      4  O   LIG A   1      -4.249  -4.082 130.998  0.00  0.00    -0.464 OA
ATOM      5  C   LIG A   1      -5.569  -4.482 130.688  0.00  0.00    +0.236 C 
ATOM      6  C   LIG A   1      -6.127  -3.367 129.817  0.00  0.00    +0.045 C 
ENDROOT
BRANCH   1   7
ATOM      7  C   LIG A   1      -6.145  -1.554 131.674  0.00  0.00    +0.050 C 
BRANCH   7  12
ATOM      8  C   LIG A   1      -9.293   0.637 131.782  0.00  0.00    +0.050 A 
ATOM      9  C   LIG A   1      -8.867   1.688 130.998  0.00  0.00    +0.166 A 
ATOM     10  C   LIG A   1      -7.622   1.696 130.418  0.00  0.00    +0.167 A 
ATOM     11  C   LIG A   1      -6.731   0.658 130.596  0.00  0.00    +0.053 A 
ATOM     12  C   LIG A   1      -7.117  -0.423 131.409  0.00  0.00    -0.043 A 
ATOM     13  C   LIG A   1      -8.405  -0.428 131.989  0.00  0.00    +0.007 A 
ATOM     14  O   LIG A   1      -7.391   2.827 129.699  0.00  0.00    -0.453 OA
ATOM     15  C   LIG A   1      -8.593   3.572 129.982  0.00  0.00    +0.466 C 
ATOM     16  O   LIG A   1      -9.578   2.813 130.715  0.00  0.00    -0.453 OA
ENDBRANCH   7  12
ENDBRANCH   1   7
BRANCH   6  17
ATOM     17  C   LIG A   1      -7.651  -3.369 129.700  0.00  0.00    +0.042 C 
BRANCH  17  18
ATOM     18  C   LIG A   1      -8.143  -2.915 128.340  0.00  0.00    -0.043 A 
ATOM     19  C   LIG A   1      -7.884  -1.611 127.886  0.00  0.00    +0.053 A 
ATOM     20  C   LIG A   1      -8.323  -1.184 126.626  0.00  0.00    +0.162 A 
ATOM     21  C   LIG A   1      -9.034  -2.069 125.799  0.00  0.00    +0.162 A 
ATOM     22  C   LIG A   1      -9.294  -3.368 126.246  0.00  0.00    +0.050 A 
ATOM     23  C   LIG A   1      -8.857  -3.785 127.509  0.00  0.00    +0.007 A 
BRANCH  21  24
ATOM     24  O   LIG A   1      -9.410  -1.598 124.566  0.00  0.00    -0.491 OA
ATOM     25  C   LIG A   1      -8.983  -2.366 123.448  0.00  0.00    +0.277 C 
ENDBRANCH  21  24
BRANCH  20  26
ATOM     26  O   LIG A   1      -8.066   0.066 126.119  0.00  0.00    -0.491 OA
ATOM     27  C   LIG A   1      -8.642   1.155 126.831  0.00  0.00    +0.277 C 
ENDBRANCH  20  26
ENDBRANCH  17  18
ENDBRANCH   6  17
TORSDOF 6
ENDMDL
MODEL 4
REMARK VINA RESULT:      -7.2      2.935      3.698
REMARK  Name = NuBBE_2369
REMARK  8 active torsions:
REMARK  status: ('A' for Active; 'I' for Inactive)
REMARK    1  A    between atoms: C_5  and  C_7
REMARK    2  A    between atoms: C_7  and  C_8
REMARK    3  A    between atoms: C_14  and  C_16
REMARK    4  A    between atoms: C_16  and  C_17
REMARK    5  A    between atoms: C_19  and  O_25
REMARK    6  A    between atoms: C_20  and  O_23
REMARK    7  A    between atoms: O_23  and  C_24
REMARK    8  A    between atoms: O_25  and  C_26
REMARK                            x       y       z     vdW  Elec       q    Type
REMARK                         _______ _______ _______ _____ _____    ______ ____
ROOT
ATOM      1  C   LIG A   1      -7.811   3.648 130.423  0.00  0.00    +0.109 C 
ATOM      2  C   LIG A   1      -8.110   2.181 130.219  0.00  0.00    +0.311 C 
ATOM      3  O   LIG A   1      -7.508   1.435 129.466  0.00  0.00    -0.251 OA
ATOM      4  O   LIG A   1      -9.154   1.780 131.001  0.00  0.00    -0.464 OA
ATOM      5  C   LIG A   1      -9.692   2.907 131.666  0.00  0.00    +0.236 C 
ATOM      6  C   LIG A   1      -9.205   4.106 130.867  0.00  0.00    +0.045 C 
ENDROOT
BRANCH   1   7
ATOM      7  C   LIG A   1      -6.693   3.825 131.453  0.00  0.00    +0.050 C 
BRANCH   7  12
ATOM      8  C   LIG A   1      -2.983   4.660 130.940  0.00  0.00    +0.050 A 
ATOM      9  C   LIG A   1      -3.091   5.538 129.883  0.00  0.00    +0.166 A 
ATOM     10  C   LIG A   1      -4.311   5.888 129.359  0.00  0.00    +0.167 A 
ATOM     11  C   LIG A   1      -5.490   5.374 129.856  0.00  0.00    +0.053 A 
ATOM     12  C   LIG A   1      -5.424   4.454 130.918  0.00  0.00    -0.043 A 
ATOM     13  C   LIG A   1      -4.164   4.113 131.460  0.00  0.00    +0.007 A 
ATOM     14  O   LIG A   1      -4.199   6.753 128.315  0.00  0.00    -0.453 OA
ATOM     15  C   LIG A   1      -2.765   6.821 128.179  0.00  0.00    +0.466 C 
ATOM     16  O   LIG A   1      -2.057   6.141 129.237  0.00  0.00    -0.453 OA
ENDBRANCH   7  12
ENDBRANCH   1   7
BRANCH   6  17
ATOM     17  C   LIG A   1      -9.307   5.437 131.613  0.00  0.00    +0.042 C 
BRANCH  17  18
ATOM     18  C   LIG A   1     -10.308   6.391 130.992  0.00  0.00    -0.043 A 
ATOM     19  C   LIG A   1      -9.992   7.090 129.816  0.00  0.00    +0.053 A 
ATOM     20  C   LIG A   1     -10.913   7.965 129.225  0.00  0.00    +0.162 A 
ATOM     21  C   LIG A   1     -12.174   8.151 129.814  0.00  0.00    +0.162 A 
ATOM     22  C   LIG A   1     -12.494   7.457 130.985  0.00  0.00    +0.050 A 
ATOM     23  C   LIG A   1     -11.566   6.589 131.572  0.00  0.00    +0.007 A 
BRANCH  21  24
ATOM     24  O   LIG A   1     -13.040   8.999 129.171  0.00  0.00    -0.491 OA
ATOM     25  C   LIG A   1     -13.245  10.265 129.786  0.00  0.00    +0.277 C 
ENDBRANCH  21  24
BRANCH  20  26
ATOM     26  O   LIG A   1     -10.669   8.646 128.057  0.00  0.00    -0.491 OA
ATOM     27  C   LIG A   1     -10.880   7.913 126.856  0.00  0.00    +0.277 C 
ENDBRANCH  20  26
ENDBRANCH  17  18
ENDBRANCH   6  17
TORSDOF 6
ENDMDL
MODEL 5
REMARK VINA RESULT:      -7.2      1.593      6.116
REMARK  Name = NuBBE_2369
REMARK  8 active torsions:
REMARK  status: ('A' for Active; 'I' for Inactive)
REMARK    1  A    between atoms: C_5  and  C_7
REMARK    2  A    between atoms: C_7  and  C_8
REMARK    3  A    between atoms: C_14  and  C_16
REMARK    4  A    between atoms: C_16  and  C_17
REMARK    5  A    between atoms: C_19  and  O_25
REMARK    6  A    between atoms: C_20  and  O_23
REMARK    7  A    between atoms: O_23  and  C_24
REMARK    8  A    between atoms: O_25  and  C_26
REMARK                            x       y       z     vdW  Elec       q    Type
REMARK                         _______ _______ _______ _____ _____    ______ ____
ROOT
ATOM      1  C   LIG A   1      -8.824   5.237 132.518  0.00  0.00    +0.109 C 
ATOM      2  C   LIG A   1      -8.333   5.038 133.933  0.00  0.00    +0.311 C 
ATOM      3  O   LIG A   1      -7.799   5.891 134.620  0.00  0.00    -0.251 OA
ATOM      4  O   LIG A   1      -8.569   3.764 134.360  0.00  0.00    -0.464 OA
ATOM      5  C   LIG A   1      -9.097   3.009 133.287  0.00  0.00    +0.236 C 
ATOM      6  C   LIG A   1      -8.723   3.785 132.034  0.00  0.00    +0.045 C 
ENDROOT
BRANCH   1   7
ATOM      7  C   LIG A   1     -10.232   5.839 132.523  0.00  0.00    +0.050 C 
BRANCH   7  12
ATOM      8  C   LIG A   1     -10.040   7.742 129.197  0.00  0.00    +0.050 A 
ATOM      9  C   LIG A   1     -11.369   7.701 128.833  0.00  0.00    +0.166 A 
ATOM     10  C   LIG A   1     -12.317   7.113 129.634  0.00  0.00    +0.167 A 
ATOM     11  C   LIG A   1     -11.989   6.526 130.838  0.00  0.00    +0.053 A 
ATOM     12  C   LIG A   1     -10.639   6.523 131.235  0.00  0.00    -0.043 A 
ATOM     13  C   LIG A   1      -9.674   7.145 130.411  0.00  0.00    +0.007 A 
ATOM     14  O   LIG A   1     -13.562   7.166 129.089  0.00  0.00    -0.453 OA
ATOM     15  C   LIG A   1     -13.268   7.760 127.809  0.00  0.00    +0.466 C 
ATOM     16  O   LIG A   1     -11.899   8.201 127.684  0.00  0.00    -0.453 OA
ENDBRANCH   7  12
ENDBRANCH   1   7
BRANCH   6  17
ATOM     17  C   LIG A   1      -9.527   3.395 130.794  0.00  0.00    +0.042 C 
BRANCH  17  18
ATOM     18  C   LIG A   1      -8.661   3.173 129.570  0.00  0.00    -0.043 A 
ATOM     19  C   LIG A   1      -7.709   4.131 129.186  0.00  0.00    +0.053 A 
ATOM     20  C   LIG A   1      -6.894   3.931 128.064  0.00  0.00    +0.162 A 
ATOM     21  C   LIG A   1      -7.027   2.755 127.307  0.00  0.00    +0.162 A 
ATOM     22  C   LIG A   1      -7.972   1.798 127.686  0.00  0.00    +0.050 A 
ATOM     23  C   LIG A   1      -8.787   2.008 128.805  0.00  0.00    +0.007 A 
BRANCH  21  24
ATOM     24  O   LIG A   1      -6.180   2.608 126.237  0.00  0.00    -0.491 OA
ATOM     25  C   LIG A   1      -6.788   2.626 124.953  0.00  0.00    +0.277 C 
ENDBRANCH  21  24
BRANCH  20  26
ATOM     26  O   LIG A   1      -5.924   4.818 127.665  0.00  0.00    -0.491 OA
ATOM     27  C   LIG A   1      -4.812   4.958 128.542  0.00  0.00    +0.277 C 
ENDBRANCH  20  26
ENDBRANCH  17  18
ENDBRANCH   6  17
TORSDOF 6
ENDMDL
MODEL 6
REMARK VINA RESULT:      -7.2      3.113      4.256
REMARK  Name = NuBBE_2369
REMARK  8 active torsions:
REMARK  status: ('A' for Active; 'I' for Inactive)
REMARK    1  A    between atoms: C_5  and  C_7
REMARK    2  A    between atoms: C_7  and  C_8
REMARK    3  A    between atoms: C_14  and  C_16
REMARK    4  A    between atoms: C_16  and  C_17
REMARK    5  A    between atoms: C_19  and  O_25
REMARK    6  A    between atoms: C_20  and  O_23
REMARK    7  A    between atoms: O_23  and  C_24
REMARK    8  A    between atoms: O_25  and  C_26
REMARK                            x       y       z     vdW  Elec       q    Type
REMARK                         _______ _______ _______ _____ _____    ______ ____
ROOT
ATOM      1  C   LIG A   1      -8.386  -0.428 131.207  0.00  0.00    +0.109 C 
ATOM      2  C   LIG A   1      -7.998  -0.718 132.638  0.00  0.00    +0.311 C 
ATOM      3  O   LIG A   1      -8.137  -1.789 133.203  0.00  0.00    -0.251 OA
ATOM      4  O   LIG A   1      -7.455   0.384 133.232  0.00  0.00    -0.464 OA
ATOM      5  C   LIG A   1      -7.541   1.478 132.340  0.00  0.00    +0.236 C 
ATOM      6  C   LIG A   1      -8.610   1.084 131.333  0.00  0.00    +0.045 C 
ENDROOT
BRANCH   1   7
ATOM      7  C   LIG A   1      -7.267  -0.857 130.254  0.00  0.00    +0.050 C 
BRANCH   7  12
ATOM      8  C   LIG A   1      -8.672  -3.692 128.084  0.00  0.00    +0.050 A 
ATOM      9  C   LIG A   1      -8.644  -3.073 126.852  0.00  0.00    +0.166 A 
ATOM     10  C   LIG A   1      -8.162  -1.796 126.700  0.00  0.00    +0.167 A 
ATOM     11  C   LIG A   1      -7.690  -1.064 127.769  0.00  0.00    +0.053 A 
ATOM     12  C   LIG A   1      -7.724  -1.650 129.047  0.00  0.00    -0.043 A 
ATOM     13  C   LIG A   1      -8.207  -2.970 129.191  0.00  0.00    +0.007 A 
ATOM     14  O   LIG A   1      -8.235  -1.364 125.412  0.00  0.00    -0.453 OA
ATOM     15  C   LIG A   1      -8.915  -2.477 124.796  0.00  0.00    +0.466 C 
ATOM     16  O   LIG A   1      -9.078  -3.607 125.679  0.00  0.00    -0.453 OA
ENDBRANCH   7  12
ENDBRANCH   1   7
BRANCH   6  17
ATOM     17  C   LIG A   1      -8.591   1.911 130.047  0.00  0.00    +0.042 C 
BRANCH  17  18
ATOM     18  C   LIG A   1      -9.189   3.292 130.221  0.00  0.00    -0.043 A 
ATOM     19  C   LIG A   1      -8.369   4.432 130.220  0.00  0.00    +0.053 A 
ATOM     20  C   LIG A   1      -8.912   5.715 130.367  0.00  0.00    +0.162 A 
ATOM     21  C   LIG A   1     -10.300   5.870 130.519  0.00  0.00    +0.162 A 
ATOM     22  C   LIG A   1     -11.121   4.740 130.520  0.00  0.00    +0.050 A 
ATOM     23  C   LIG A   1     -10.570   3.461 130.378  0.00  0.00    +0.007 A 
BRANCH  21  24
ATOM     24  O   LIG A   1     -10.771   7.155 130.629  0.00  0.00    -0.491 OA
ATOM     25  C   LIG A   1     -11.522   7.641 129.525  0.00  0.00    +0.277 C 
ENDBRANCH  21  24
BRANCH  20  26
ATOM     26  O   LIG A   1      -8.159   6.864 130.337  0.00  0.00    -0.491 OA
ATOM     27  C   LIG A   1      -6.988   6.859 131.145  0.00  0.00    +0.277 C 
ENDBRANCH  20  26
ENDBRANCH  17  18
ENDBRANCH   6  17
TORSDOF 6
ENDMDL
MODEL 7
REMARK VINA RESULT:      -7.1      6.106      7.686
REMARK  Name = NuBBE_2369
REMARK  8 active torsions:
REMARK  status: ('A' for Active; 'I' for Inactive)
REMARK    1  A    between atoms: C_5  and  C_7
REMARK    2  A    between atoms: C_7  and  C_8
REMARK    3  A    between atoms: C_14  and  C_16
REMARK    4  A    between atoms: C_16  and  C_17
REMARK    5  A    between atoms: C_19  and  O_25
REMARK    6  A    between atoms: C_20  and  O_23
REMARK    7  A    between atoms: O_23  and  C_24
REMARK    8  A    between atoms: O_25  and  C_26
REMARK                            x       y       z     vdW  Elec       q    Type
REMARK                         _______ _______ _______ _____ _____    ______ ____
ROOT
ATOM      1  C   LIG A   1      -4.331   7.108 130.832  0.00  0.00    +0.109 C 
ATOM      2  C   LIG A   1      -3.739   6.637 129.525  0.00  0.00    +0.311 C 
ATOM      3  O   LIG A   1      -2.795   7.151 128.951  0.00  0.00    -0.251 OA
ATOM      4  O   LIG A   1      -4.398   5.538 129.056  0.00  0.00    -0.464 OA
ATOM      5  C   LIG A   1      -5.502   5.269 129.898  0.00  0.00    +0.236 C 
ATOM      6  C   LIG A   1      -5.754   6.567 130.647  0.00  0.00    +0.045 C 
ENDROOT
BRANCH   1   7
ATOM      7  C   LIG A   1      -3.547   6.527 132.012  0.00  0.00    +0.050 C 
BRANCH   7  12
ATOM      8  C   LIG A   1      -0.036   7.573 133.151  0.00  0.00    +0.050 A 
ATOM      9  C   LIG A   1      -0.229   8.933 133.269  0.00  0.00    +0.166 A 
ATOM     10  C   LIG A   1      -1.451   9.511 133.024  0.00  0.00    +0.167 A 
ATOM     11  C   LIG A   1      -2.545   8.763 132.641  0.00  0.00    +0.053 A 
ATOM     12  C   LIG A   1      -2.384   7.374 132.486  0.00  0.00    -0.043 A 
ATOM     13  C   LIG A   1      -1.127   6.788 132.755  0.00  0.00    +0.007 A 
ATOM     14  O   LIG A   1      -1.428  10.862 133.180  0.00  0.00    -0.453 OA
ATOM     15  C   LIG A   1      -0.026  11.075 133.447  0.00  0.00    +0.466 C 
ATOM     16  O   LIG A   1       0.717   9.848 133.612  0.00  0.00    -0.453 OA
ENDBRANCH   7  12
ENDBRANCH   1   7
BRANCH   6  17
ATOM     17  C   LIG A   1      -6.618   6.408 131.898  0.00  0.00    +0.042 C 
BRANCH  17  18
ATOM     18  C   LIG A   1      -8.103   6.505 131.611  0.00  0.00    -0.043 A 
ATOM     19  C   LIG A   1      -8.567   7.164 130.461  0.00  0.00    +0.053 A 
ATOM     20  C   LIG A   1      -9.936   7.249 130.177  0.00  0.00    +0.162 A 
ATOM     21  C   LIG A   1     -10.866   6.667 131.055  0.00  0.00    +0.162 A 
ATOM     22  C   LIG A   1     -10.410   6.009 132.201  0.00  0.00    +0.050 A 
ATOM     23  C   LIG A   1      -9.040   5.934 132.480  0.00  0.00    +0.007 A 
BRANCH  21  24
ATOM     24  O   LIG A   1     -12.190   6.761 130.705  0.00  0.00    -0.491 OA
ATOM     25  C   LIG A   1     -12.991   7.608 131.519  0.00  0.00    +0.277 C 
ENDBRANCH  21  24
BRANCH  20  26
ATOM     26  O   LIG A   1     -10.440   7.850 129.050  0.00  0.00    -0.491 OA
ATOM     27  C   LIG A   1     -10.483   7.040 127.881  0.00  0.00    +0.277 C 
ENDBRANCH  20  26
ENDBRANCH  17  18
ENDBRANCH   6  17
TORSDOF 6
ENDMDL
MODEL 8
REMARK VINA RESULT:      -7.1      5.732      9.263
REMARK  Name = NuBBE_2369
REMARK  8 active torsions:
REMARK  status: ('A' for Active; 'I' for Inactive)
REMARK    1  A    between atoms: C_5  and  C_7
REMARK    2  A    between atoms: C_7  and  C_8
REMARK    3  A    between atoms: C_14  and  C_16
REMARK    4  A    between atoms: C_16  and  C_17
REMARK    5  A    between atoms: C_19  and  O_25
REMARK    6  A    between atoms: C_20  and  O_23
REMARK    7  A    between atoms: O_23  and  C_24
REMARK    8  A    between atoms: O_25  and  C_26
REMARK                            x       y       z     vdW  Elec       q    Type
REMARK                         _______ _______ _______ _____ _____    ______ ____
ROOT
ATOM      1  C   LIG A   1      -6.486   6.372 136.276  0.00  0.00    +0.109 C 
ATOM      2  C   LIG A   1      -5.107   6.029 136.791  0.00  0.00    +0.311 C 
ATOM      3  O   LIG A   1      -4.363   6.794 137.380  0.00  0.00    -0.251 OA
ATOM      4  O   LIG A   1      -4.791   4.731 136.516  0.00  0.00    -0.464 OA
ATOM      5  C   LIG A   1      -5.821   4.161 135.732  0.00  0.00    +0.236 C 
ATOM      6  C   LIG A   1      -6.569   5.345 135.141  0.00  0.00    +0.045 C 
ENDROOT
BRANCH   1   7
ATOM      7  C   LIG A   1      -7.524   6.216 137.391  0.00  0.00    +0.050 C 
BRANCH   7  12
ATOM      8  C   LIG A   1      -9.809   9.285 137.682  0.00  0.00    +0.050 A 
ATOM      9  C   LIG A   1      -9.300   9.840 138.838  0.00  0.00    +0.166 A 
ATOM     10  C   LIG A   1      -8.236   9.277 139.500  0.00  0.00    +0.167 A 
ATOM     11  C   LIG A   1      -7.627   8.125 139.048  0.00  0.00    +0.053 A 
ATOM     12  C   LIG A   1      -8.130   7.513 137.886  0.00  0.00    -0.043 A 
ATOM     13  C   LIG A   1      -9.215   8.109 137.204  0.00  0.00    +0.007 A 
ATOM     14  O   LIG A   1      -7.899   9.967 140.622  0.00  0.00    -0.453 OA
ATOM     15  C   LIG A   1      -8.940  10.964 140.644  0.00  0.00    +0.466 C 
ATOM     16  O   LIG A   1      -9.765  10.957 139.460  0.00  0.00    -0.453 OA
ENDBRANCH   7  12
ENDBRANCH   1   7
BRANCH   6  17
ATOM     17  C   LIG A   1      -7.956   5.000 134.600  0.00  0.00    +0.042 C 
BRANCH  17  18
ATOM     18  C   LIG A   1      -8.267   5.682 133.283  0.00  0.00    -0.043 A 
ATOM     19  C   LIG A   1      -7.234   6.208 132.490  0.00  0.00    +0.053 A 
ATOM     20  C   LIG A   1      -7.507   6.829 131.265  0.00  0.00    +0.162 A 
ATOM     21  C   LIG A   1      -8.835   6.931 130.816  0.00  0.00    +0.162 A 
ATOM     22  C   LIG A   1      -9.866   6.408 131.600  0.00  0.00    +0.050 A 
ATOM     23  C   LIG A   1      -9.585   5.794 132.827  0.00  0.00    +0.007 A 
BRANCH  21  24
ATOM     24  O   LIG A   1      -9.032   7.525 129.595  0.00  0.00    -0.491 OA
ATOM     25  C   LIG A   1     -10.384   7.766 129.230  0.00  0.00    +0.277 C 
ENDBRANCH  21  24
BRANCH  20  26
ATOM     26  O   LIG A   1      -6.533   7.329 130.435  0.00  0.00    -0.491 OA
ATOM     27  C   LIG A   1      -5.191   7.042 130.811  0.00  0.00    +0.277 C 
ENDBRANCH  20  26
ENDBRANCH  17  18
ENDBRANCH   6  17
TORSDOF 6
ENDMDL
MODEL 9
REMARK VINA RESULT:      -7.1      4.777      7.586
REMARK  Name = NuBBE_2369
REMARK  8 active torsions:
REMARK  status: ('A' for Active; 'I' for Inactive)
REMARK    1  A    between atoms: C_5  and  C_7
REMARK    2  A    between atoms: C_7  and  C_8
REMARK    3  A    between atoms: C_14  and  C_16
REMARK    4  A    between atoms: C_16  and  C_17
REMARK    5  A    between atoms: C_19  and  O_25
REMARK    6  A    between atoms: C_20  and  O_23
REMARK    7  A    between atoms: O_23  and  C_24
REMARK    8  A    between atoms: O_25  and  C_26
REMARK                            x       y       z     vdW  Elec       q    Type
REMARK                         _______ _______ _______ _____ _____    ______ ____
ROOT
ATOM      1  C   LIG A   1      -6.726   3.522 126.698  0.00  0.00    +0.109 C 
ATOM      2  C   LIG A   1      -6.895   4.251 128.010  0.00  0.00    +0.311 C 
ATOM      3  O   LIG A   1      -7.891   4.218 128.712  0.00  0.00    -0.251 OA
ATOM      4  O   LIG A   1      -5.773   4.961 128.326  0.00  0.00    -0.464 OA
ATOM      5  C   LIG A   1      -4.855   4.872 127.254  0.00  0.00    +0.236 C 
ATOM      6  C   LIG A   1      -5.688   4.449 126.054  0.00  0.00    +0.045 C 
ENDROOT
BRANCH   1   7
ATOM      7  C   LIG A   1      -6.269   2.082 126.945  0.00  0.00    +0.050 C 
BRANCH   7  12
ATOM      8  C   LIG A   1      -9.456   0.169 125.994  0.00  0.00    +0.050 A 
ATOM      9  C   LIG A   1      -8.893  -0.891 125.316  0.00  0.00    +0.166 A 
ATOM     10  C   LIG A   1      -7.532  -1.021 125.185  0.00  0.00    +0.167 A 
ATOM     11  C   LIG A   1      -6.659  -0.095 125.717  0.00  0.00    +0.053 A 
ATOM     12  C   LIG A   1      -7.193   1.015 126.396  0.00  0.00    -0.043 A 
ATOM     13  C   LIG A   1      -8.594   1.131 126.538  0.00  0.00    +0.007 A 
ATOM     14  O   LIG A   1      -7.182  -2.124 124.471  0.00  0.00    -0.453 OA
ATOM     15  C   LIG A   1      -8.481  -2.612 124.080  0.00  0.00    +0.466 C 
ATOM     16  O   LIG A   1      -9.571  -1.898 124.702  0.00  0.00    -0.453 OA
ENDBRANCH   7  12
ENDBRANCH   1   7
BRANCH   6  17
ATOM     17  C   LIG A   1      -4.867   3.892 124.890  0.00  0.00    +0.042 C 
BRANCH  17  18
ATOM     18  C   LIG A   1      -5.629   3.877 123.580  0.00  0.00    -0.043 A 
ATOM     19  C   LIG A   1      -6.968   3.455 123.537  0.00  0.00    +0.053 A 
ATOM     20  C   LIG A   1      -7.686   3.450 122.334  0.00  0.00    +0.162 A 
ATOM     21  C   LIG A   1      -7.062   3.872 121.148  0.00  0.00    +0.162 A 
ATOM     22  C   LIG A   1      -5.730   4.292 121.186  0.00  0.00    +0.050 A 
ATOM     23  C   LIG A   1      -5.017   4.290 122.391  0.00  0.00    +0.007 A 
BRANCH  21  24
ATOM     24  O   LIG A   1      -7.829   3.869 120.010  0.00  0.00    -0.491 OA
ATOM     25  C   LIG A   1      -7.279   4.546 118.887  0.00  0.00    +0.277 C 
ENDBRANCH  21  24
BRANCH  20  26
ATOM     26  O   LIG A   1      -9.006   3.082 122.242  0.00  0.00    -0.491 OA
ATOM     27  C   LIG A   1      -9.320   1.775 122.709  0.00  0.00    +0.277 C 
ENDBRANCH  20  26
ENDBRANCH  17  18
ENDBRANCH   6  17
TORSDOF 6
ENDMDL
