MODEL 1
REMARK VINA RESULT:      -9.3      0.000      0.000
REMARK  Name = NuBBE_1055
REMARK  11 active torsions:
REMARK  status: ('A' for Active; 'I' for Inactive)
REMARK    1  A    between atoms: C_1  and  C_2
REMARK    2  A    between atoms: C_2  and  C_3
REMARK    3  A    between atoms: C_4  and  C_6
REMARK    4  A    between atoms: C_6  and  C_7
REMARK    5  A    between atoms: C_7  and  O_8
REMARK    6  A    between atoms: O_8  and  C_9
REMARK    7  A    between atoms: C_11  and  C_12
REMARK    8  A    between atoms: C_13  and  O_21
REMARK    9  A    between atoms: C_14  and  C_15
REMARK   10  A    between atoms: C_24  and  C_25
REMARK   11  A    between atoms: C_30  and  C_32
REMARK                            x       y       z     vdW  Elec       q    Type
REMARK                         _______ _______ _______ _____ _____    ______ ____
ROOT
ATOM      1  C   LIG A   1      -7.508   4.294 125.993  0.00  0.00    +0.019 C 
ATOM      2  C   LIG A   1      -7.094   2.830 126.297  0.00  0.00    +0.032 C 
ATOM      3  C   LIG A   1      -5.796   3.026 127.125  0.00  0.00    +0.019 C 
ATOM      4  C   LIG A   1      -6.900   1.912 124.946  0.00  0.00    +0.029 C 
ATOM      5  C   LIG A   1      -6.623   0.306 125.334  0.00  0.00    +0.062 C 
ATOM      6  C   LIG A   1      -5.232   0.334 126.060  0.00  0.00    +0.022 C 
ATOM      7  C   LIG A   1      -6.679  -1.170 123.993  0.00  0.00    +0.121 C 
ATOM      8  C   LIG A   1      -8.302  -2.436 124.628  0.00  0.00    +0.159 C 
ATOM      9  C   LIG A   1      -9.850  -3.021 124.599  0.00  0.00    +0.064 C 
ATOM     10  O   LIG A   1      -9.050  -1.411 126.032  0.00  0.00    -0.482 OA
ATOM     11  C   LIG A   1      -8.055  -0.015 126.483  0.00  0.00    +0.112 C 
ATOM     12  C   LIG A   1      -8.679   0.919 127.200  0.00  0.00    +0.088 C 
ATOM     13  C   LIG A   1      -8.156   2.294 127.286  0.00  0.00    +0.165 C 
ATOM     14  O   LIG A   1      -8.590   2.996 128.204  0.00  0.00    -0.292 OA
ATOM     15  C   LIG A   1      -5.307  -1.911 123.731  0.00  0.00    +0.041 C 
ATOM     16  C   LIG A   1      -5.538  -3.358 123.980  0.00  0.00    +0.018 C 
ATOM     17  C   LIG A   1      -6.948  -3.398 124.550  0.00  0.00    +0.035 C 
ATOM     18  C   LIG A   1      -7.145  -4.869 124.986  0.00  0.00    +0.020 C 
ATOM     19  C   LIG A   1      -8.009  -2.979 123.309  0.00  0.00    -0.008 C 
ATOM     20  C   LIG A   1      -8.710  -2.017 122.650  0.00  0.00    +0.095 C 
ATOM     21  C   LIG A   1      -9.019  -0.724 123.430  0.00  0.00    +0.333 C 
ATOM     22  O   LIG A   1      -8.194  -0.681 124.692  0.00  0.00    -0.453 OA
ATOM     23  C   LIG A   1      -7.054  -1.960 125.821  0.00  0.00    +0.220 C 
ATOM     24  O   LIG A   1      -9.851   0.098 123.090  0.00  0.00    -0.246 OA
ENDROOT
BRANCH  23  25
ATOM     25  C   LIG A   1      -7.417  -2.577 127.288  0.00  0.00    +0.031 A 
ATOM     26  C   LIG A   1      -6.614  -2.494 128.421  0.00  0.00    +0.202 A 
ATOM     27  O   LIG A   1      -7.168  -3.121 129.489  0.00  0.00    -0.471 OA
ATOM     28  C   LIG A   1      -8.351  -3.624 129.077  0.00  0.00    +0.195 A 
ATOM     29  C   LIG A   1      -8.558  -3.310 127.756  0.00  0.00    +0.048 A 
ENDBRANCH  23  25
BRANCH   7  30
ATOM     30  O   LIG A   1      -6.746  -0.445 122.710  0.00  0.00    -0.383 OA
ATOM     31  H   LIG A   1      -6.700   0.508 122.900  0.00  0.00    +0.210 HD
ENDBRANCH   7  30
BRANCH   4  32
ATOM     32  C   LIG A   1      -8.040   2.140 123.915  0.00  0.00    +0.126 C 
BRANCH  32  33
ATOM     33  C   LIG A   1      -7.800   2.843 122.590  0.00  0.00    +0.307 C 
ATOM     34  O   LIG A   1      -8.674   3.438 121.971  0.00  0.00    -0.251 OA
BRANCH  33  35
ATOM     35  O   LIG A   1      -6.530   2.659 122.150  0.00  0.00    -0.468 OA
ATOM     36  C   LIG A   1      -5.851   3.842 121.714  0.00  0.00    +0.280 C 
ENDBRANCH  33  35
ENDBRANCH  32  33
ENDBRANCH   4  32
TORSDOF 5
ENDMDL
MODEL 2
REMARK VINA RESULT:      -8.3      4.284      7.847
REMARK  Name = NuBBE_1055
REMARK  11 active torsions:
REMARK  status: ('A' for Active; 'I' for Inactive)
REMARK    1  A    between atoms: C_1  and  C_2
REMARK    2  A    between atoms: C_2  and  C_3
REMARK    3  A    between atoms: C_4  and  C_6
REMARK    4  A    between atoms: C_6  and  C_7
REMARK    5  A    between atoms: C_7  and  O_8
REMARK    6  A    between atoms: O_8  and  C_9
REMARK    7  A    between atoms: C_11  and  C_12
REMARK    8  A    between atoms: C_13  and  O_21
REMARK    9  A    between atoms: C_14  and  C_15
REMARK   10  A    between atoms: C_24  and  C_25
REMARK   11  A    between atoms: C_30  and  C_32
REMARK                            x       y       z     vdW  Elec       q    Type
REMARK                         _______ _______ _______ _____ _____    ______ ____
ROOT
ATOM      1  C   LIG A   1      -4.473   3.882 125.913  0.00  0.00    +0.019 C 
ATOM      2  C   LIG A   1      -4.717   3.631 127.425  0.00  0.00    +0.032 C 
ATOM      3  C   LIG A   1      -3.672   2.528 127.742  0.00  0.00    +0.019 C 
ATOM      4  C   LIG A   1      -6.268   3.210 127.775  0.00  0.00    +0.029 C 
ATOM      5  C   LIG A   1      -6.516   3.119 129.430  0.00  0.00    +0.062 C 
ATOM      6  C   LIG A   1      -5.615   1.914 129.874  0.00  0.00    +0.022 C 
ATOM      7  C   LIG A   1      -8.326   2.977 130.259  0.00  0.00    +0.121 C 
ATOM      8  C   LIG A   1      -8.540   4.771 131.432  0.00  0.00    +0.159 C 
ATOM      9  C   LIG A   1      -9.066   6.311 131.741  0.00  0.00    +0.064 C 
ATOM     10  O   LIG A   1      -6.992   5.737 130.927  0.00  0.00    -0.482 OA
ATOM     11  C   LIG A   1      -5.857   4.778 129.962  0.00  0.00    +0.112 C 
ATOM     12  C   LIG A   1      -4.943   5.482 129.295  0.00  0.00    +0.088 C 
ATOM     13  C   LIG A   1      -4.224   4.908 128.143  0.00  0.00    +0.165 C 
ATOM     14  O   LIG A   1      -3.190   5.484 127.792  0.00  0.00    -0.292 OA
ATOM     15  C   LIG A   1      -8.625   1.628 131.027  0.00  0.00    +0.041 C 
ATOM     16  C   LIG A   1      -9.020   1.993 132.412  0.00  0.00    +0.018 C 
ATOM     17  C   LIG A   1      -8.765   3.491 132.470  0.00  0.00    +0.035 C 
ATOM     18  C   LIG A   1      -8.997   3.864 133.953  0.00  0.00    +0.020 C 
ATOM     19  C   LIG A   1      -9.894   4.238 131.467  0.00  0.00    -0.008 C 
ATOM     20  C   LIG A   1     -10.221   4.725 130.239  0.00  0.00    +0.095 C 
ATOM     21  C   LIG A   1      -9.053   5.115 129.311  0.00  0.00    +0.333 C 
ATOM     22  O   LIG A   1      -7.759   4.574 129.868  0.00  0.00    -0.453 OA
ATOM     23  C   LIG A   1      -7.062   3.779 131.626  0.00  0.00    +0.220 C 
ATOM     24  O   LIG A   1      -9.171   5.805 128.315  0.00  0.00    -0.246 OA
ENDROOT
BRANCH  23  25
ATOM     25  C   LIG A   1      -6.052   4.480 132.699  0.00  0.00    +0.031 A 
ATOM     26  C   LIG A   1      -4.865   3.929 133.172  0.00  0.00    +0.202 A 
ATOM     27  O   LIG A   1      -4.250   4.734 134.074  0.00  0.00    -0.471 OA
ATOM     28  C   LIG A   1      -5.020   5.834 134.206  0.00  0.00    +0.195 A 
ATOM     29  C   LIG A   1      -6.117   5.739 133.384  0.00  0.00    +0.048 A 
ENDBRANCH  23  25
BRANCH   7  30
ATOM     30  O   LIG A   1      -9.200   2.728 129.097  0.00  0.00    -0.383 OA
ATOM     31  H   LIG A   1      -9.089   3.466 128.473  0.00  0.00    +0.210 HD
ENDBRANCH   7  30
BRANCH   4  32
ATOM     32  C   LIG A   1      -7.299   4.090 127.015  0.00  0.00    +0.126 C 
BRANCH  32  33
ATOM     33  C   LIG A   1      -8.244   3.510 125.977  0.00  0.00    +0.307 C 
ATOM     34  O   LIG A   1      -8.654   4.137 125.008  0.00  0.00    -0.251 OA
BRANCH  33  35
ATOM     35  O   LIG A   1      -8.633   2.251 126.304  0.00  0.00    -0.468 OA
ATOM     36  C   LIG A   1      -8.975   1.406 125.200  0.00  0.00    +0.280 C 
ENDBRANCH  33  35
ENDBRANCH  32  33
ENDBRANCH   4  32
TORSDOF 5
ENDMDL
MODEL 3
REMARK VINA RESULT:      -8.0      2.212      5.317
REMARK  Name = NuBBE_1055
REMARK  11 active torsions:
REMARK  status: ('A' for Active; 'I' for Inactive)
REMARK    1  A    between atoms: C_1  and  C_2
REMARK    2  A    between atoms: C_2  and  C_3
REMARK    3  A    between atoms: C_4  and  C_6
REMARK    4  A    between atoms: C_6  and  C_7
REMARK    5  A    between atoms: C_7  and  O_8
REMARK    6  A    between atoms: O_8  and  C_9
REMARK    7  A    between atoms: C_11  and  C_12
REMARK    8  A    between atoms: C_13  and  O_21
REMARK    9  A    between atoms: C_14  and  C_15
REMARK   10  A    between atoms: C_24  and  C_25
REMARK   11  A    between atoms: C_30  and  C_32
REMARK                            x       y       z     vdW  Elec       q    Type
REMARK                         _______ _______ _______ _____ _____    ______ ____
ROOT
ATOM      1  C   LIG A   1      -9.375   0.219 122.299  0.00  0.00    +0.019 C 
ATOM      2  C   LIG A   1      -8.885   1.077 123.496  0.00  0.00    +0.032 C 
ATOM      3  C   LIG A   1      -8.895   2.507 122.894  0.00  0.00    +0.019 C 
ATOM      4  C   LIG A   1      -7.424   0.603 124.084  0.00  0.00    +0.029 C 
ATOM      5  C   LIG A   1      -7.024   1.447 125.475  0.00  0.00    +0.062 C 
ATOM      6  C   LIG A   1      -6.848   2.924 124.975  0.00  0.00    +0.022 C 
ATOM      7  C   LIG A   1      -5.512   0.932 126.671  0.00  0.00    +0.121 C 
ATOM      8  C   LIG A   1      -6.437   0.438 128.553  0.00  0.00    +0.159 C 
ATOM      9  C   LIG A   1      -7.044  -0.583 129.707  0.00  0.00    +0.064 C 
ATOM     10  O   LIG A   1      -8.273   0.508 128.098  0.00  0.00    -0.482 OA
ATOM     11  C   LIG A   1      -8.566   1.183 126.486  0.00  0.00    +0.112 C 
ATOM     12  C   LIG A   1      -9.775   0.938 125.979  0.00  0.00    +0.088 C 
ATOM     13  C   LIG A   1     -10.033   1.039 124.532  0.00  0.00    +0.165 C 
ATOM     14  O   LIG A   1     -11.214   1.119 124.183  0.00  0.00    -0.292 OA
ATOM     15  C   LIG A   1      -4.320   1.967 126.756  0.00  0.00    +0.041 C 
ATOM     16  C   LIG A   1      -4.140   2.309 128.191  0.00  0.00    +0.018 C 
ATOM     17  C   LIG A   1      -5.321   1.630 128.867  0.00  0.00    +0.035 C 
ATOM     18  C   LIG A   1      -5.258   2.119 130.333  0.00  0.00    +0.020 C 
ATOM     19  C   LIG A   1      -5.077  -0.034 128.765  0.00  0.00    -0.008 C 
ATOM     20  C   LIG A   1      -5.274  -1.203 128.097  0.00  0.00    +0.095 C 
ATOM     21  C   LIG A   1      -6.486  -1.264 127.145  0.00  0.00    +0.333 C 
ATOM     22  O   LIG A   1      -7.031   0.125 126.927  0.00  0.00    -0.453 OA
ATOM     23  C   LIG A   1      -6.852   1.990 127.763  0.00  0.00    +0.220 C 
ATOM     24  O   LIG A   1      -6.951  -2.295 126.696  0.00  0.00    -0.246 OA
ENDROOT
BRANCH  23  25
ATOM     25  C   LIG A   1      -7.966   2.790 128.647  0.00  0.00    +0.031 A 
ATOM     26  C   LIG A   1      -8.307   4.131 128.498  0.00  0.00    +0.202 A 
ATOM     27  O   LIG A   1      -9.249   4.523 129.392  0.00  0.00    -0.471 OA
ATOM     28  C   LIG A   1      -9.549   3.442 130.144  0.00  0.00    +0.195 A 
ATOM     29  C   LIG A   1      -8.811   2.362 129.725  0.00  0.00    +0.048 A 
ENDBRANCH  23  25
BRANCH   7  30
ATOM     30  O   LIG A   1      -4.808  -0.099 125.885  0.00  0.00    -0.383 OA
ATOM     31  H   LIG A   1      -5.089  -0.971 126.212  0.00  0.00    +0.210 HD
ENDBRANCH   7  30
BRANCH   4  32
ATOM     32  C   LIG A   1      -7.318  -0.942 124.213  0.00  0.00    +0.126 C 
BRANCH  32  33
ATOM     33  C   LIG A   1      -6.424  -1.768 123.304  0.00  0.00    +0.307 C 
ATOM     34  O   LIG A   1      -6.737  -2.102 122.168  0.00  0.00    -0.251 OA
BRANCH  33  35
ATOM     35  O   LIG A   1      -5.285  -2.149 123.935  0.00  0.00    -0.468 OA
ATOM     36  C   LIG A   1      -4.994  -3.551 123.889  0.00  0.00    +0.280 C 
ENDBRANCH  33  35
ENDBRANCH  32  33
ENDBRANCH   4  32
TORSDOF 5
ENDMDL
MODEL 4
REMARK VINA RESULT:      -8.0      5.609      9.471
REMARK  Name = NuBBE_1055
REMARK  11 active torsions:
REMARK  status: ('A' for Active; 'I' for Inactive)
REMARK    1  A    between atoms: C_1  and  C_2
REMARK    2  A    between atoms: C_2  and  C_3
REMARK    3  A    between atoms: C_4  and  C_6
REMARK    4  A    between atoms: C_6  and  C_7
REMARK    5  A    between atoms: C_7  and  O_8
REMARK    6  A    between atoms: O_8  and  C_9
REMARK    7  A    between atoms: C_11  and  C_12
REMARK    8  A    between atoms: C_13  and  O_21
REMARK    9  A    between atoms: C_14  and  C_15
REMARK   10  A    between atoms: C_24  and  C_25
REMARK   11  A    between atoms: C_30  and  C_32
REMARK                            x       y       z     vdW  Elec       q    Type
REMARK                         _______ _______ _______ _____ _____    ______ ____
ROOT
ATOM      1  C   LIG A   1      -9.917   2.810 130.465  0.00  0.00    +0.019 C 
ATOM      2  C   LIG A   1      -8.373   2.762 130.313  0.00  0.00    +0.032 C 
ATOM      3  C   LIG A   1      -8.071   1.257 130.543  0.00  0.00    +0.019 C 
ATOM      4  C   LIG A   1      -7.585   3.773 131.344  0.00  0.00    +0.029 C 
ATOM      5  C   LIG A   1      -5.940   3.810 131.022  0.00  0.00    +0.062 C 
ATOM      6  C   LIG A   1      -5.461   2.356 131.367  0.00  0.00    +0.022 C 
ATOM      7  C   LIG A   1      -4.700   5.158 131.815  0.00  0.00    +0.121 C 
ATOM      8  C   LIG A   1      -3.941   6.269 130.133  0.00  0.00    +0.159 C 
ATOM      9  C   LIG A   1      -3.870   7.553 129.089  0.00  0.00    +0.064 C 
ATOM     10  O   LIG A   1      -4.998   5.582 128.721  0.00  0.00    -0.482 OA
ATOM     11  C   LIG A   1      -5.962   4.173 129.195  0.00  0.00    +0.112 C 
ATOM     12  C   LIG A   1      -6.965   3.868 128.371  0.00  0.00    +0.088 C 
ATOM     13  C   LIG A   1      -8.094   3.032 128.816  0.00  0.00    +0.165 C 
ATOM     14  O   LIG A   1      -8.798   2.535 127.933  0.00  0.00    -0.292 OA
ATOM     15  C   LIG A   1      -3.601   4.585 132.797  0.00  0.00    +0.041 C 
ATOM     16  C   LIG A   1      -2.280   5.021 132.276  0.00  0.00    +0.018 C 
ATOM     17  C   LIG A   1      -2.620   5.657 130.937  0.00  0.00    +0.035 C 
ATOM     18  C   LIG A   1      -1.246   5.956 130.293  0.00  0.00    +0.020 C 
ATOM     19  C   LIG A   1      -3.472   7.076 131.250  0.00  0.00    -0.008 C 
ATOM     20  C   LIG A   1      -4.666   7.706 131.423  0.00  0.00    +0.095 C 
ATOM     21  C   LIG A   1      -5.905   7.032 130.799  0.00  0.00    +0.333 C 
ATOM     22  O   LIG A   1      -5.560   5.625 130.378  0.00  0.00    -0.453 OA
ATOM     23  C   LIG A   1      -3.882   4.480 130.089  0.00  0.00    +0.220 C 
ATOM     24  O   LIG A   1      -6.974   7.589 130.629  0.00  0.00    -0.246 OA
ENDROOT
BRANCH  23  25
ATOM     25  C   LIG A   1      -3.261   3.975 128.667  0.00  0.00    +0.031 A 
ATOM     26  C   LIG A   1      -3.235   2.658 128.219  0.00  0.00    +0.202 A 
ATOM     27  O   LIG A   1      -2.633   2.540 127.008  0.00  0.00    -0.471 OA
ATOM     28  C   LIG A   1      -2.256   3.782 126.636  0.00  0.00    +0.195 A 
ATOM     29  C   LIG A   1      -2.626   4.690 127.598  0.00  0.00    +0.048 A 
ENDBRANCH  23  25
BRANCH   7  30
ATOM     30  O   LIG A   1      -5.539   5.814 132.836  0.00  0.00    -0.383 OA
ATOM     31  H   LIG A   1      -6.023   5.122 133.318  0.00  0.00    +0.210 HD
ENDBRANCH   7  30
BRANCH   4  32
ATOM     32  C   LIG A   1      -8.258   5.170 131.424  0.00  0.00    +0.126 C 
BRANCH  32  33
ATOM     33  C   LIG A   1      -8.862   5.702 132.713  0.00  0.00    +0.307 C 
ATOM     34  O   LIG A   1      -8.430   5.430 133.826  0.00  0.00    -0.251 OA
BRANCH  33  35
ATOM     35  O   LIG A   1      -9.974   6.443 132.475  0.00  0.00    -0.468 OA
ATOM     36  C   LIG A   1     -10.401   6.494 131.110  0.00  0.00    +0.280 C 
ENDBRANCH  33  35
ENDBRANCH  32  33
ENDBRANCH   4  32
TORSDOF 5
ENDMDL
MODEL 5
REMARK VINA RESULT:      -7.8      1.801      6.884
REMARK  Name = NuBBE_1055
REMARK  11 active torsions:
REMARK  status: ('A' for Active; 'I' for Inactive)
REMARK    1  A    between atoms: C_1  and  C_2
REMARK    2  A    between atoms: C_2  and  C_3
REMARK    3  A    between atoms: C_4  and  C_6
REMARK    4  A    between atoms: C_6  and  C_7
REMARK    5  A    between atoms: C_7  and  O_8
REMARK    6  A    between atoms: O_8  and  C_9
REMARK    7  A    between atoms: C_11  and  C_12
REMARK    8  A    between atoms: C_13  and  O_21
REMARK    9  A    between atoms: C_14  and  C_15
REMARK   10  A    between atoms: C_24  and  C_25
REMARK   11  A    between atoms: C_30  and  C_32
REMARK                            x       y       z     vdW  Elec       q    Type
REMARK                         _______ _______ _______ _____ _____    ______ ____
ROOT
ATOM      1  C   LIG A   1      -8.437  -3.264 127.579  0.00  0.00    +0.019 C 
ATOM      2  C   LIG A   1      -7.841  -2.159 126.667  0.00  0.00    +0.032 C 
ATOM      3  C   LIG A   1      -7.020  -2.990 125.645  0.00  0.00    +0.019 C 
ATOM      4  C   LIG A   1      -6.960  -1.040 127.488  0.00  0.00    +0.029 C 
ATOM      5  C   LIG A   1      -6.486   0.218 126.487  0.00  0.00    +0.062 C 
ATOM      6  C   LIG A   1      -5.506  -0.465 125.470  0.00  0.00    +0.022 C 
ATOM      7  C   LIG A   1      -5.705   1.924 127.167  0.00  0.00    +0.121 C 
ATOM      8  C   LIG A   1      -7.113   3.448 126.588  0.00  0.00    +0.159 C 
ATOM      9  C   LIG A   1      -8.364   4.506 126.826  0.00  0.00    +0.064 C 
ATOM     10  O   LIG A   1      -8.539   2.404 125.909  0.00  0.00    -0.482 OA
ATOM     11  C   LIG A   1      -8.126   0.689 125.738  0.00  0.00    +0.112 C 
ATOM     12  C   LIG A   1      -9.166  -0.135 125.605  0.00  0.00    +0.088 C 
ATOM     13  C   LIG A   1      -9.040  -1.577 125.882  0.00  0.00    +0.165 C 
ATOM     14  O   LIG A   1      -9.929  -2.307 125.434  0.00  0.00    -0.292 OA
ATOM     15  C   LIG A   1      -4.203   2.202 126.759  0.00  0.00    +0.041 C 
ATOM     16  C   LIG A   1      -4.173   3.522 126.078  0.00  0.00    +0.018 C 
ATOM     17  C   LIG A   1      -5.644   3.883 125.941  0.00  0.00    +0.035 C 
ATOM     18  C   LIG A   1      -5.646   5.165 125.076  0.00  0.00    +0.020 C 
ATOM     19  C   LIG A   1      -6.239   4.186 127.488  0.00  0.00    -0.008 C 
ATOM     20  C   LIG A   1      -6.848   3.726 128.614  0.00  0.00    +0.095 C 
ATOM     21  C   LIG A   1      -7.710   2.455 128.469  0.00  0.00    +0.333 C 
ATOM     22  O   LIG A   1      -7.440   1.808 127.134  0.00  0.00    -0.453 OA
ATOM     23  C   LIG A   1      -6.537   2.285 125.354  0.00  0.00    +0.220 C 
ATOM     24  O   LIG A   1      -8.522   2.081 129.295  0.00  0.00    -0.246 OA
ENDROOT
BRANCH  23  25
ATOM     25  C   LIG A   1      -7.263   2.579 123.923  0.00  0.00    +0.031 A 
ATOM     26  C   LIG A   1      -6.625   2.628 122.687  0.00  0.00    +0.202 A 
ATOM     27  O   LIG A   1      -7.484   2.918 121.678  0.00  0.00    -0.471 OA
ATOM     28  C   LIG A   1      -8.706   3.059 122.233  0.00  0.00    +0.195 A 
ATOM     29  C   LIG A   1      -8.631   2.850 123.589  0.00  0.00    +0.048 A 
ENDBRANCH  23  25
BRANCH   7  30
ATOM     30  O   LIG A   1      -5.460   1.627 128.591  0.00  0.00    -0.383 OA
ATOM     31  H   LIG A   1      -4.792   0.922 128.641  0.00  0.00    +0.210 HD
ENDBRANCH   7  30
BRANCH   4  32
ATOM     32  C   LIG A   1      -7.660  -0.592 128.801  0.00  0.00    +0.126 C 
BRANCH  32  33
ATOM     33  C   LIG A   1      -7.100  -0.934 130.171  0.00  0.00    +0.307 C 
ATOM     34  O   LIG A   1      -6.041  -0.492 130.601  0.00  0.00    -0.251 OA
BRANCH  33  35
ATOM     35  O   LIG A   1      -7.874  -1.845 130.814  0.00  0.00    -0.468 OA
ATOM     36  C   LIG A   1      -7.235  -3.086 131.129  0.00  0.00    +0.280 C 
ENDBRANCH  33  35
ENDBRANCH  32  33
ENDBRANCH   4  32
TORSDOF 5
ENDMDL
MODEL 6
REMARK VINA RESULT:      -7.7      5.478      7.781
REMARK  Name = NuBBE_1055
REMARK  11 active torsions:
REMARK  status: ('A' for Active; 'I' for Inactive)
REMARK    1  A    between atoms: C_1  and  C_2
REMARK    2  A    between atoms: C_2  and  C_3
REMARK    3  A    between atoms: C_4  and  C_6
REMARK    4  A    between atoms: C_6  and  C_7
REMARK    5  A    between atoms: C_7  and  O_8
REMARK    6  A    between atoms: O_8  and  C_9
REMARK    7  A    between atoms: C_11  and  C_12
REMARK    8  A    between atoms: C_13  and  O_21
REMARK    9  A    between atoms: C_14  and  C_15
REMARK   10  A    between atoms: C_24  and  C_25
REMARK   11  A    between atoms: C_30  and  C_32
REMARK                            x       y       z     vdW  Elec       q    Type
REMARK                         _______ _______ _______ _____ _____    ______ ____
ROOT
ATOM      1  C   LIG A   1      -2.230   6.822 128.446  0.00  0.00    +0.019 C 
ATOM      2  C   LIG A   1      -3.010   6.137 129.599  0.00  0.00    +0.032 C 
ATOM      3  C   LIG A   1      -1.914   5.990 130.689  0.00  0.00    +0.019 C 
ATOM      4  C   LIG A   1      -3.715   4.718 129.157  0.00  0.00    +0.029 C 
ATOM      5  C   LIG A   1      -4.682   4.109 130.383  0.00  0.00    +0.062 C 
ATOM      6  C   LIG A   1      -3.661   3.766 131.525  0.00  0.00    +0.022 C 
ATOM      7  C   LIG A   1      -5.965   2.604 130.121  0.00  0.00    +0.121 C 
ATOM      8  C   LIG A   1      -7.906   3.456 130.507  0.00  0.00    +0.159 C 
ATOM      9  C   LIG A   1      -9.366   4.117 130.092  0.00  0.00    +0.064 C 
ATOM     10  O   LIG A   1      -7.481   5.292 130.686  0.00  0.00    -0.482 OA
ATOM     11  C   LIG A   1      -5.737   5.600 130.753  0.00  0.00    +0.112 C 
ATOM     12  C   LIG A   1      -5.374   6.863 130.528  0.00  0.00    +0.088 C 
ATOM     13  C   LIG A   1      -3.998   7.204 130.125  0.00  0.00    +0.165 C 
ATOM     14  O   LIG A   1      -3.660   8.384 130.251  0.00  0.00    -0.292 OA
ATOM     15  C   LIG A   1      -5.639   1.277 130.917  0.00  0.00    +0.041 C 
ATOM     16  C   LIG A   1      -6.838   0.953 131.733  0.00  0.00    +0.018 C 
ATOM     17  C   LIG A   1      -7.735   2.167 131.543  0.00  0.00    +0.035 C 
ATOM     18  C   LIG A   1      -8.908   1.936 132.524  0.00  0.00    +0.020 C 
ATOM     19  C   LIG A   1      -8.263   2.163 129.943  0.00  0.00    -0.008 C 
ATOM     20  C   LIG A   1      -8.086   2.566 128.656  0.00  0.00    +0.095 C 
ATOM     21  C   LIG A   1      -7.242   3.837 128.434  0.00  0.00    +0.333 C 
ATOM     22  O   LIG A   1      -6.524   4.199 129.710  0.00  0.00    -0.453 OA
ATOM     23  C   LIG A   1      -6.595   3.706 131.701  0.00  0.00    +0.220 C 
ATOM     24  O   LIG A   1      -7.220   4.471 127.395  0.00  0.00    -0.246 OA
ENDROOT
BRANCH  23  25
ATOM     25  C   LIG A   1      -7.127   4.635 132.933  0.00  0.00    +0.031 A 
ATOM     26  C   LIG A   1      -6.440   4.878 134.118  0.00  0.00    +0.202 A 
ATOM     27  O   LIG A   1      -7.144   5.670 134.965  0.00  0.00    -0.471 OA
ATOM     28  C   LIG A   1      -8.308   5.967 134.348  0.00  0.00    +0.195 A 
ATOM     29  C   LIG A   1      -8.342   5.377 133.108  0.00  0.00    +0.048 A 
ENDBRANCH  23  25
BRANCH   7  30
ATOM     30  O   LIG A   1      -5.615   2.106 128.777  0.00  0.00    -0.383 OA
ATOM     31  H   LIG A   1      -6.091   2.646 128.123  0.00  0.00    +0.210 HD
ENDBRANCH   7  30
BRANCH   4  32
ATOM     32  C   LIG A   1      -4.415   4.818 127.774  0.00  0.00    +0.126 C 
BRANCH  32  33
ATOM     33  C   LIG A   1      -3.987   3.966 126.591  0.00  0.00    +0.307 C 
ATOM     34  O   LIG A   1      -4.404   4.130 125.451  0.00  0.00    -0.251 OA
BRANCH  33  35
ATOM     35  O   LIG A   1      -3.157   2.962 126.972  0.00  0.00    -0.468 OA
ATOM     36  C   LIG A   1      -1.798   3.088 126.540  0.00  0.00    +0.280 C 
ENDBRANCH  33  35
ENDBRANCH  32  33
ENDBRANCH   4  32
TORSDOF 5
ENDMDL
MODEL 7
REMARK VINA RESULT:      -7.5      3.964      5.818
REMARK  Name = NuBBE_1055
REMARK  11 active torsions:
REMARK  status: ('A' for Active; 'I' for Inactive)
REMARK    1  A    between atoms: C_1  and  C_2
REMARK    2  A    between atoms: C_2  and  C_3
REMARK    3  A    between atoms: C_4  and  C_6
REMARK    4  A    between atoms: C_6  and  C_7
REMARK    5  A    between atoms: C_7  and  O_8
REMARK    6  A    between atoms: O_8  and  C_9
REMARK    7  A    between atoms: C_11  and  C_12
REMARK    8  A    between atoms: C_13  and  O_21
REMARK    9  A    between atoms: C_14  and  C_15
REMARK   10  A    between atoms: C_24  and  C_25
REMARK   11  A    between atoms: C_30  and  C_32
REMARK                            x       y       z     vdW  Elec       q    Type
REMARK                         _______ _______ _______ _____ _____    ______ ____
ROOT
ATOM      1  C   LIG A   1      -7.050   4.421 131.130  0.00  0.00    +0.019 C 
ATOM      2  C   LIG A   1      -6.642   3.040 131.709  0.00  0.00    +0.032 C 
ATOM      3  C   LIG A   1      -5.767   3.445 132.926  0.00  0.00    +0.019 C 
ATOM      4  C   LIG A   1      -5.875   2.076 130.620  0.00  0.00    +0.029 C 
ATOM      5  C   LIG A   1      -5.611   0.543 131.241  0.00  0.00    +0.062 C 
ATOM      6  C   LIG A   1      -4.598   0.787 132.414  0.00  0.00    +0.022 C 
ATOM      7  C   LIG A   1      -5.025  -1.005 130.126  0.00  0.00    +0.121 C 
ATOM      8  C   LIG A   1      -6.640  -2.424 130.255  0.00  0.00    +0.159 C 
ATOM      9  C   LIG A   1      -8.005  -3.199 129.727  0.00  0.00    +0.064 C 
ATOM     10  O   LIG A   1      -7.949  -1.420 131.183  0.00  0.00    -0.482 OA
ATOM     11  C   LIG A   1      -7.329   0.113 131.820  0.00  0.00    +0.112 C 
ATOM     12  C   LIG A   1      -8.260   1.003 132.165  0.00  0.00    +0.088 C 
ATOM     13  C   LIG A   1      -7.939   2.435 132.295  0.00  0.00    +0.165 C 
ATOM     14  O   LIG A   1      -8.746   3.130 132.919  0.00  0.00    -0.292 OA
ATOM     15  C   LIG A   1      -3.590  -1.583 130.454  0.00  0.00    +0.041 C 
ATOM     16  C   LIG A   1      -3.760  -3.029 130.747  0.00  0.00    +0.018 C 
ATOM     17  C   LIG A   1      -5.269  -3.213 130.769  0.00  0.00    +0.035 C 
ATOM     18  C   LIG A   1      -5.474  -4.668 131.251  0.00  0.00    +0.020 C 
ATOM     19  C   LIG A   1      -5.829  -3.003 129.194  0.00  0.00    -0.008 C 
ATOM     20  C   LIG A   1      -6.324  -2.177 128.233  0.00  0.00    +0.095 C 
ATOM     21  C   LIG A   1      -7.021  -0.889 128.713  0.00  0.00    +0.333 C 
ATOM     22  O   LIG A   1      -6.730  -0.669 130.177  0.00  0.00    -0.453 OA
ATOM     23  C   LIG A   1      -5.975  -1.727 131.765  0.00  0.00    +0.220 C 
ATOM     24  O   LIG A   1      -7.742  -0.199 128.015  0.00  0.00    -0.246 OA
ENDROOT
BRANCH  23  25
ATOM     25  C   LIG A   1      -6.796  -2.297 133.055  0.00  0.00    +0.031 A 
ATOM     26  C   LIG A   1      -6.578  -1.927 134.379  0.00  0.00    +0.202 A 
ATOM     27  O   LIG A   1      -7.398  -2.586 135.236  0.00  0.00    -0.471 OA
ATOM     28  C   LIG A   1      -8.174  -3.399 134.488  0.00  0.00    +0.195 A 
ATOM     29  C   LIG A   1      -7.861  -3.252 133.159  0.00  0.00    +0.048 A 
ENDBRANCH  23  25
BRANCH   7  30
ATOM     30  O   LIG A   1      -4.681  -0.370 128.840  0.00  0.00    -0.383 OA
ATOM     31  H   LIG A   1      -4.847  -1.016 128.131  0.00  0.00    +0.210 HD
ENDBRANCH   7  30
BRANCH   4  32
ATOM     32  C   LIG A   1      -6.568   2.098 129.229  0.00  0.00    +0.126 C 
BRANCH  32  33
ATOM     33  C   LIG A   1      -5.938   2.779 128.025  0.00  0.00    +0.307 C 
ATOM     34  O   LIG A   1      -6.119   3.957 127.741  0.00  0.00    -0.251 OA
BRANCH  33  35
ATOM     35  O   LIG A   1      -5.225   1.904 127.273  0.00  0.00    -0.468 OA
ATOM     36  C   LIG A   1      -4.119   2.465 126.556  0.00  0.00    +0.280 C 
ENDBRANCH  33  35
ENDBRANCH  32  33
ENDBRANCH   4  32
TORSDOF 5
ENDMDL
MODEL 8
REMARK VINA RESULT:      -7.5      3.229      5.915
REMARK  Name = NuBBE_1055
REMARK  11 active torsions:
REMARK  status: ('A' for Active; 'I' for Inactive)
REMARK    1  A    between atoms: C_1  and  C_2
REMARK    2  A    between atoms: C_2  and  C_3
REMARK    3  A    between atoms: C_4  and  C_6
REMARK    4  A    between atoms: C_6  and  C_7
REMARK    5  A    between atoms: C_7  and  O_8
REMARK    6  A    between atoms: O_8  and  C_9
REMARK    7  A    between atoms: C_11  and  C_12
REMARK    8  A    between atoms: C_13  and  O_21
REMARK    9  A    between atoms: C_14  and  C_15
REMARK   10  A    between atoms: C_24  and  C_25
REMARK   11  A    between atoms: C_30  and  C_32
REMARK                            x       y       z     vdW  Elec       q    Type
REMARK                         _______ _______ _______ _____ _____    ______ ____
ROOT
ATOM      1  C   LIG A   1      -8.876   1.571 126.347  0.00  0.00    +0.019 C 
ATOM      2  C   LIG A   1      -7.826   1.414 127.479  0.00  0.00    +0.032 C 
ATOM      3  C   LIG A   1      -6.856   2.589 127.186  0.00  0.00    +0.019 C 
ATOM      4  C   LIG A   1      -7.106  -0.065 127.500  0.00  0.00    +0.029 C 
ATOM      5  C   LIG A   1      -6.113  -0.241 128.838  0.00  0.00    +0.062 C 
ATOM      6  C   LIG A   1      -4.972   0.809 128.594  0.00  0.00    +0.022 C 
ATOM      7  C   LIG A   1      -5.339  -1.990 129.405  0.00  0.00    +0.121 C 
ATOM      8  C   LIG A   1      -6.184  -2.367 131.350  0.00  0.00    +0.159 C 
ATOM      9  C   LIG A   1      -7.244  -3.054 132.420  0.00  0.00    +0.064 C 
ATOM     10  O   LIG A   1      -7.443  -0.960 131.491  0.00  0.00    -0.482 OA
ATOM     11  C   LIG A   1      -7.291   0.243 130.198  0.00  0.00    +0.112 C 
ATOM     12  C   LIG A   1      -8.344   1.045 130.042  0.00  0.00    +0.088 C 
ATOM     13  C   LIG A   1      -8.566   1.782 128.786  0.00  0.00    +0.165 C 
ATOM     14  O   LIG A   1      -9.355   2.730 128.831  0.00  0.00    -0.292 OA
ATOM     15  C   LIG A   1      -3.764  -2.104 129.319  0.00  0.00    +0.041 C 
ATOM     16  C   LIG A   1      -3.280  -2.489 130.670  0.00  0.00    +0.018 C 
ATOM     17  C   LIG A   1      -4.531  -2.405 131.531  0.00  0.00    +0.035 C 
ATOM     18  C   LIG A   1      -4.020  -2.624 132.974  0.00  0.00    +0.020 C 
ATOM     19  C   LIG A   1      -5.562  -3.648 131.051  0.00  0.00    -0.008 C 
ATOM     20  C   LIG A   1      -6.590  -4.074 130.267  0.00  0.00    +0.095 C 
ATOM     21  C   LIG A   1      -7.549  -2.993 129.730  0.00  0.00    +0.333 C 
ATOM     22  O   LIG A   1      -6.949  -1.626 129.950  0.00  0.00    -0.453 OA
ATOM     23  C   LIG A   1      -5.422  -0.778 131.027  0.00  0.00    +0.220 C 
ATOM     24  O   LIG A   1      -8.647  -3.225 129.257  0.00  0.00    -0.246 OA
ENDROOT
BRANCH  23  25
ATOM     25  C   LIG A   1      -5.551   0.183 132.339  0.00  0.00    +0.031 A 
ATOM     26  C   LIG A   1      -4.992   1.450 132.471  0.00  0.00    +0.202 A 
ATOM     27  O   LIG A   1      -5.247   1.999 133.685  0.00  0.00    -0.471 OA
ATOM     28  C   LIG A   1      -5.986   1.103 134.373  0.00  0.00    +0.195 A 
ATOM     29  C   LIG A   1      -6.211  -0.010 133.598  0.00  0.00    +0.048 A 
ENDBRANCH  23  25
BRANCH   7  30
ATOM     30  O   LIG A   1      -5.652  -2.872 128.264  0.00  0.00    -0.383 OA
ATOM     31  H   LIG A   1      -6.620  -2.944 128.196  0.00  0.00    +0.210 HD
ENDBRANCH   7  30
BRANCH   4  32
ATOM     32  C   LIG A   1      -8.129  -1.217 127.300  0.00  0.00    +0.126 C 
BRANCH  32  33
ATOM     33  C   LIG A   1      -8.248  -1.971 125.986  0.00  0.00    +0.307 C 
ATOM     34  O   LIG A   1      -9.232  -1.917 125.260  0.00  0.00    -0.251 OA
BRANCH  33  35
ATOM     35  O   LIG A   1      -7.168  -2.764 125.766  0.00  0.00    -0.468 OA
ATOM     36  C   LIG A   1      -6.961  -3.160 124.405  0.00  0.00    +0.280 C 
ENDBRANCH  33  35
ENDBRANCH  32  33
ENDBRANCH   4  32
TORSDOF 5
ENDMDL
MODEL 9
REMARK VINA RESULT:      -7.4      5.945     10.051
REMARK  Name = NuBBE_1055
REMARK  11 active torsions:
REMARK  status: ('A' for Active; 'I' for Inactive)
REMARK    1  A    between atoms: C_1  and  C_2
REMARK    2  A    between atoms: C_2  and  C_3
REMARK    3  A    between atoms: C_4  and  C_6
REMARK    4  A    between atoms: C_6  and  C_7
REMARK    5  A    between atoms: C_7  and  O_8
REMARK    6  A    between atoms: O_8  and  C_9
REMARK    7  A    between atoms: C_11  and  C_12
REMARK    8  A    between atoms: C_13  and  O_21
REMARK    9  A    between atoms: C_14  and  C_15
REMARK   10  A    between atoms: C_24  and  C_25
REMARK   11  A    between atoms: C_30  and  C_32
REMARK                            x       y       z     vdW  Elec       q    Type
REMARK                         _______ _______ _______ _____ _____    ______ ____
ROOT
ATOM      1  C   LIG A   1      -2.495   6.852 132.552  0.00  0.00    +0.019 C 
ATOM      2  C   LIG A   1      -3.765   6.547 131.714  0.00  0.00    +0.032 C 
ATOM      3  C   LIG A   1      -3.751   7.697 130.672  0.00  0.00    +0.019 C 
ATOM      4  C   LIG A   1      -5.139   6.471 132.615  0.00  0.00    +0.029 C 
ATOM      5  C   LIG A   1      -6.446   5.971 131.694  0.00  0.00    +0.062 C 
ATOM      6  C   LIG A   1      -6.647   7.142 130.669  0.00  0.00    +0.022 C 
ATOM      7  C   LIG A   1      -8.197   5.427 132.481  0.00  0.00    +0.121 C 
ATOM      8  C   LIG A   1      -8.426   3.354 131.945  0.00  0.00    +0.159 C 
ATOM      9  C   LIG A   1      -8.367   1.720 132.204  0.00  0.00    +0.064 C 
ATOM     10  O   LIG A   1      -6.739   2.976 131.175  0.00  0.00    -0.482 OA
ATOM     11  C   LIG A   1      -5.747   4.424 130.927  0.00  0.00    +0.112 C 
ATOM     12  C   LIG A   1      -4.449   4.195 130.724  0.00  0.00    +0.088 C 
ATOM     13  C   LIG A   1      -3.444   5.253 130.929  0.00  0.00    +0.165 C 
ATOM     14  O   LIG A   1      -2.335   5.070 130.421  0.00  0.00    -0.292 OA
ATOM     15  C   LIG A   1      -9.427   6.357 132.128  0.00  0.00    +0.041 C 
ATOM     16  C   LIG A   1     -10.467   5.489 131.518  0.00  0.00    +0.018 C 
ATOM     17  C   LIG A   1      -9.765   4.150 131.360  0.00  0.00    +0.035 C 
ATOM     18  C   LIG A   1     -10.765   3.282 130.563  0.00  0.00    +0.020 C 
ATOM     19  C   LIG A   1      -9.507   3.527 132.905  0.00  0.00    -0.008 C 
ATOM     20  C   LIG A   1      -8.696   3.396 133.989  0.00  0.00    +0.095 C 
ATOM     21  C   LIG A   1      -7.185   3.598 133.756  0.00  0.00    +0.333 C 
ATOM     22  O   LIG A   1      -6.958   4.211 132.396  0.00  0.00    -0.453 OA
ATOM     23  C   LIG A   1      -8.014   4.540 130.668  0.00  0.00    +0.220 C 
ATOM     24  O   LIG A   1      -6.320   3.254 134.540  0.00  0.00    -0.246 OA
ENDROOT
BRANCH  23  25
ATOM     25  C   LIG A   1      -7.830   3.781 129.235  0.00  0.00    +0.031 A 
ATOM     26  C   LIG A   1      -7.690   4.408 128.001  0.00  0.00    +0.202 A 
ATOM     27  O   LIG A   1      -7.579   3.517 126.984  0.00  0.00    -0.471 OA
ATOM     28  C   LIG A   1      -7.640   2.285 127.534  0.00  0.00    +0.195 A 
ATOM     29  C   LIG A   1      -7.777   2.388 128.897  0.00  0.00    +0.048 A 
ENDBRANCH  23  25
BRANCH   7  30
ATOM     30  O   LIG A   1      -8.060   5.829 133.894  0.00  0.00    -0.383 OA
ATOM     31  H   LIG A   1      -8.650   5.267 134.426  0.00  0.00    +0.210 HD
ENDBRANCH   7  30
BRANCH   4  32
ATOM     32  C   LIG A   1      -4.933   5.670 133.930  0.00  0.00    +0.126 C 
BRANCH  32  33
ATOM     33  C   LIG A   1      -4.927   6.343 135.292  0.00  0.00    +0.307 C 
ATOM     34  O   LIG A   1      -3.913   6.755 135.841  0.00  0.00    -0.251 OA
BRANCH  33  35
ATOM     35  O   LIG A   1      -6.165   6.355 135.849  0.00  0.00    -0.468 OA
ATOM     36  C   LIG A   1      -6.279   7.069 137.085  0.00  0.00    +0.280 C 
ENDBRANCH  33  35
ENDBRANCH  32  33
ENDBRANCH   4  32
TORSDOF 5
ENDMDL
