MODEL 1
REMARK VINA RESULT:      -6.8      0.000      0.000
REMARK  Name = NuBBE_1663
REMARK  11 active torsions:
REMARK  status: ('A' for Active; 'I' for Inactive)
REMARK    1  A    between atoms: O_1  and  C_2
REMARK    2  A    between atoms: O_1  and  C_3
REMARK    3  A    between atoms: C_4  and  C_13
REMARK    4  A    between atoms: C_6  and  O_11
REMARK    5  A    between atoms: C_7  and  O_9
REMARK    6  A    between atoms: O_9  and  C_10
REMARK    7  A    between atoms: O_11  and  C_12
REMARK    8  A    between atoms: C_21  and  O_27
REMARK    9  A    between atoms: C_22  and  O_25
REMARK   10  A    between atoms: C_23  and  O_24
REMARK   11  A    between atoms: O_25  and  C_26
REMARK                            x       y       z     vdW  Elec       q    Type
REMARK                         _______ _______ _______ _____ _____    ______ ____
ROOT
ATOM      1  C   LIG A   1      -7.414   5.874 131.612  0.00  0.00    +0.068 A 
ATOM      2  C   LIG A   1      -8.250   5.874 130.380  0.00  0.00    +0.204 A 
ATOM      3  O   LIG A   1      -7.830   5.552 129.288  0.00  0.00    -0.286 OA
ATOM      4  C   LIG A   1      -9.672   6.261 130.548  0.00  0.00    +0.110 A 
ATOM      5  C   LIG A   1     -10.186   6.338 131.833  0.00  0.00    +0.146 A 
ATOM      6  O   LIG A   1      -9.419   6.153 132.956  0.00  0.00    -0.462 OA
ATOM      7  C   LIG A   1      -8.058   6.006 132.778  0.00  0.00    +0.208 A 
ATOM      8  C   LIG A   1     -11.539   6.614 132.028  0.00  0.00    +0.096 A 
ATOM      9  C   LIG A   1     -12.372   6.844 130.927  0.00  0.00    +0.166 A 
ATOM     10  C   LIG A   1     -11.858   6.834 129.620  0.00  0.00    +0.204 A 
ATOM     11  C   LIG A   1     -10.493   6.527 129.444  0.00  0.00    +0.177 A 
ENDROOT
BRANCH   1  13
ATOM     12  C   LIG A   1      -5.372   4.372 131.591  0.00  0.00    +0.132 A 
ATOM     13  C   LIG A   1      -5.958   5.648 131.562  0.00  0.00    +0.034 A 
ATOM     14  C   LIG A   1      -5.126   6.773 131.476  0.00  0.00    +0.061 A 
ATOM     15  C   LIG A   1      -3.732   6.658 131.447  0.00  0.00    +0.162 A 
ATOM     16  C   LIG A   1      -3.144   5.384 131.455  0.00  0.00    +0.165 A 
ATOM     17  C   LIG A   1      -3.973   4.248 131.495  0.00  0.00    +0.095 A 
BRANCH  12  18
ATOM     18  O   LIG A   1      -6.227   3.299 131.666  0.00  0.00    -0.494 OA
ATOM     19  C   LIG A   1      -6.238   2.602 132.911  0.00  0.00    +0.277 C 
ENDBRANCH  12  18
BRANCH  16  20
ATOM     20  O   LIG A   1      -1.793   5.114 131.394  0.00  0.00    -0.491 OA
ATOM     21  C   LIG A   1      -1.119   4.931 132.641  0.00  0.00    +0.277 C 
ENDBRANCH  16  20
BRANCH  15  22
ATOM     22  O   LIG A   1      -2.903   7.740 131.388  0.00  0.00    -0.491 OA
ATOM     23  C   LIG A   1      -2.555   8.402 132.588  0.00  0.00    +0.277 C 
ENDBRANCH  15  22
ENDBRANCH   1  13
BRANCH  11  24
ATOM     24  O   LIG A   1      -9.994   6.503 128.161  0.00  0.00    -0.503 OA
ATOM     25  H   LIG A   1      -9.192   7.069 128.127  0.00  0.00    +0.292 HD
ENDBRANCH  11  24
BRANCH  10  26
ATOM     26  O   LIG A   1     -12.544   7.071 128.458  0.00  0.00    -0.488 OA
ATOM     27  C   LIG A   1     -12.973   8.394 128.175  0.00  0.00    +0.277 C 
ENDBRANCH  10  26
BRANCH   9  28
ATOM     28  O   LIG A   1     -13.699   7.074 131.178  0.00  0.00    -0.503 OA
ATOM     29  H   LIG A   1     -14.235   6.522 130.584  0.00  0.00    +0.292 HD
ENDBRANCH   9  28
TORSDOF 7
ENDMDL
MODEL 2
REMARK VINA RESULT:      -6.8      2.415      2.749
REMARK  Name = NuBBE_1663
REMARK  11 active torsions:
REMARK  status: ('A' for Active; 'I' for Inactive)
REMARK    1  A    between atoms: O_1  and  C_2
REMARK    2  A    between atoms: O_1  and  C_3
REMARK    3  A    between atoms: C_4  and  C_13
REMARK    4  A    between atoms: C_6  and  O_11
REMARK    5  A    between atoms: C_7  and  O_9
REMARK    6  A    between atoms: O_9  and  C_10
REMARK    7  A    between atoms: O_11  and  C_12
REMARK    8  A    between atoms: C_21  and  O_27
REMARK    9  A    between atoms: C_22  and  O_25
REMARK   10  A    between atoms: C_23  and  O_24
REMARK   11  A    between atoms: O_25  and  C_26
REMARK                            x       y       z     vdW  Elec       q    Type
REMARK                         _______ _______ _______ _____ _____    ______ ____
ROOT
ATOM      1  C   LIG A   1      -7.676   4.824 130.081  0.00  0.00    +0.068 A 
ATOM      2  C   LIG A   1      -8.769   5.286 129.181  0.00  0.00    +0.204 A 
ATOM      3  O   LIG A   1      -8.745   5.146 127.976  0.00  0.00    -0.286 OA
ATOM      4  C   LIG A   1      -9.942   5.913 129.836  0.00  0.00    +0.110 A 
ATOM      5  C   LIG A   1     -10.069   5.795 131.211  0.00  0.00    +0.146 A 
ATOM      6  O   LIG A   1      -9.117   5.197 132.000  0.00  0.00    -0.462 OA
ATOM      7  C   LIG A   1      -7.939   4.813 131.393  0.00  0.00    +0.208 A 
ATOM      8  C   LIG A   1     -11.201   6.295 131.855  0.00  0.00    +0.096 A 
ATOM      9  C   LIG A   1     -12.196   6.944 131.114  0.00  0.00    +0.166 A 
ATOM     10  C   LIG A   1     -12.057   7.131 129.729  0.00  0.00    +0.204 A 
ATOM     11  C   LIG A   1     -10.916   6.595 129.095  0.00  0.00    +0.177 A 
ENDROOT
BRANCH   1  13
ATOM     12  C   LIG A   1      -6.236   3.022 129.029  0.00  0.00    +0.132 A 
ATOM     13  C   LIG A   1      -6.397   4.316 129.550  0.00  0.00    +0.034 A 
ATOM     14  C   LIG A   1      -5.294   5.181 129.570  0.00  0.00    +0.061 A 
ATOM     15  C   LIG A   1      -4.035   4.778 129.110  0.00  0.00    +0.162 A 
ATOM     16  C   LIG A   1      -3.875   3.493 128.569  0.00  0.00    +0.165 A 
ATOM     17  C   LIG A   1      -4.988   2.636 128.504  0.00  0.00    +0.095 A 
BRANCH  12  18
ATOM     18  O   LIG A   1      -7.347   2.214 129.022  0.00  0.00    -0.494 OA
ATOM     19  C   LIG A   1      -7.764   1.746 127.741  0.00  0.00    +0.277 C 
ENDBRANCH  12  18
BRANCH  16  20
ATOM     20  O   LIG A   1      -2.710   2.973 128.046  0.00  0.00    -0.491 OA
ATOM     21  C   LIG A   1      -2.508   3.139 126.641  0.00  0.00    +0.277 C 
ENDBRANCH  16  20
BRANCH  15  22
ATOM     22  O   LIG A   1      -2.942   5.595 129.141  0.00  0.00    -0.491 OA
ATOM     23  C   LIG A   1      -2.819   6.610 128.165  0.00  0.00    +0.277 C 
ENDBRANCH  15  22
ENDBRANCH   1  13
BRANCH  11  24
ATOM     24  O   LIG A   1     -10.789   6.766 127.735  0.00  0.00    -0.503 OA
ATOM     25  H   LIG A   1      -9.941   6.362 127.447  0.00  0.00    +0.292 HD
ENDBRANCH  11  24
BRANCH  10  26
ATOM     26  O   LIG A   1     -12.928   7.771 128.887  0.00  0.00    -0.488 OA
ATOM     27  C   LIG A   1     -12.952   9.189 128.876  0.00  0.00    +0.277 C 
ENDBRANCH  10  26
BRANCH   9  28
ATOM     28  O   LIG A   1     -13.301   7.383 131.792  0.00  0.00    -0.503 OA
ATOM     29  H   LIG A   1     -13.295   7.006 132.689  0.00  0.00    +0.292 HD
ENDBRANCH   9  28
TORSDOF 7
ENDMDL
MODEL 3
REMARK VINA RESULT:      -6.8      2.515      3.610
REMARK  Name = NuBBE_1663
REMARK  11 active torsions:
REMARK  status: ('A' for Active; 'I' for Inactive)
REMARK    1  A    between atoms: O_1  and  C_2
REMARK    2  A    between atoms: O_1  and  C_3
REMARK    3  A    between atoms: C_4  and  C_13
REMARK    4  A    between atoms: C_6  and  O_11
REMARK    5  A    between atoms: C_7  and  O_9
REMARK    6  A    between atoms: O_9  and  C_10
REMARK    7  A    between atoms: O_11  and  C_12
REMARK    8  A    between atoms: C_21  and  O_27
REMARK    9  A    between atoms: C_22  and  O_25
REMARK   10  A    between atoms: C_23  and  O_24
REMARK   11  A    between atoms: O_25  and  C_26
REMARK                            x       y       z     vdW  Elec       q    Type
REMARK                         _______ _______ _______ _____ _____    ______ ____
ROOT
ATOM      1  C   LIG A   1      -7.636   4.859 130.019  0.00  0.00    +0.068 A 
ATOM      2  C   LIG A   1      -8.740   5.300 129.121  0.00  0.00    +0.204 A 
ATOM      3  O   LIG A   1      -8.716   5.160 127.915  0.00  0.00    -0.286 OA
ATOM      4  C   LIG A   1      -9.923   5.904 129.779  0.00  0.00    +0.110 A 
ATOM      5  C   LIG A   1     -10.046   5.783 131.154  0.00  0.00    +0.146 A 
ATOM      6  O   LIG A   1      -9.081   5.203 131.940  0.00  0.00    -0.462 OA
ATOM      7  C   LIG A   1      -7.897   4.843 131.331  0.00  0.00    +0.208 A 
ATOM      8  C   LIG A   1     -11.186   6.262 131.799  0.00  0.00    +0.096 A 
ATOM      9  C   LIG A   1     -12.195   6.892 131.060  0.00  0.00    +0.166 A 
ATOM     10  C   LIG A   1     -12.062   7.081 129.675  0.00  0.00    +0.204 A 
ATOM     11  C   LIG A   1     -10.912   6.566 129.039  0.00  0.00    +0.177 A 
ENDROOT
BRANCH   1  13
ATOM     12  C   LIG A   1      -5.205   5.182 129.378  0.00  0.00    +0.132 A 
ATOM     13  C   LIG A   1      -6.349   4.375 129.486  0.00  0.00    +0.034 A 
ATOM     14  C   LIG A   1      -6.276   3.038 129.072  0.00  0.00    +0.061 A 
ATOM     15  C   LIG A   1      -5.104   2.497 128.531  0.00  0.00    +0.162 A 
ATOM     16  C   LIG A   1      -3.953   3.295 128.442  0.00  0.00    +0.165 A 
ATOM     17  C   LIG A   1      -4.005   4.624 128.898  0.00  0.00    +0.095 A 
BRANCH  12  18
ATOM     18  O   LIG A   1      -5.322   6.483 129.805  0.00  0.00    -0.494 OA
ATOM     19  C   LIG A   1      -4.566   6.824 130.966  0.00  0.00    +0.277 C 
ENDBRANCH  12  18
BRANCH  16  20
ATOM     20  O   LIG A   1      -2.722   2.892 127.969  0.00  0.00    -0.491 OA
ATOM     21  C   LIG A   1      -2.296   3.457 126.727  0.00  0.00    +0.277 C 
ENDBRANCH  16  20
BRANCH  15  22
ATOM     22  O   LIG A   1      -5.017   1.206 128.100  0.00  0.00    -0.491 OA
ATOM     23  C   LIG A   1      -5.388   0.902 126.770  0.00  0.00    +0.277 C 
ENDBRANCH  15  22
ENDBRANCH   1  13
BRANCH  11  24
ATOM     24  O   LIG A   1     -10.791   6.740 127.679  0.00  0.00    -0.503 OA
ATOM     25  H   LIG A   1     -11.358   7.495 127.408  0.00  0.00    +0.292 HD
ENDBRANCH  11  24
BRANCH  10  26
ATOM     26  O   LIG A   1     -12.947   7.704 128.835  0.00  0.00    -0.488 OA
ATOM     27  C   LIG A   1     -12.979   9.122 128.806  0.00  0.00    +0.277 C 
ENDBRANCH  10  26
BRANCH   9  28
ATOM     28  O   LIG A   1     -13.307   7.308 131.741  0.00  0.00    -0.503 OA
ATOM     29  H   LIG A   1     -14.095   6.903 131.342  0.00  0.00    +0.292 HD
ENDBRANCH   9  28
TORSDOF 7
ENDMDL
MODEL 4
REMARK VINA RESULT:      -6.8      1.229      2.413
REMARK  Name = NuBBE_1663
REMARK  11 active torsions:
REMARK  status: ('A' for Active; 'I' for Inactive)
REMARK    1  A    between atoms: O_1  and  C_2
REMARK    2  A    between atoms: O_1  and  C_3
REMARK    3  A    between atoms: C_4  and  C_13
REMARK    4  A    between atoms: C_6  and  O_11
REMARK    5  A    between atoms: C_7  and  O_9
REMARK    6  A    between atoms: O_9  and  C_10
REMARK    7  A    between atoms: O_11  and  C_12
REMARK    8  A    between atoms: C_21  and  O_27
REMARK    9  A    between atoms: C_22  and  O_25
REMARK   10  A    between atoms: C_23  and  O_24
REMARK   11  A    between atoms: O_25  and  C_26
REMARK                            x       y       z     vdW  Elec       q    Type
REMARK                         _______ _______ _______ _____ _____    ______ ____
ROOT
ATOM      1  C   LIG A   1      -7.095   5.816 131.762  0.00  0.00    +0.068 A 
ATOM      2  C   LIG A   1      -7.874   5.651 130.504  0.00  0.00    +0.204 A 
ATOM      3  O   LIG A   1      -7.402   5.201 129.481  0.00  0.00    -0.286 OA
ATOM      4  C   LIG A   1      -9.305   6.037 130.559  0.00  0.00    +0.110 A 
ATOM      5  C   LIG A   1      -9.878   6.266 131.800  0.00  0.00    +0.146 A 
ATOM      6  O   LIG A   1      -9.160   6.233 132.970  0.00  0.00    -0.462 OA
ATOM      7  C   LIG A   1      -7.792   6.084 132.873  0.00  0.00    +0.208 A 
ATOM      8  C   LIG A   1     -11.240   6.546 131.900  0.00  0.00    +0.096 A 
ATOM      9  C   LIG A   1     -12.024   6.625 130.742  0.00  0.00    +0.166 A 
ATOM     10  C   LIG A   1     -11.451   6.459 129.471  0.00  0.00    +0.204 A 
ATOM     11  C   LIG A   1     -10.076   6.151 129.395  0.00  0.00    +0.177 A 
ENDROOT
BRANCH   1  13
ATOM     12  C   LIG A   1      -4.714   6.449 131.165  0.00  0.00    +0.132 A 
ATOM     13  C   LIG A   1      -5.636   5.605 131.805  0.00  0.00    +0.034 A 
ATOM     14  C   LIG A   1      -5.157   4.504 132.528  0.00  0.00    +0.061 A 
ATOM     15  C   LIG A   1      -3.791   4.210 132.604  0.00  0.00    +0.162 A 
ATOM     16  C   LIG A   1      -2.866   5.064 131.983  0.00  0.00    +0.165 A 
ATOM     17  C   LIG A   1      -3.335   6.196 131.294  0.00  0.00    +0.095 A 
BRANCH  12  18
ATOM     18  O   LIG A   1      -5.229   7.521 130.476  0.00  0.00    -0.494 OA
ATOM     19  C   LIG A   1      -4.270   8.395 129.883  0.00  0.00    +0.277 C 
ENDBRANCH  12  18
BRANCH  16  20
ATOM     20  O   LIG A   1      -1.494   4.924 132.004  0.00  0.00    -0.491 OA
ATOM     21  C   LIG A   1      -0.742   6.052 132.457  0.00  0.00    +0.277 C 
ENDBRANCH  16  20
BRANCH  15  22
ATOM     22  O   LIG A   1      -3.304   3.131 133.282  0.00  0.00    -0.491 OA
ATOM     23  C   LIG A   1      -3.744   2.899 134.606  0.00  0.00    +0.277 C 
ENDBRANCH  15  22
ENDBRANCH   1  13
BRANCH  11  24
ATOM     24  O   LIG A   1      -9.519   5.974 128.148  0.00  0.00    -0.503 OA
ATOM     25  H   LIG A   1     -10.245   5.870 127.494  0.00  0.00    +0.292 HD
ENDBRANCH  11  24
BRANCH  10  26
ATOM     26  O   LIG A   1     -12.085   6.540 128.259  0.00  0.00    -0.488 OA
ATOM     27  C   LIG A   1     -12.350   7.821 127.711  0.00  0.00    +0.277 C 
ENDBRANCH  10  26
BRANCH   9  28
ATOM     28  O   LIG A   1     -13.362   6.867 130.904  0.00  0.00    -0.503 OA
ATOM     29  H   LIG A   1     -13.742   6.184 131.483  0.00  0.00    +0.292 HD
ENDBRANCH   9  28
TORSDOF 7
ENDMDL
MODEL 5
REMARK VINA RESULT:      -6.6      6.449      8.171
REMARK  Name = NuBBE_1663
REMARK  11 active torsions:
REMARK  status: ('A' for Active; 'I' for Inactive)
REMARK    1  A    between atoms: O_1  and  C_2
REMARK    2  A    between atoms: O_1  and  C_3
REMARK    3  A    between atoms: C_4  and  C_13
REMARK    4  A    between atoms: C_6  and  O_11
REMARK    5  A    between atoms: C_7  and  O_9
REMARK    6  A    between atoms: O_9  and  C_10
REMARK    7  A    between atoms: O_11  and  C_12
REMARK    8  A    between atoms: C_21  and  O_27
REMARK    9  A    between atoms: C_22  and  O_25
REMARK   10  A    between atoms: C_23  and  O_24
REMARK   11  A    between atoms: O_25  and  C_26
REMARK                            x       y       z     vdW  Elec       q    Type
REMARK                         _______ _______ _______ _____ _____    ______ ____
ROOT
ATOM      1  C   LIG A   1      -7.684  -0.228 128.360  0.00  0.00    +0.068 A 
ATOM      2  C   LIG A   1      -8.308   1.124 128.333  0.00  0.00    +0.204 A 
ATOM      3  O   LIG A   1      -8.559   1.723 127.308  0.00  0.00    -0.286 OA
ATOM      4  C   LIG A   1      -8.656   1.715 129.647  0.00  0.00    +0.110 A 
ATOM      5  C   LIG A   1      -8.628   0.897 130.766  0.00  0.00    +0.146 A 
ATOM      6  O   LIG A   1      -8.214  -0.411 130.723  0.00  0.00    -0.462 OA
ATOM      7  C   LIG A   1      -7.693  -0.874 129.532  0.00  0.00    +0.208 A 
ATOM      8  C   LIG A   1      -9.031   1.394 132.005  0.00  0.00    +0.096 A 
ATOM      9  C   LIG A   1      -9.436   2.729 132.125  0.00  0.00    +0.166 A 
ATOM     10  C   LIG A   1      -9.411   3.592 131.017  0.00  0.00    +0.204 A 
ATOM     11  C   LIG A   1      -9.024   3.062 129.768  0.00  0.00    +0.177 A 
ENDROOT
BRANCH   1  13
ATOM     12  C   LIG A   1      -5.953  -0.494 126.527  0.00  0.00    +0.132 A 
ATOM     13  C   LIG A   1      -7.162  -0.866 127.137  0.00  0.00    +0.034 A 
ATOM     14  C   LIG A   1      -7.919  -1.898 126.566  0.00  0.00    +0.061 A 
ATOM     15  C   LIG A   1      -7.516  -2.545 125.392  0.00  0.00    +0.162 A 
ATOM     16  C   LIG A   1      -6.298  -2.191 124.792  0.00  0.00    +0.165 A 
ATOM     17  C   LIG A   1      -5.510  -1.188 125.385  0.00  0.00    +0.095 A 
BRANCH  12  18
ATOM     18  O   LIG A   1      -5.241   0.515 127.128  0.00  0.00    -0.494 OA
ATOM     19  C   LIG A   1      -4.946   1.641 126.303  0.00  0.00    +0.277 C 
ENDBRANCH  12  18
BRANCH  16  20
ATOM     20  O   LIG A   1      -5.755  -2.763 123.661  0.00  0.00    -0.491 OA
ATOM     21  C   LIG A   1      -4.791  -3.798 123.866  0.00  0.00    +0.277 C 
ENDBRANCH  16  20
BRANCH  15  22
ATOM     22  O   LIG A   1      -8.249  -3.536 124.806  0.00  0.00    -0.491 OA
ATOM     23  C   LIG A   1      -9.277  -3.182 123.902  0.00  0.00    +0.277 C 
ENDBRANCH  15  22
ENDBRANCH   1  13
BRANCH  11  24
ATOM     24  O   LIG A   1      -9.015   3.906 128.680  0.00  0.00    -0.503 OA
ATOM     25  H   LIG A   1      -8.192   4.441 128.708  0.00  0.00    +0.292 HD
ENDBRANCH  11  24
BRANCH  10  26
ATOM     26  O   LIG A   1      -9.747   4.920 130.993  0.00  0.00    -0.488 OA
ATOM     27  C   LIG A   1     -11.113   5.278 130.864  0.00  0.00    +0.277 C 
ENDBRANCH  10  26
BRANCH   9  28
ATOM     28  O   LIG A   1      -9.856   3.151 133.358  0.00  0.00    -0.503 OA
ATOM     29  H   LIG A   1      -9.142   3.013 134.002  0.00  0.00    +0.292 HD
ENDBRANCH   9  28
TORSDOF 7
ENDMDL
MODEL 6
REMARK VINA RESULT:      -6.4      5.996      7.241
REMARK  Name = NuBBE_1663
REMARK  11 active torsions:
REMARK  status: ('A' for Active; 'I' for Inactive)
REMARK    1  A    between atoms: O_1  and  C_2
REMARK    2  A    between atoms: O_1  and  C_3
REMARK    3  A    between atoms: C_4  and  C_13
REMARK    4  A    between atoms: C_6  and  O_11
REMARK    5  A    between atoms: C_7  and  O_9
REMARK    6  A    between atoms: O_9  and  C_10
REMARK    7  A    between atoms: O_11  and  C_12
REMARK    8  A    between atoms: C_21  and  O_27
REMARK    9  A    between atoms: C_22  and  O_25
REMARK   10  A    between atoms: C_23  and  O_24
REMARK   11  A    between atoms: O_25  and  C_26
REMARK                            x       y       z     vdW  Elec       q    Type
REMARK                         _______ _______ _______ _____ _____    ______ ____
ROOT
ATOM      1  C   LIG A   1      -6.667   3.345 126.250  0.00  0.00    +0.068 A 
ATOM      2  C   LIG A   1      -7.108   1.924 126.326  0.00  0.00    +0.204 A 
ATOM      3  O   LIG A   1      -6.783   1.171 127.220  0.00  0.00    -0.286 OA
ATOM      4  C   LIG A   1      -8.017   1.458 125.251  0.00  0.00    +0.110 A 
ATOM      5  C   LIG A   1      -8.595   2.406 124.421  0.00  0.00    +0.146 A 
ATOM      6  O   LIG A   1      -8.299   3.744 124.497  0.00  0.00    -0.462 OA
ATOM      7  C   LIG A   1      -7.293   4.124 125.361  0.00  0.00    +0.208 A 
ATOM      8  C   LIG A   1      -9.522   2.015 123.454  0.00  0.00    +0.096 A 
ATOM      9  C   LIG A   1      -9.845   0.662 123.302  0.00  0.00    +0.166 A 
ATOM     10  C   LIG A   1      -9.223  -0.320 124.089  0.00  0.00    +0.204 A 
ATOM     11  C   LIG A   1      -8.309   0.099 125.078  0.00  0.00    +0.177 A 
ENDROOT
BRANCH   1  13
ATOM     12  C   LIG A   1      -5.976   4.553 128.370  0.00  0.00    +0.132 A 
ATOM     13  C   LIG A   1      -5.655   3.892 127.172  0.00  0.00    +0.034 A 
ATOM     14  C   LIG A   1      -4.305   3.736 126.826  0.00  0.00    +0.061 A 
ATOM     15  C   LIG A   1      -3.276   4.244 127.627  0.00  0.00    +0.162 A 
ATOM     16  C   LIG A   1      -3.593   4.886 128.834  0.00  0.00    +0.165 A 
ATOM     17  C   LIG A   1      -4.942   5.006 129.211  0.00  0.00    +0.095 A 
BRANCH  12  18
ATOM     18  O   LIG A   1      -7.310   4.673 128.671  0.00  0.00    -0.494 OA
ATOM     19  C   LIG A   1      -7.762   3.917 129.793  0.00  0.00    +0.277 C 
ENDBRANCH  12  18
BRANCH  16  20
ATOM     20  O   LIG A   1      -2.689   5.401 129.739  0.00  0.00    -0.491 OA
ATOM     21  C   LIG A   1      -2.950   6.720 130.224  0.00  0.00    +0.277 C 
ENDBRANCH  16  20
BRANCH  15  22
ATOM     22  O   LIG A   1      -1.957   4.124 127.297  0.00  0.00    -0.491 OA
ATOM     23  C   LIG A   1      -1.538   2.999 126.549  0.00  0.00    +0.277 C 
ENDBRANCH  15  22
ENDBRANCH   1  13
BRANCH  11  24
ATOM     24  O   LIG A   1      -7.711  -0.865 125.859  0.00  0.00    -0.503 OA
ATOM     25  H   LIG A   1      -6.829  -1.071 125.481  0.00  0.00    +0.292 HD
ENDBRANCH  11  24
BRANCH  10  26
ATOM     26  O   LIG A   1      -9.416  -1.676 124.030  0.00  0.00    -0.488 OA
ATOM     27  C   LIG A   1      -8.754  -2.417 123.017  0.00  0.00    +0.277 C 
ENDBRANCH  10  26
BRANCH   9  28
ATOM     28  O   LIG A   1     -10.788   0.342 122.362  0.00  0.00    -0.503 OA
ATOM     29  H   LIG A   1     -11.599   0.846 122.540  0.00  0.00    +0.292 HD
ENDBRANCH   9  28
TORSDOF 7
ENDMDL
MODEL 7
REMARK VINA RESULT:      -6.4      7.320     11.378
REMARK  Name = NuBBE_1663
REMARK  11 active torsions:
REMARK  status: ('A' for Active; 'I' for Inactive)
REMARK    1  A    between atoms: O_1  and  C_2
REMARK    2  A    between atoms: O_1  and  C_3
REMARK    3  A    between atoms: C_4  and  C_13
REMARK    4  A    between atoms: C_6  and  O_11
REMARK    5  A    between atoms: C_7  and  O_9
REMARK    6  A    between atoms: O_9  and  C_10
REMARK    7  A    between atoms: O_11  and  C_12
REMARK    8  A    between atoms: C_21  and  O_27
REMARK    9  A    between atoms: C_22  and  O_25
REMARK   10  A    between atoms: C_23  and  O_24
REMARK   11  A    between atoms: O_25  and  C_26
REMARK                            x       y       z     vdW  Elec       q    Type
REMARK                         _______ _______ _______ _____ _____    ______ ____
ROOT
ATOM      1  C   LIG A   1      -6.577  -2.031 128.241  0.00  0.00    +0.068 A 
ATOM      2  C   LIG A   1      -7.033  -2.576 129.550  0.00  0.00    +0.204 A 
ATOM      3  O   LIG A   1      -8.201  -2.676 129.861  0.00  0.00    -0.286 OA
ATOM      4  C   LIG A   1      -5.971  -3.039 130.476  0.00  0.00    +0.110 A 
ATOM      5  C   LIG A   1      -4.684  -3.182 129.984  0.00  0.00    +0.146 A 
ATOM      6  O   LIG A   1      -4.333  -2.835 128.702  0.00  0.00    -0.462 OA
ATOM      7  C   LIG A   1      -5.288  -2.208 127.929  0.00  0.00    +0.208 A 
ATOM      8  C   LIG A   1      -3.676  -3.697 130.799  0.00  0.00    +0.096 A 
ATOM      9  C   LIG A   1      -3.960  -4.042 132.126  0.00  0.00    +0.166 A 
ATOM     10  C   LIG A   1      -5.242  -3.846 132.664  0.00  0.00    +0.204 A 
ATOM     11  C   LIG A   1      -6.252  -3.348 131.814  0.00  0.00    +0.177 A 
ENDROOT
BRANCH   1  13
ATOM     12  C   LIG A   1      -7.829  -0.038 127.298  0.00  0.00    +0.132 A 
ATOM     13  C   LIG A   1      -7.518  -1.407 127.291  0.00  0.00    +0.034 A 
ATOM     14  C   LIG A   1      -8.122  -2.235 126.335  0.00  0.00    +0.061 A 
ATOM     15  C   LIG A   1      -9.045  -1.737 125.408  0.00  0.00    +0.162 A 
ATOM     16  C   LIG A   1      -9.343  -0.365 125.399  0.00  0.00    +0.165 A 
ATOM     17  C   LIG A   1      -8.706   0.479 126.326  0.00  0.00    +0.095 A 
BRANCH  12  18
ATOM     18  O   LIG A   1      -7.205   0.734 128.247  0.00  0.00    -0.494 OA
ATOM     19  C   LIG A   1      -8.054   1.288 129.251  0.00  0.00    +0.277 C 
ENDBRANCH  12  18
BRANCH  16  20
ATOM     20  O   LIG A   1     -10.199   0.272 124.526  0.00  0.00    -0.491 OA
ATOM     21  C   LIG A   1      -9.843   1.600 124.134  0.00  0.00    +0.277 C 
ENDBRANCH  16  20
BRANCH  15  22
ATOM     22  O   LIG A   1      -9.664  -2.527 124.484  0.00  0.00    -0.491 OA
ATOM     23  C   LIG A   1      -8.971  -2.863 123.298  0.00  0.00    +0.277 C 
ENDBRANCH  15  22
ENDBRANCH   1  13
BRANCH  11  24
ATOM     24  O   LIG A   1      -7.512  -3.170 132.339  0.00  0.00    -0.503 OA
ATOM     25  H   LIG A   1      -7.466  -2.476 133.033  0.00  0.00    +0.292 HD
ENDBRANCH  11  24
BRANCH  10  26
ATOM     26  O   LIG A   1      -5.653  -4.106 133.945  0.00  0.00    -0.488 OA
ATOM     27  C   LIG A   1      -5.917  -5.448 134.319  0.00  0.00    +0.277 C 
ENDBRANCH  10  26
BRANCH   9  28
ATOM     28  O   LIG A   1      -2.941  -4.577 132.869  0.00  0.00    -0.503 OA
ATOM     29  H   LIG A   1      -3.316  -5.044 133.634  0.00  0.00    +0.292 HD
ENDBRANCH   9  28
TORSDOF 7
ENDMDL
MODEL 8
REMARK VINA RESULT:      -6.3      7.171     11.055
REMARK  Name = NuBBE_1663
REMARK  11 active torsions:
REMARK  status: ('A' for Active; 'I' for Inactive)
REMARK    1  A    between atoms: O_1  and  C_2
REMARK    2  A    between atoms: O_1  and  C_3
REMARK    3  A    between atoms: C_4  and  C_13
REMARK    4  A    between atoms: C_6  and  O_11
REMARK    5  A    between atoms: C_7  and  O_9
REMARK    6  A    between atoms: O_9  and  C_10
REMARK    7  A    between atoms: O_11  and  C_12
REMARK    8  A    between atoms: C_21  and  O_27
REMARK    9  A    between atoms: C_22  and  O_25
REMARK   10  A    between atoms: C_23  and  O_24
REMARK   11  A    between atoms: O_25  and  C_26
REMARK                            x       y       z     vdW  Elec       q    Type
REMARK                         _______ _______ _______ _____ _____    ______ ____
ROOT
ATOM      1  C   LIG A   1      -6.683  -1.842 128.132  0.00  0.00    +0.068 A 
ATOM      2  C   LIG A   1      -7.116  -2.413 129.437  0.00  0.00    +0.204 A 
ATOM      3  O   LIG A   1      -8.280  -2.518 129.766  0.00  0.00    -0.286 OA
ATOM      4  C   LIG A   1      -6.040  -2.898 130.334  0.00  0.00    +0.110 A 
ATOM      5  C   LIG A   1      -4.762  -3.034 129.816  0.00  0.00    +0.146 A 
ATOM      6  O   LIG A   1      -4.432  -2.660 128.537  0.00  0.00    -0.462 OA
ATOM      7  C   LIG A   1      -5.399  -2.015 127.794  0.00  0.00    +0.208 A 
ATOM      8  C   LIG A   1      -3.741  -3.568 130.603  0.00  0.00    +0.096 A 
ATOM      9  C   LIG A   1      -4.002  -3.940 131.927  0.00  0.00    +0.166 A 
ATOM     10  C   LIG A   1      -5.274  -3.753 132.491  0.00  0.00    +0.204 A 
ATOM     11  C   LIG A   1      -6.298  -3.235 131.670  0.00  0.00    +0.177 A 
ENDROOT
BRANCH   1  13
ATOM     12  C   LIG A   1      -8.372  -1.898 126.242  0.00  0.00    +0.132 A 
ATOM     13  C   LIG A   1      -7.638  -1.196 127.212  0.00  0.00    +0.034 A 
ATOM     14  C   LIG A   1      -7.816   0.190 127.325  0.00  0.00    +0.061 A 
ATOM     15  C   LIG A   1      -8.682   0.892 126.479  0.00  0.00    +0.162 A 
ATOM     16  C   LIG A   1      -9.433   0.191 125.523  0.00  0.00    +0.165 A 
ATOM     17  C   LIG A   1      -9.294  -1.206 125.435  0.00  0.00    +0.095 A 
BRANCH  12  18
ATOM     18  O   LIG A   1      -8.171  -3.256 126.176  0.00  0.00    -0.494 OA
ATOM     19  C   LIG A   1      -8.118  -3.810 124.863  0.00  0.00    +0.277 C 
ENDBRANCH  12  18
BRANCH  16  20
ATOM     20  O   LIG A   1     -10.349   0.739 124.651  0.00  0.00    -0.491 OA
ATOM     21  C   LIG A   1      -9.857   1.132 123.367  0.00  0.00    +0.277 C 
ENDBRANCH  16  20
BRANCH  15  22
ATOM     22  O   LIG A   1      -8.853   2.243 126.555  0.00  0.00    -0.491 OA
ATOM     23  C   LIG A   1      -7.825   3.090 126.080  0.00  0.00    +0.277 C 
ENDBRANCH  15  22
ENDBRANCH   1  13
BRANCH  11  24
ATOM     24  O   LIG A   1      -7.548  -3.065 132.221  0.00  0.00    -0.503 OA
ATOM     25  H   LIG A   1      -8.170  -3.684 131.779  0.00  0.00    +0.292 HD
ENDBRANCH  11  24
BRANCH  10  26
ATOM     26  O   LIG A   1      -5.663  -4.039 133.774  0.00  0.00    -0.488 OA
ATOM     27  C   LIG A   1      -5.936  -5.387 134.120  0.00  0.00    +0.277 C 
ENDBRANCH  10  26
BRANCH   9  28
ATOM     28  O   LIG A   1      -2.972  -4.493 132.640  0.00  0.00    -0.503 OA
ATOM     29  H   LIG A   1      -2.804  -3.950 133.429  0.00  0.00    +0.292 HD
ENDBRANCH   9  28
TORSDOF 7
ENDMDL
MODEL 9
REMARK VINA RESULT:      -6.3      7.208      9.214
REMARK  Name = NuBBE_1663
REMARK  11 active torsions:
REMARK  status: ('A' for Active; 'I' for Inactive)
REMARK    1  A    between atoms: O_1  and  C_2
REMARK    2  A    between atoms: O_1  and  C_3
REMARK    3  A    between atoms: C_4  and  C_13
REMARK    4  A    between atoms: C_6  and  O_11
REMARK    5  A    between atoms: C_7  and  O_9
REMARK    6  A    between atoms: O_9  and  C_10
REMARK    7  A    between atoms: O_11  and  C_12
REMARK    8  A    between atoms: C_21  and  O_27
REMARK    9  A    between atoms: C_22  and  O_25
REMARK   10  A    between atoms: C_23  and  O_24
REMARK   11  A    between atoms: O_25  and  C_26
REMARK                            x       y       z     vdW  Elec       q    Type
REMARK                         _______ _______ _______ _____ _____    ______ ____
ROOT
ATOM      1  C   LIG A   1      -7.320  -2.588 129.172  0.00  0.00    +0.068 A 
ATOM      2  C   LIG A   1      -6.933  -1.845 127.940  0.00  0.00    +0.204 A 
ATOM      3  O   LIG A   1      -5.959  -1.125 127.873  0.00  0.00    -0.286 OA
ATOM      4  C   LIG A   1      -7.791  -2.052 126.749  0.00  0.00    +0.110 A 
ATOM      5  C   LIG A   1      -8.709  -3.090 126.771  0.00  0.00    +0.146 A 
ATOM      6  O   LIG A   1      -8.916  -3.880 127.875  0.00  0.00    -0.462 OA
ATOM      7  C   LIG A   1      -8.260  -3.531 129.037  0.00  0.00    +0.208 A 
ATOM      8  C   LIG A   1      -9.474  -3.371 125.638  0.00  0.00    +0.096 A 
ATOM      9  C   LIG A   1      -9.335  -2.584 124.488  0.00  0.00    +0.166 A 
ATOM     10  C   LIG A   1      -8.457  -1.489 124.467  0.00  0.00    +0.204 A 
ATOM     11  C   LIG A   1      -7.675  -1.238 125.614  0.00  0.00    +0.177 A 
ENDROOT
BRANCH   1  13
ATOM     12  C   LIG A   1      -5.483  -3.057 130.856  0.00  0.00    +0.132 A 
ATOM     13  C   LIG A   1      -6.638  -2.362 130.460  0.00  0.00    +0.034 A 
ATOM     14  C   LIG A   1      -7.179  -1.399 131.323  0.00  0.00    +0.061 A 
ATOM     15  C   LIG A   1      -6.614  -1.134 132.576  0.00  0.00    +0.162 A 
ATOM     16  C   LIG A   1      -5.449  -1.811 132.966  0.00  0.00    +0.165 A 
ATOM     17  C   LIG A   1      -4.874  -2.746 132.086  0.00  0.00    +0.095 A 
BRANCH  12  18
ATOM     18  O   LIG A   1      -4.985  -3.984 129.973  0.00  0.00    -0.494 OA
ATOM     19  C   LIG A   1      -3.728  -3.661 129.380  0.00  0.00    +0.277 C 
ENDBRANCH  12  18
BRANCH  16  20
ATOM     20  O   LIG A   1      -4.763  -1.629 134.148  0.00  0.00    -0.491 OA
ATOM     21  C   LIG A   1      -3.662  -0.717 134.116  0.00  0.00    +0.277 C 
ENDBRANCH  16  20
BRANCH  15  22
ATOM     22  O   LIG A   1      -7.137  -0.218 133.442  0.00  0.00    -0.491 OA
ATOM     23  C   LIG A   1      -6.840   1.151 133.251  0.00  0.00    +0.277 C 
ENDBRANCH  15  22
ENDBRANCH   1  13
BRANCH  11  24
ATOM     24  O   LIG A   1      -6.804  -0.172 125.585  0.00  0.00    -0.503 OA
ATOM     25  H   LIG A   1      -6.729   0.194 126.493  0.00  0.00    +0.292 HD
ENDBRANCH  11  24
BRANCH  10  26
ATOM     26  O   LIG A   1      -8.243  -0.618 123.430  0.00  0.00    -0.488 OA
ATOM     27  C   LIG A   1      -9.169   0.436 123.221  0.00  0.00    +0.277 C 
ENDBRANCH  10  26
BRANCH   9  28
ATOM     28  O   LIG A   1     -10.084  -2.929 123.396  0.00  0.00    -0.503 OA
ATOM     29  H   LIG A   1      -9.796  -3.800 123.074  0.00  0.00    +0.292 HD
ENDBRANCH   9  28
TORSDOF 7
ENDMDL
