MODEL 1
REMARK VINA RESULT:      -4.4      0.000      0.000
REMARK  Name = NuBBE_1202
REMARK  3 active torsions:
REMARK  status: ('A' for Active; 'I' for Inactive)
REMARK    1  A    between atoms: C_2  and  C_3
REMARK    2  A    between atoms: C_2  and  C_4
REMARK    3  A    between atoms: C_4  and  O_5
REMARK                            x       y       z     vdW  Elec       q    Type
REMARK                         _______ _______ _______ _____ _____    ______ ____
ROOT
ATOM      1  C   LIG A   1      -5.417   5.536 119.630  0.00  0.00    +0.332 C 
ATOM      2  O   LIG A   1      -4.680   6.203 120.336  0.00  0.00    -0.245 OA
ENDROOT
BRANCH   1   4
ATOM      3  C   LIG A   1      -7.459   4.147 119.728  0.00  0.00    +0.019 C 
ATOM      4  C   LIG A   1      -6.175   4.341 120.072  0.00  0.00    +0.026 C 
ATOM      5  C   LIG A   1      -5.408   3.375 120.922  0.00  0.00    +0.051 C 
ENDBRANCH   1   4
BRANCH   1   6
ATOM      6  O   LIG A   1      -5.607   5.852 118.338  0.00  0.00    -0.477 OA
ATOM      7  H   LIG A   1      -6.563   6.058 118.292  0.00  0.00    +0.295 HD
ENDBRANCH   1   6
TORSDOF 2
ENDMDL
MODEL 2
REMARK VINA RESULT:      -4.3      0.218      1.454
REMARK  Name = NuBBE_1202
REMARK  3 active torsions:
REMARK  status: ('A' for Active; 'I' for Inactive)
REMARK    1  A    between atoms: C_2  and  C_3
REMARK    2  A    between atoms: C_2  and  C_4
REMARK    3  A    between atoms: C_4  and  O_5
REMARK                            x       y       z     vdW  Elec       q    Type
REMARK                         _______ _______ _______ _____ _____    ______ ____
ROOT
ATOM      1  C   LIG A   1      -5.258   5.533 119.815  0.00  0.00    +0.332 C 
ATOM      2  O   LIG A   1      -4.543   6.166 120.572  0.00  0.00    -0.245 OA
ENDROOT
BRANCH   1   4
ATOM      3  C   LIG A   1      -5.466   3.348 120.952  0.00  0.00    +0.019 C 
ATOM      4  C   LIG A   1      -6.001   4.300 120.169  0.00  0.00    +0.026 C 
ATOM      5  C   LIG A   1      -7.380   4.195 119.595  0.00  0.00    +0.051 C 
ENDBRANCH   1   4
BRANCH   1   6
ATOM      6  O   LIG A   1      -5.437   5.926 118.542  0.00  0.00    -0.477 OA
ATOM      7  H   LIG A   1      -6.356   6.263 118.534  0.00  0.00    +0.295 HD
ENDBRANCH   1   6
TORSDOF 2
ENDMDL
MODEL 3
REMARK VINA RESULT:      -3.9      9.545      9.959
REMARK  Name = NuBBE_1202
REMARK  3 active torsions:
REMARK  status: ('A' for Active; 'I' for Inactive)
REMARK    1  A    between atoms: C_2  and  C_3
REMARK    2  A    between atoms: C_2  and  C_4
REMARK    3  A    between atoms: C_4  and  O_5
REMARK                            x       y       z     vdW  Elec       q    Type
REMARK                         _______ _______ _______ _____ _____    ______ ____
ROOT
ATOM      1  C   LIG A   1     -11.403   7.608 126.351  0.00  0.00    +0.332 C 
ATOM      2  O   LIG A   1     -10.742   8.043 125.424  0.00  0.00    -0.245 OA
ENDROOT
BRANCH   1   4
ATOM      3  C   LIG A   1     -10.362   8.500 128.408  0.00  0.00    +0.019 C 
ATOM      4  C   LIG A   1     -11.469   8.201 127.708  0.00  0.00    +0.026 C 
ATOM      5  C   LIG A   1     -12.850   8.441 128.236  0.00  0.00    +0.051 C 
ENDBRANCH   1   4
BRANCH   1   6
ATOM      6  O   LIG A   1     -12.159   6.507 126.204  0.00  0.00    -0.477 OA
ATOM      7  H   LIG A   1     -11.505   5.806 126.009  0.00  0.00    +0.295 HD
ENDBRANCH   1   6
TORSDOF 2
ENDMDL
MODEL 4
REMARK VINA RESULT:      -3.8      1.367      2.140
REMARK  Name = NuBBE_1202
REMARK  3 active torsions:
REMARK  status: ('A' for Active; 'I' for Inactive)
REMARK    1  A    between atoms: C_2  and  C_3
REMARK    2  A    between atoms: C_2  and  C_4
REMARK    3  A    between atoms: C_4  and  O_5
REMARK                            x       y       z     vdW  Elec       q    Type
REMARK                         _______ _______ _______ _____ _____    ______ ____
ROOT
ATOM      1  C   LIG A   1      -5.129   4.949 120.512  0.00  0.00    +0.332 C 
ATOM      2  O   LIG A   1      -4.817   3.999 121.209  0.00  0.00    -0.245 OA
ENDROOT
BRANCH   1   4
ATOM      3  C   LIG A   1      -7.266   4.149 119.563  0.00  0.00    +0.019 C 
ATOM      4  C   LIG A   1      -6.181   4.935 119.469  0.00  0.00    +0.026 C 
ATOM      5  C   LIG A   1      -5.948   5.857 118.311  0.00  0.00    +0.051 C 
ENDBRANCH   1   4
BRANCH   1   6
ATOM      6  O   LIG A   1      -4.513   6.136 120.646  0.00  0.00    -0.477 OA
ATOM      7  H   LIG A   1      -4.192   6.329 119.741  0.00  0.00    +0.295 HD
ENDBRANCH   1   6
TORSDOF 2
ENDMDL
MODEL 5
REMARK VINA RESULT:      -3.7     10.165     10.587
REMARK  Name = NuBBE_1202
REMARK  3 active torsions:
REMARK  status: ('A' for Active; 'I' for Inactive)
REMARK    1  A    between atoms: C_2  and  C_3
REMARK    2  A    between atoms: C_2  and  C_4
REMARK    3  A    between atoms: C_4  and  O_5
REMARK                            x       y       z     vdW  Elec       q    Type
REMARK                         _______ _______ _______ _____ _____    ______ ____
ROOT
ATOM      1  C   LIG A   1     -11.767   7.605 126.984  0.00  0.00    +0.332 C 
ATOM      2  O   LIG A   1     -10.797   8.317 126.795  0.00  0.00    -0.245 OA
ENDROOT
BRANCH   1   4
ATOM      3  C   LIG A   1     -13.884   7.036 128.127  0.00  0.00    +0.019 C 
ATOM      4  C   LIG A   1     -12.822   7.848 127.997  0.00  0.00    +0.026 C 
ATOM      5  C   LIG A   1     -12.618   9.057 128.858  0.00  0.00    +0.051 C 
ENDBRANCH   1   4
BRANCH   1   6
ATOM      6  O   LIG A   1     -11.964   6.495 126.253  0.00  0.00    -0.477 OA
ATOM      7  H   LIG A   1     -12.677   6.752 125.634  0.00  0.00    +0.295 HD
ENDBRANCH   1   6
TORSDOF 2
ENDMDL
MODEL 6
REMARK VINA RESULT:      -3.7     10.107     10.554
REMARK  Name = NuBBE_1202
REMARK  3 active torsions:
REMARK  status: ('A' for Active; 'I' for Inactive)
REMARK    1  A    between atoms: C_2  and  C_3
REMARK    2  A    between atoms: C_2  and  C_4
REMARK    3  A    between atoms: C_4  and  O_5
REMARK                            x       y       z     vdW  Elec       q    Type
REMARK                         _______ _______ _______ _____ _____    ______ ____
ROOT
ATOM      1  C   LIG A   1     -11.389   7.418 127.321  0.00  0.00    +0.332 C 
ATOM      2  O   LIG A   1     -10.223   7.624 127.607  0.00  0.00    -0.245 OA
ENDROOT
BRANCH   1   4
ATOM      3  C   LIG A   1     -12.485   8.992 128.880  0.00  0.00    +0.019 C 
ATOM      4  C   LIG A   1     -12.558   7.909 128.090  0.00  0.00    +0.026 C 
ATOM      5  C   LIG A   1     -13.816   7.113 127.920  0.00  0.00    +0.051 C 
ENDBRANCH   1   4
BRANCH   1   6
ATOM      6  O   LIG A   1     -11.718   6.696 126.236  0.00  0.00    -0.477 OA
ATOM      7  H   LIG A   1     -12.679   6.543 126.347  0.00  0.00    +0.295 HD
ENDBRANCH   1   6
TORSDOF 2
ENDMDL
MODEL 7
REMARK VINA RESULT:      -3.6      2.040      2.756
REMARK  Name = NuBBE_1202
REMARK  3 active torsions:
REMARK  status: ('A' for Active; 'I' for Inactive)
REMARK    1  A    between atoms: C_2  and  C_3
REMARK    2  A    between atoms: C_2  and  C_4
REMARK    3  A    between atoms: C_4  and  O_5
REMARK                            x       y       z     vdW  Elec       q    Type
REMARK                         _______ _______ _______ _____ _____    ______ ____
ROOT
ATOM      1  C   LIG A   1      -7.554   4.144 119.922  0.00  0.00    +0.332 C 
ATOM      2  O   LIG A   1      -8.413   3.815 120.721  0.00  0.00    -0.245 OA
ENDROOT
BRANCH   1   4
ATOM      3  C   LIG A   1      -5.474   3.315 120.971  0.00  0.00    +0.019 C 
ATOM      4  C   LIG A   1      -6.103   4.229 120.212  0.00  0.00    +0.026 C 
ATOM      5  C   LIG A   1      -5.394   5.398 119.601  0.00  0.00    +0.051 C 
ENDBRANCH   1   4
BRANCH   1   6
ATOM      6  O   LIG A   1      -7.873   4.468 118.658  0.00  0.00    -0.477 OA
ATOM      7  H   LIG A   1      -8.037   3.601 118.234  0.00  0.00    +0.295 HD
ENDBRANCH   1   6
TORSDOF 2
ENDMDL
MODEL 8
REMARK VINA RESULT:      -3.5     11.430     11.837
REMARK  Name = NuBBE_1202
REMARK  3 active torsions:
REMARK  status: ('A' for Active; 'I' for Inactive)
REMARK    1  A    between atoms: C_2  and  C_3
REMARK    2  A    between atoms: C_2  and  C_4
REMARK    3  A    between atoms: C_4  and  O_5
REMARK                            x       y       z     vdW  Elec       q    Type
REMARK                         _______ _______ _______ _____ _____    ______ ____
ROOT
ATOM      1  C   LIG A   1     -12.153   8.770 128.629  0.00  0.00    +0.332 C 
ATOM      2  O   LIG A   1     -11.037   8.702 128.143  0.00  0.00    -0.245 OA
ENDROOT
BRANCH   1   4
ATOM      3  C   LIG A   1     -13.756   6.951 128.151  0.00  0.00    +0.019 C 
ATOM      4  C   LIG A   1     -12.984   7.610 129.030  0.00  0.00    +0.026 C 
ATOM      5  C   LIG A   1     -12.898   7.231 130.476  0.00  0.00    +0.051 C 
ENDBRANCH   1   4
BRANCH   1   6
ATOM      6  O   LIG A   1     -12.740   9.959 128.848  0.00  0.00    -0.477 OA
ATOM      7  H   LIG A   1     -12.991  10.259 127.951  0.00  0.00    +0.295 HD
ENDBRANCH   1   6
TORSDOF 2
ENDMDL
MODEL 9
REMARK VINA RESULT:      -3.4     12.275     12.787
REMARK  Name = NuBBE_1202
REMARK  3 active torsions:
REMARK  status: ('A' for Active; 'I' for Inactive)
REMARK    1  A    between atoms: C_2  and  C_3
REMARK    2  A    between atoms: C_2  and  C_4
REMARK    3  A    between atoms: C_4  and  O_5
REMARK                            x       y       z     vdW  Elec       q    Type
REMARK                         _______ _______ _______ _____ _____    ______ ____
ROOT
ATOM      1  C   LIG A   1     -12.548   7.333 130.609  0.00  0.00    +0.332 C 
ATOM      2  O   LIG A   1     -13.252   7.166 131.590  0.00  0.00    -0.245 OA
ENDROOT
BRANCH   1   4
ATOM      3  C   LIG A   1     -13.531   6.986 128.368  0.00  0.00    +0.019 C 
ATOM      4  C   LIG A   1     -13.018   7.817 129.290  0.00  0.00    +0.026 C 
ATOM      5  C   LIG A   1     -12.880   9.292 129.063  0.00  0.00    +0.051 C 
ENDBRANCH   1   4
BRANCH   1   6
ATOM      6  O   LIG A   1     -11.229   7.078 130.654  0.00  0.00    -0.477 OA
ATOM      7  H   LIG A   1     -10.943   7.193 129.725  0.00  0.00    +0.295 HD
ENDBRANCH   1   6
TORSDOF 2
ENDMDL
