MODEL 1
REMARK VINA RESULT:      -5.8      0.000      0.000
REMARK  Name = NuBBE_136
REMARK  8 active torsions:
REMARK  status: ('A' for Active; 'I' for Inactive)
REMARK    1  A    between atoms: O_1  and  C_2
REMARK    2  A    between atoms: C_2  and  C_3
REMARK    3  A    between atoms: C_4  and  C_5
REMARK    4  A    between atoms: C_7  and  O_8
REMARK    5  A    between atoms: O_8  and  C_9
REMARK    6  A    between atoms: C_10  and  O_11
REMARK    7  A    between atoms: C_12  and  O_13
REMARK    8  A    between atoms: O_13  and  C_14
REMARK                            x       y       z     vdW  Elec       q    Type
REMARK                         _______ _______ _______ _____ _____    ______ ____
ROOT
ATOM      1  C   LIG A   1      -6.659  -2.037 123.686  0.00  0.00    -0.018 A 
ATOM      2  C   LIG A   1      -7.670  -2.528 124.529  0.00  0.00    +0.057 A 
ATOM      3  C   LIG A   1      -8.781  -1.746 124.871  0.00  0.00    +0.166 A 
ATOM      4  C   LIG A   1      -8.860  -0.444 124.377  0.00  0.00    +0.201 A 
ATOM      5  C   LIG A   1      -7.856   0.073 123.547  0.00  0.00    +0.166 A 
ATOM      6  C   LIG A   1      -6.765  -0.728 123.197  0.00  0.00    +0.057 A 
ENDROOT
BRANCH   1   8
ATOM      7  C   LIG A   1      -5.051  -3.916 123.939  0.00  0.00    +0.092 C 
ATOM      8  C   LIG A   1      -5.523  -2.868 123.245  0.00  0.00    +0.015 C 
BRANCH   7   9
ATOM      9  C   LIG A   1      -3.919  -4.709 123.430  0.00  0.00    +0.330 C 
ATOM     10  O   LIG A   1      -2.745  -4.361 123.473  0.00  0.00    -0.246 OA
BRANCH   9  11
ATOM     11  O   LIG A   1      -4.327  -5.883 122.906  0.00  0.00    -0.477 OA
ATOM     12  H   LIG A   1      -4.137  -6.667 123.454  0.00  0.00    +0.295 HD
ENDBRANCH   9  11
ENDBRANCH   7   9
ENDBRANCH   1   8
BRANCH   3  13
ATOM     13  O   LIG A   1      -9.688  -2.373 125.686  0.00  0.00    -0.491 OA
ATOM     14  C   LIG A   1      -9.149  -3.351 126.571  0.00  0.00    +0.277 C 
ENDBRANCH   3  13
BRANCH   4  15
ATOM     15  O   LIG A   1      -9.921   0.374 124.672  0.00  0.00    -0.501 OA
ATOM     16  H   LIG A   1     -10.713  -0.100 124.357  0.00  0.00    +0.292 HD
ENDBRANCH   4  15
BRANCH   5  17
ATOM     17  O   LIG A   1      -8.068   1.369 123.144  0.00  0.00    -0.491 OA
ATOM     18  C   LIG A   1      -7.156   2.341 123.639  0.00  0.00    +0.277 C 
ENDBRANCH   5  17
TORSDOF 6
ENDMDL
MODEL 2
REMARK VINA RESULT:      -5.7      5.384      7.382
REMARK  Name = NuBBE_136
REMARK  8 active torsions:
REMARK  status: ('A' for Active; 'I' for Inactive)
REMARK    1  A    between atoms: O_1  and  C_2
REMARK    2  A    between atoms: C_2  and  C_3
REMARK    3  A    between atoms: C_4  and  C_5
REMARK    4  A    between atoms: C_7  and  O_8
REMARK    5  A    between atoms: O_8  and  C_9
REMARK    6  A    between atoms: C_10  and  O_11
REMARK    7  A    between atoms: C_12  and  O_13
REMARK    8  A    between atoms: O_13  and  C_14
REMARK                            x       y       z     vdW  Elec       q    Type
REMARK                         _______ _______ _______ _____ _____    ______ ____
ROOT
ATOM      1  C   LIG A   1      -7.442   3.261 122.105  0.00  0.00    -0.018 A 
ATOM      2  C   LIG A   1      -6.633   3.493 123.230  0.00  0.00    +0.057 A 
ATOM      3  C   LIG A   1      -5.442   4.226 123.134  0.00  0.00    +0.166 A 
ATOM      4  C   LIG A   1      -5.051   4.708 121.886  0.00  0.00    +0.201 A 
ATOM      5  C   LIG A   1      -5.835   4.476 120.747  0.00  0.00    +0.166 A 
ATOM      6  C   LIG A   1      -7.031   3.763 120.863  0.00  0.00    +0.057 A 
ENDROOT
BRANCH   1   8
ATOM      7  C   LIG A   1      -9.116   1.818 123.245  0.00  0.00    +0.092 C 
ATOM      8  C   LIG A   1      -8.740   2.566 122.194  0.00  0.00    +0.015 C 
BRANCH   7   9
ATOM      9  C   LIG A   1     -10.434   1.162 123.269  0.00  0.00    +0.330 C 
ATOM     10  O   LIG A   1     -10.831   0.358 122.434  0.00  0.00    -0.246 OA
BRANCH   9  11
ATOM     11  O   LIG A   1     -11.165   1.547 124.335  0.00  0.00    -0.477 OA
ATOM     12  H   LIG A   1     -11.049   2.479 124.599  0.00  0.00    +0.295 HD
ENDBRANCH   9  11
ENDBRANCH   7   9
ENDBRANCH   1   8
BRANCH   3  13
ATOM     13  O   LIG A   1      -4.774   4.381 124.322  0.00  0.00    -0.491 OA
ATOM     14  C   LIG A   1      -5.595   4.542 125.475  0.00  0.00    +0.277 C 
ENDBRANCH   3  13
BRANCH   4  15
ATOM     15  O   LIG A   1      -3.898   5.433 121.724  0.00  0.00    -0.501 OA
ATOM     16  H   LIG A   1      -3.801   5.958 122.540  0.00  0.00    +0.292 HD
ENDBRANCH   4  15
BRANCH   5  17
ATOM     17  O   LIG A   1      -5.320   5.006 119.589  0.00  0.00    -0.491 OA
ATOM     18  C   LIG A   1      -6.261   5.368 118.588  0.00  0.00    +0.277 C 
ENDBRANCH   5  17
TORSDOF 6
ENDMDL
MODEL 3
REMARK VINA RESULT:      -5.4      4.324      6.731
REMARK  Name = NuBBE_136
REMARK  8 active torsions:
REMARK  status: ('A' for Active; 'I' for Inactive)
REMARK    1  A    between atoms: O_1  and  C_2
REMARK    2  A    between atoms: C_2  and  C_3
REMARK    3  A    between atoms: C_4  and  C_5
REMARK    4  A    between atoms: C_7  and  O_8
REMARK    5  A    between atoms: O_8  and  C_9
REMARK    6  A    between atoms: C_10  and  O_11
REMARK    7  A    between atoms: C_12  and  O_13
REMARK    8  A    between atoms: O_13  and  C_14
REMARK                            x       y       z     vdW  Elec       q    Type
REMARK                         _______ _______ _______ _____ _____    ______ ____
ROOT
ATOM      1  C   LIG A   1      -6.162   3.292 123.367  0.00  0.00    -0.018 A 
ATOM      2  C   LIG A   1      -5.709   3.126 124.687  0.00  0.00    +0.057 A 
ATOM      3  C   LIG A   1      -6.173   2.077 125.492  0.00  0.00    +0.166 A 
ATOM      4  C   LIG A   1      -7.122   1.201 124.969  0.00  0.00    +0.201 A 
ATOM      5  C   LIG A   1      -7.600   1.355 123.660  0.00  0.00    +0.166 A 
ATOM      6  C   LIG A   1      -7.112   2.392 122.862  0.00  0.00    +0.057 A 
ENDROOT
BRANCH   1   8
ATOM      7  C   LIG A   1      -5.597   4.226 121.134  0.00  0.00    +0.092 C 
ATOM      8  C   LIG A   1      -5.629   4.335 122.472  0.00  0.00    +0.015 C 
BRANCH   7   9
ATOM      9  C   LIG A   1      -5.061   5.316 120.302  0.00  0.00    +0.330 C 
ATOM     10  O   LIG A   1      -5.363   5.518 119.132  0.00  0.00    -0.246 OA
BRANCH   9  11
ATOM     11  O   LIG A   1      -4.187   6.084 120.986  0.00  0.00    -0.477 OA
ATOM     12  H   LIG A   1      -3.334   5.656 121.190  0.00  0.00    +0.295 HD
ENDBRANCH   9  11
ENDBRANCH   7   9
ENDBRANCH   1   8
BRANCH   3  13
ATOM     13  O   LIG A   1      -5.623   2.040 126.748  0.00  0.00    -0.491 OA
ATOM     14  C   LIG A   1      -4.267   2.467 126.841  0.00  0.00    +0.277 C 
ENDBRANCH   3  13
BRANCH   4  15
ATOM     15  O   LIG A   1      -7.616   0.153 125.704  0.00  0.00    -0.501 OA
ATOM     16  H   LIG A   1      -7.493  -0.639 125.147  0.00  0.00    +0.292 HD
ENDBRANCH   4  15
BRANCH   5  17
ATOM     17  O   LIG A   1      -8.536   0.421 123.286  0.00  0.00    -0.491 OA
ATOM     18  C   LIG A   1      -9.802   0.923 122.880  0.00  0.00    +0.277 C 
ENDBRANCH   5  17
TORSDOF 6
ENDMDL
MODEL 4
REMARK VINA RESULT:      -5.3      4.438      6.665
REMARK  Name = NuBBE_136
REMARK  8 active torsions:
REMARK  status: ('A' for Active; 'I' for Inactive)
REMARK    1  A    between atoms: O_1  and  C_2
REMARK    2  A    between atoms: C_2  and  C_3
REMARK    3  A    between atoms: C_4  and  C_5
REMARK    4  A    between atoms: C_7  and  O_8
REMARK    5  A    between atoms: O_8  and  C_9
REMARK    6  A    between atoms: C_10  and  O_11
REMARK    7  A    between atoms: C_12  and  O_13
REMARK    8  A    between atoms: O_13  and  C_14
REMARK                            x       y       z     vdW  Elec       q    Type
REMARK                         _______ _______ _______ _____ _____    ______ ____
ROOT
ATOM      1  C   LIG A   1      -6.101   3.263 123.320  0.00  0.00    -0.018 A 
ATOM      2  C   LIG A   1      -7.019   2.288 122.896  0.00  0.00    +0.057 A 
ATOM      3  C   LIG A   1      -7.545   1.343 123.787  0.00  0.00    +0.166 A 
ATOM      4  C   LIG A   1      -7.122   1.368 125.115  0.00  0.00    +0.201 A 
ATOM      5  C   LIG A   1      -6.195   2.323 125.558  0.00  0.00    +0.166 A 
ATOM      6  C   LIG A   1      -5.697   3.272 124.662  0.00  0.00    +0.057 A 
ENDROOT
BRANCH   1   8
ATOM      7  C   LIG A   1      -5.602   4.224 121.082  0.00  0.00    +0.092 C 
ATOM      8  C   LIG A   1      -5.597   4.319 122.422  0.00  0.00    +0.015 C 
BRANCH   7   9
ATOM      9  C   LIG A   1      -5.093   5.325 120.247  0.00  0.00    +0.330 C 
ATOM     10  O   LIG A   1      -5.407   5.521 119.079  0.00  0.00    -0.246 OA
BRANCH   9  11
ATOM     11  O   LIG A   1      -4.231   6.110 120.926  0.00  0.00    -0.477 OA
ATOM     12  H   LIG A   1      -3.663   6.676 120.370  0.00  0.00    +0.295 HD
ENDBRANCH   9  11
ENDBRANCH   7   9
ENDBRANCH   1   8
BRANCH   3  13
ATOM     13  O   LIG A   1      -8.441   0.470 123.226  0.00  0.00    -0.491 OA
ATOM     14  C   LIG A   1      -9.739   0.998 122.967  0.00  0.00    +0.277 C 
ENDBRANCH   3  13
BRANCH   4  15
ATOM     15  O   LIG A   1      -7.598   0.473 126.040  0.00  0.00    -0.501 OA
ATOM     16  H   LIG A   1      -7.735  -0.360 125.552  0.00  0.00    +0.292 HD
ENDBRANCH   4  15
BRANCH   5  17
ATOM     17  O   LIG A   1      -5.869   2.219 126.888  0.00  0.00    -0.491 OA
ATOM     18  C   LIG A   1      -4.530   2.545 127.237  0.00  0.00    +0.277 C 
ENDBRANCH   5  17
TORSDOF 6
ENDMDL
MODEL 5
REMARK VINA RESULT:      -5.3      5.574      6.589
REMARK  Name = NuBBE_136
REMARK  8 active torsions:
REMARK  status: ('A' for Active; 'I' for Inactive)
REMARK    1  A    between atoms: O_1  and  C_2
REMARK    2  A    between atoms: C_2  and  C_3
REMARK    3  A    between atoms: C_4  and  C_5
REMARK    4  A    between atoms: C_7  and  O_8
REMARK    5  A    between atoms: O_8  and  C_9
REMARK    6  A    between atoms: C_10  and  O_11
REMARK    7  A    between atoms: C_12  and  O_13
REMARK    8  A    between atoms: O_13  and  C_14
REMARK                            x       y       z     vdW  Elec       q    Type
REMARK                         _______ _______ _______ _____ _____    ______ ____
ROOT
ATOM      1  C   LIG A   1      -5.683   3.301 125.438  0.00  0.00    -0.018 A 
ATOM      2  C   LIG A   1      -6.186   3.436 124.133  0.00  0.00    +0.057 A 
ATOM      3  C   LIG A   1      -7.529   3.166 123.836  0.00  0.00    +0.166 A 
ATOM      4  C   LIG A   1      -8.367   2.732 124.862  0.00  0.00    +0.201 A 
ATOM      5  C   LIG A   1      -7.884   2.576 126.169  0.00  0.00    +0.166 A 
ATOM      6  C   LIG A   1      -6.548   2.870 126.454  0.00  0.00    +0.057 A 
ENDROOT
BRANCH   1   8
ATOM      7  C   LIG A   1      -3.506   2.899 126.569  0.00  0.00    +0.092 C 
ATOM      8  C   LIG A   1      -4.297   3.658 125.793  0.00  0.00    +0.015 C 
BRANCH   7   9
ATOM      9  C   LIG A   1      -2.126   3.314 126.872  0.00  0.00    +0.330 C 
ATOM     10  O   LIG A   1      -1.129   2.633 126.663  0.00  0.00    -0.246 OA
BRANCH   9  11
ATOM     11  O   LIG A   1      -2.082   4.550 127.408  0.00  0.00    -0.477 OA
ATOM     12  H   LIG A   1      -2.924   4.868 127.784  0.00  0.00    +0.295 HD
ENDBRANCH   9  11
ENDBRANCH   7   9
ENDBRANCH   1   8
BRANCH   3  13
ATOM     13  O   LIG A   1      -7.870   3.361 122.522  0.00  0.00    -0.491 OA
ATOM     14  C   LIG A   1      -6.780   3.504 121.616  0.00  0.00    +0.277 C 
ENDBRANCH   3  13
BRANCH   4  15
ATOM     15  O   LIG A   1      -9.692   2.452 124.639  0.00  0.00    -0.501 OA
ATOM     16  H   LIG A   1     -10.188   3.057 125.220  0.00  0.00    +0.292 HD
ENDBRANCH   4  15
BRANCH   5  17
ATOM     17  O   LIG A   1      -8.823   2.136 127.070  0.00  0.00    -0.491 OA
ATOM     18  C   LIG A   1      -8.362   1.884 128.391  0.00  0.00    +0.277 C 
ENDBRANCH   5  17
TORSDOF 6
ENDMDL
MODEL 6
REMARK VINA RESULT:      -5.2      5.217      6.162
REMARK  Name = NuBBE_136
REMARK  8 active torsions:
REMARK  status: ('A' for Active; 'I' for Inactive)
REMARK    1  A    between atoms: O_1  and  C_2
REMARK    2  A    between atoms: C_2  and  C_3
REMARK    3  A    between atoms: C_4  and  C_5
REMARK    4  A    between atoms: C_7  and  O_8
REMARK    5  A    between atoms: O_8  and  C_9
REMARK    6  A    between atoms: C_10  and  O_11
REMARK    7  A    between atoms: C_12  and  O_13
REMARK    8  A    between atoms: O_13  and  C_14
REMARK                            x       y       z     vdW  Elec       q    Type
REMARK                         _______ _______ _______ _____ _____    ______ ____
ROOT
ATOM      1  C   LIG A   1      -5.644   3.730 125.068  0.00  0.00    -0.018 A 
ATOM      2  C   LIG A   1      -6.845   3.254 125.619  0.00  0.00    +0.057 A 
ATOM      3  C   LIG A   1      -7.945   2.936 124.812  0.00  0.00    +0.166 A 
ATOM      4  C   LIG A   1      -7.841   3.124 123.434  0.00  0.00    +0.201 A 
ATOM      5  C   LIG A   1      -6.658   3.612 122.862  0.00  0.00    +0.166 A 
ATOM      6  C   LIG A   1      -5.562   3.904 123.679  0.00  0.00    +0.057 A 
ENDROOT
BRANCH   1   8
ATOM      7  C   LIG A   1      -3.538   3.055 126.202  0.00  0.00    +0.092 C 
ATOM      8  C   LIG A   1      -4.446   3.993 125.886  0.00  0.00    +0.015 C 
BRANCH   7   9
ATOM      9  C   LIG A   1      -2.358   3.393 127.015  0.00  0.00    +0.330 C 
ATOM     10  O   LIG A   1      -2.280   4.355 127.770  0.00  0.00    -0.246 OA
BRANCH   9  11
ATOM     11  O   LIG A   1      -1.356   2.507 126.835  0.00  0.00    -0.477 OA
ATOM     12  H   LIG A   1      -0.461   2.894 126.822  0.00  0.00    +0.295 HD
ENDBRANCH   9  11
ENDBRANCH   7   9
ENDBRANCH   1   8
BRANCH   3  13
ATOM     13  O   LIG A   1      -9.037   2.467 125.498  0.00  0.00    -0.491 OA
ATOM     14  C   LIG A   1      -8.896   1.169 126.068  0.00  0.00    +0.277 C 
ENDBRANCH   3  13
BRANCH   4  15
ATOM     15  O   LIG A   1      -8.880   2.831 122.587  0.00  0.00    -0.501 OA
ATOM     16  H   LIG A   1      -9.684   2.868 123.137  0.00  0.00    +0.292 HD
ENDBRANCH   4  15
BRANCH   5  17
ATOM     17  O   LIG A   1      -6.706   3.751 121.496  0.00  0.00    -0.491 OA
ATOM     18  C   LIG A   1      -5.469   4.007 120.844  0.00  0.00    +0.277 C 
ENDBRANCH   5  17
TORSDOF 6
ENDMDL
MODEL 7
REMARK VINA RESULT:      -5.1     10.801     11.820
REMARK  Name = NuBBE_136
REMARK  8 active torsions:
REMARK  status: ('A' for Active; 'I' for Inactive)
REMARK    1  A    between atoms: O_1  and  C_2
REMARK    2  A    between atoms: C_2  and  C_3
REMARK    3  A    between atoms: C_4  and  C_5
REMARK    4  A    between atoms: C_7  and  O_8
REMARK    5  A    between atoms: O_8  and  C_9
REMARK    6  A    between atoms: C_10  and  O_11
REMARK    7  A    between atoms: C_12  and  O_13
REMARK    8  A    between atoms: O_13  and  C_14
REMARK                            x       y       z     vdW  Elec       q    Type
REMARK                         _______ _______ _______ _____ _____    ______ ____
ROOT
ATOM      1  C   LIG A   1      -7.333   6.007 131.661  0.00  0.00    -0.018 A 
ATOM      2  C   LIG A   1      -8.644   6.495 131.784  0.00  0.00    +0.057 A 
ATOM      3  C   LIG A   1      -9.599   5.838 132.571  0.00  0.00    +0.166 A 
ATOM      4  C   LIG A   1      -9.232   4.661 133.223  0.00  0.00    +0.201 A 
ATOM      5  C   LIG A   1      -7.934   4.146 133.104  0.00  0.00    +0.166 A 
ATOM      6  C   LIG A   1      -6.987   4.826 132.333  0.00  0.00    +0.057 A 
ENDROOT
BRANCH   1   8
ATOM      7  C   LIG A   1      -5.028   6.882 131.343  0.00  0.00    +0.092 C 
ATOM      8  C   LIG A   1      -6.288   6.724 130.907  0.00  0.00    +0.015 C 
BRANCH   7   9
ATOM      9  C   LIG A   1      -4.033   7.600 130.529  0.00  0.00    +0.330 C 
ATOM     10  O   LIG A   1      -2.819   7.455 130.617  0.00  0.00    -0.246 OA
BRANCH   9  11
ATOM     11  O   LIG A   1      -4.618   8.446 129.656  0.00  0.00    -0.477 OA
ATOM     12  H   LIG A   1      -5.287   8.040 129.073  0.00  0.00    +0.295 HD
ENDBRANCH   9  11
ENDBRANCH   7   9
ENDBRANCH   1   8
BRANCH   3  13
ATOM     13  O   LIG A   1     -10.827   6.448 132.603  0.00  0.00    -0.491 OA
ATOM     14  C   LIG A   1     -11.609   6.323 131.419  0.00  0.00    +0.277 C 
ENDBRANCH   3  13
BRANCH   4  15
ATOM     15  O   LIG A   1     -10.118   3.970 134.011  0.00  0.00    -0.501 OA
ATOM     16  H   LIG A   1     -10.595   3.372 133.407  0.00  0.00    +0.292 HD
ENDBRANCH   4  15
BRANCH   5  17
ATOM     17  O   LIG A   1      -7.723   2.979 133.797  0.00  0.00    -0.491 OA
ATOM     18  C   LIG A   1      -6.639   2.171 133.358  0.00  0.00    +0.277 C 
ENDBRANCH   5  17
TORSDOF 6
ENDMDL
MODEL 8
REMARK VINA RESULT:      -5.1     11.232     11.833
REMARK  Name = NuBBE_136
REMARK  8 active torsions:
REMARK  status: ('A' for Active; 'I' for Inactive)
REMARK    1  A    between atoms: O_1  and  C_2
REMARK    2  A    between atoms: C_2  and  C_3
REMARK    3  A    between atoms: C_4  and  C_5
REMARK    4  A    between atoms: C_7  and  O_8
REMARK    5  A    between atoms: O_8  and  C_9
REMARK    6  A    between atoms: C_10  and  O_11
REMARK    7  A    between atoms: C_12  and  O_13
REMARK    8  A    between atoms: O_13  and  C_14
REMARK                            x       y       z     vdW  Elec       q    Type
REMARK                         _______ _______ _______ _____ _____    ______ ____
ROOT
ATOM      1  C   LIG A   1      -7.622   6.734 131.196  0.00  0.00    -0.018 A 
ATOM      2  C   LIG A   1      -8.680   7.249 130.430  0.00  0.00    +0.057 A 
ATOM      3  C   LIG A   1     -10.014   6.922 130.710  0.00  0.00    +0.166 A 
ATOM      4  C   LIG A   1     -10.280   6.045 131.761  0.00  0.00    +0.201 A 
ATOM      5  C   LIG A   1      -9.240   5.506 132.531  0.00  0.00    +0.166 A 
ATOM      6  C   LIG A   1      -7.917   5.860 132.252  0.00  0.00    +0.057 A 
ENDROOT
BRANCH   1   8
ATOM      7  C   LIG A   1      -5.179   6.589 131.632  0.00  0.00    +0.092 C 
ATOM      8  C   LIG A   1      -6.219   7.128 130.974  0.00  0.00    +0.015 C 
BRANCH   7   9
ATOM      9  C   LIG A   1      -3.801   7.024 131.349  0.00  0.00    +0.330 C 
ATOM     10  O   LIG A   1      -3.477   8.163 131.036  0.00  0.00    -0.246 OA
BRANCH   9  11
ATOM     11  O   LIG A   1      -2.920   6.011 131.481  0.00  0.00    -0.477 OA
ATOM     12  H   LIG A   1      -3.067   5.255 130.881  0.00  0.00    +0.295 HD
ENDBRANCH   9  11
ENDBRANCH   7   9
ENDBRANCH   1   8
BRANCH   3  13
ATOM     13  O   LIG A   1     -10.931   7.518 129.884  0.00  0.00    -0.491 OA
ATOM     14  C   LIG A   1     -10.410   8.064 128.675  0.00  0.00    +0.277 C 
ENDBRANCH   3  13
BRANCH   4  15
ATOM     15  O   LIG A   1     -11.563   5.684 132.089  0.00  0.00    -0.501 OA
ATOM     16  H   LIG A   1     -12.000   6.506 132.379  0.00  0.00    +0.292 HD
ENDBRANCH   4  15
BRANCH   5  17
ATOM     17  O   LIG A   1      -9.655   4.654 133.525  0.00  0.00    -0.491 OA
ATOM     18  C   LIG A   1      -8.955   3.422 133.634  0.00  0.00    +0.277 C 
ENDBRANCH   5  17
TORSDOF 6
ENDMDL
MODEL 9
REMARK VINA RESULT:      -5.0      8.564     10.967
REMARK  Name = NuBBE_136
REMARK  8 active torsions:
REMARK  status: ('A' for Active; 'I' for Inactive)
REMARK    1  A    between atoms: O_1  and  C_2
REMARK    2  A    between atoms: C_2  and  C_3
REMARK    3  A    between atoms: C_4  and  C_5
REMARK    4  A    between atoms: C_7  and  O_8
REMARK    5  A    between atoms: O_8  and  C_9
REMARK    6  A    between atoms: C_10  and  O_11
REMARK    7  A    between atoms: C_12  and  O_13
REMARK    8  A    between atoms: O_13  and  C_14
REMARK                            x       y       z     vdW  Elec       q    Type
REMARK                         _______ _______ _______ _____ _____    ______ ____
ROOT
ATOM      1  C   LIG A   1      -8.192   6.186 130.890  0.00  0.00    -0.018 A 
ATOM      2  C   LIG A   1      -9.424   6.556 131.455  0.00  0.00    +0.057 A 
ATOM      3  C   LIG A   1     -10.572   5.771 131.282  0.00  0.00    +0.166 A 
ATOM      4  C   LIG A   1     -10.482   4.614 130.510  0.00  0.00    +0.201 A 
ATOM      5  C   LIG A   1      -9.266   4.233 129.923  0.00  0.00    +0.166 A 
ATOM      6  C   LIG A   1      -8.125   5.014 130.124  0.00  0.00    +0.057 A 
ENDROOT
BRANCH   1   8
ATOM      7  C   LIG A   1      -5.732   6.519 130.768  0.00  0.00    +0.092 C 
ATOM      8  C   LIG A   1      -6.952   6.949 131.127  0.00  0.00    +0.015 C 
BRANCH   7   9
ATOM      9  C   LIG A   1      -4.538   7.342 131.025  0.00  0.00    +0.330 C 
ATOM     10  O   LIG A   1      -3.819   7.242 132.013  0.00  0.00    -0.246 OA
BRANCH   9  11
ATOM     11  O   LIG A   1      -4.317   8.228 130.033  0.00  0.00    -0.477 OA
ATOM     12  H   LIG A   1      -3.385   8.315 129.757  0.00  0.00    +0.295 HD
ENDBRANCH   9  11
ENDBRANCH   7   9
ENDBRANCH   1   8
BRANCH   3  13
ATOM     13  O   LIG A   1     -11.691   6.256 131.909  0.00  0.00    -0.491 OA
ATOM     14  C   LIG A   1     -12.500   7.137 131.135  0.00  0.00    +0.277 C 
ENDBRANCH   3  13
BRANCH   4  15
ATOM     15  O   LIG A   1     -11.567   3.801 130.302  0.00  0.00    -0.501 OA
ATOM     16  H   LIG A   1     -12.253   4.374 129.912  0.00  0.00    +0.292 HD
ENDBRANCH   4  15
BRANCH   5  17
ATOM     17  O   LIG A   1      -9.332   3.075 129.187  0.00  0.00    -0.491 OA
ATOM     18  C   LIG A   1      -8.295   2.128 129.405  0.00  0.00    +0.277 C 
ENDBRANCH   5  17
TORSDOF 6
ENDMDL
